@<TRIPOS>MOLECULE
4g2c_HEM_A_1.pdb
 43 50 0 0 0
SMALL
GASTEIGER

@<TRIPOS>ATOM
      1  CHA      -18.9070  -16.8470   43.2650 C.2   501  HEM501      0.0000
      2  CHB      -14.1310  -16.3810   44.0390 C.2   501  HEM501      0.0000
      3  CHC      -14.9750  -13.8480   48.0970 C.2   501  HEM501      0.0000
      4  CHD      -19.6630  -14.9950   47.7330 C.2   501  HEM501      0.0000
      5  C1A      -17.5440  -16.9290   43.1080 C.ar  501  HEM501      0.0000
      6  C2A      -16.8660  -17.5520   41.9900 C.ar  501  HEM501      0.0000
      7  C3A      -15.5520  -17.4150   42.2080 C.ar  501  HEM501      0.0000
      8  C4A      -15.3540  -16.7050   43.4600 C.ar  501  HEM501      0.0000
      9  CMA      -14.4210  -17.9190   41.2960 C.3   501  HEM501      0.0000
     10  CAA      -17.5710  -18.2340   40.7840 C.3   501  HEM501      0.0000
     11  CBA      -17.9360  -17.1720   39.7420 C.3   501  HEM501      0.0000
     12  CGA      -19.2680  -16.5210   40.0370 C.2   501  HEM501      0.0000
     13  O1A      -20.2830  -17.2240   40.1940 O.co2 501  HEM501      0.0000
     14  O2A      -19.3350  -15.2770   40.1180 O.co2 501  HEM501      0.0000
     15  C1B      -13.9150  -15.6640   45.2070 C.2   501  HEM501      0.0000
     16  C2B      -12.6340  -15.2670   45.7890 C.2   501  HEM501      0.0000
     17  C3B      -12.8900  -14.5650   46.9110 C.2   501  HEM501      0.0000
     18  C4B      -14.3210  -14.4760   47.0690 C.2   501  HEM501      0.0000
     19  CMB      -11.2430  -15.6280   45.2090 C.3   501  HEM501      0.0000
     20  CAB      -11.9030  -13.9000   47.8960 C.2   501  HEM501      0.0000
     21  CBB      -10.6520  -13.6140   47.5270 C.2   501  HEM501      0.0000
     22  C1C      -16.3110  -14.0080   48.3910 C.ar  501  HEM501      0.0000
     23  C2C      -16.9650  -13.6120   49.6280 C.ar  501  HEM501      0.0000
     24  C3C      -18.2680  -13.9180   49.5110 C.ar  501  HEM501      0.0000
     25  C4C      -18.4690  -14.5180   48.2070 C.ar  501  HEM501      0.0000
     26  CMC      -16.2770  -12.9210   50.8400 C.3   501  HEM501      0.0000
     27  CAC      -19.3790  -13.7290   50.5720 C.2   501  HEM501      0.0000
     28  CBC      -19.0870  -13.6010   51.8760 C.2   501  HEM501      0.0000
     29  C1D      -19.9000  -15.5400   46.4890 C.2   501  HEM501      0.0000
     30  C2D      -21.2130  -15.8060   45.9630 C.2   501  HEM501      0.0000
     31  C3D      -20.9560  -16.3620   44.5710 C.2   501  HEM501      0.0000
     32  C4D      -19.5380  -16.3970   44.3970 C.2   501  HEM501      0.0000
     33  CMD      -22.5620  -15.5590   46.6600 C.3   501  HEM501      0.0000
     34  CAD      -21.9760  -16.8420   43.5580 C.3   501  HEM501      0.0000
     35  CBD      -22.4170  -18.1920   44.0860 C.3   501  HEM501      0.0000
     36  CGD      -23.5360  -18.6040   43.1710 C.2   501  HEM501      0.0000
     37  O1D      -24.5200  -17.8260   43.0610 O.co2 501  HEM501      0.0000
     38  O2D      -23.4000  -19.6810   42.5300 O.co2 501  HEM501      0.0000
     39  NA       -16.6040  -16.4190   43.9730 N.ar  501  HEM501      0.0000
     40  NB       -14.9100  -15.1560   46.0200 N.2   501  HEM501      0.0000
     41  NC       -17.2610  -14.5600   47.5460 N.ar  501  HEM501      0.0000
     42  ND       -18.9510  -15.9010   45.5390 N.2   501  HEM501      0.0000
     43 FE        -16.8440  -15.6800   45.8420 Fe    501  HEM501      0.0000
@<TRIPOS>BOND
     1    11    12    1
     2    11    10    1
     3    12    14   ar
     4    12    13   ar
     5    10     6    1
     6     9     7    1
     7     6     7   ar
     8     6     5   ar
     9     7     8   ar
    10    38    36   ar
    11    37    36   ar
    12     5     1    2
    13     5    39   ar
    14    36    35    1
    15     1    32    1
    16     8    39   ar
    17     8     2    2
    18    34    35    1
    19    34    31    1
    20    39    43    1
    21     2    15    1
    22    32    31    1
    23    32    42    2
    24    31    30    2
    25    15    16    1
    26    15    40    2
    27    19    16    1
    28    42    43    1
    29    42    29    1
    30    16    17    2
    31    43    40    1
    32    43    41    1
    33    30    29    1
    34    30    33    1
    35    40    18    1
    36    29     4    2
    37    17    18    1
    38    17    20    1
    39    18     3    2
    40    21    20    2
    41    41    25   ar
    42    41    22   ar
    43     4    25    1
    44     3    22    1
    45    25    24   ar
    46    22    23   ar
    47    24    23   ar
    48    24    27    1
    49    23    26    1
    50    27    28    2
