@<TRIPOS>MOLECULE
4g2f_C07_A_1.pdb
 24 27 0 0 0
SMALL
GASTEIGER

@<TRIPOS>ATOM
      1  O1        -9.5810    8.4270   53.9710 O.2   1001  C071001    -0.2460
      2  C7        -9.2290    7.7920   52.8640 C.2   1001  C071001     0.3208
      3  C8        -8.9370    6.3330   52.9210 C.3   1001  C071001     0.1210
      4  C13       -9.0440    5.6030   54.2410 C.3   1001  C071001     0.0156
      5  C12       -8.8080    4.1010   54.0820 C.3   1001  C071001     0.0012
      6  C11       -7.7220    3.7870   53.0570 C.3   1001  C071001     0.0044
      7  C10       -8.2310    4.1530   51.6700 C.3   1001  C071001     0.0231
      8  C9        -8.5480    5.6300   51.6780 C.2   1001  C071001    -0.0190
      9  C14       -8.4730    6.4380   50.4400 C.2   1001  C071001     0.1655
     10  C17       -8.7780    7.8830   50.4990 C.2   1001  C071001     0.3409
     11  N3        -8.6940    8.5890   49.3500 N.2   1001  C071001    -0.0064
     12  C16       -8.3410    8.0050   48.1900 C.3   1001  C071001     0.5253
     13  N2        -8.0510    6.6980   48.0720 N.2   1001  C071001     0.0007
     14  C15       -8.0880    5.8640   49.1320 C.2   1001  C071001     0.4212
     15  N1        -7.7990    4.5480   49.0170 N.pl3 1001  C071001     0.2163
     16  N         -9.1490    8.4860   51.7250 N.am  1001  C071001    -0.1199
     17  C2        -9.4430    9.8570   51.7900 C.ar  1001  C071001     0.1453
     18  C3        -8.5700   10.7190   52.4240 C.ar  1001  C071001     0.0824
     19  C4        -8.8680   12.0680   52.4900 C.ar  1001  C071001     0.1991
     20  O         -8.0070   12.9100   53.1200 O.3   1001  C071001    -0.2864
     21  C5       -10.0460   12.5670   51.9320 C.ar  1001  C071001     0.0419
     22  C6       -10.9620   11.7420   51.2890 C.ar  1001  C071001     0.0024
     23  C1       -10.6940   10.3850   51.1980 C.ar  1001  C071001     0.0158
     24  C        -11.6460    9.4520   50.5090 C.3   1001  C071001     0.0346
@<TRIPOS>BOND
     1    13    12    1
     2    13    14    2
     3    12    11    1
     4    15    14    1
     5    14     9    1
     6    11    10    2
     7     9    10    1
     8     9     8    2
     9    10    16    1
    10    24    23    1
    11    23    22   ar
    12    23    17   ar
    13    22    21   ar
    14     7     8    1
    15     7     6    1
    16     8     3    1
    17    16    17    1
    18    16     2   am
    19    17    18   ar
    20    21    19   ar
    21    18    19   ar
    22    19    20    1
    23     2     3    1
    24     2     1    2
    25     3     4    1
    26     6     5    1
    27     5     4    1
