@<TRIPOS>MOLECULE
4g2g_TDH_A_1.pdb
 19 21 0 0 0
SMALL
GASTEIGER

@<TRIPOS>ATOM
      1  CAC       -9.2690   18.9340    1.2750 C.ar  408  TDH408      0.0421
      2  CAD      -11.0110   19.7730    2.8050 C.ar  408  TDH408      0.0421
      3  CAE      -15.4250   15.5080    4.3700 C.ar  408  TDH408      0.0436
      4  CAF      -14.6560   17.8210    3.9760 C.ar  408  TDH408      0.0436
      5  CAG       -9.4920   17.6220    1.7280 C.ar  408  TDH408      0.0048
      6  CAH      -11.2310   18.4600    3.2730 C.ar  408  TDH408      0.0048
      7  CAI      -14.1110   15.0540    4.1520 C.ar  408  TDH408      0.0225
      8  CAJ      -13.3540   17.3470    3.7630 C.ar  408  TDH408      0.0225
      9  CAK       -9.7400   15.1490    3.2030 C.ar  408  TDH408      0.1429
     10  CAN      -10.0350   19.9920    1.8190 C.ar  408  TDH408      0.1957
     11  CAO      -15.6810   16.8920    4.2740 C.ar  408  TDH408      0.1958
     12  CAP      -10.4730   17.3940    2.7290 C.ar  408  TDH408      0.0196
     13  CAQ      -13.0510   15.9600    3.8410 C.ar  408  TDH408      0.0846
     14  CAR      -10.6910   16.0780    3.1740 C.ar  408  TDH408      0.1053
     15  NAL      -10.2990   14.0590    3.7010 N.ar  408  TDH408     -0.1268
     16  NAM      -11.4780   14.3130    3.9620 N.ar  408  TDH408     -0.0595
     17  NAS      -11.7930   15.4790    3.6760 N.ar  408  TDH408     -0.2104
     18  OAA       -9.8140   21.2620    1.3730 O.3   408  TDH408     -0.2866
     19  OAB      -16.9420   17.3520    4.4860 O.3   408  TDH408     -0.2866
@<TRIPOS>BOND
     1     1     5   ar
     2     1    10   ar
     3    18    10    1
     4     5    12   ar
     5    10     2   ar
     6    12    14    1
     7    12     6   ar
     8     2     6   ar
     9    14     9   ar
    10    14    17   ar
    11     9    15   ar
    12    17    13    1
    13    17    16   ar
    14    15    16   ar
    15     8    13   ar
    16     8     4   ar
    17    13     7   ar
    18     4    11   ar
    19     7     3   ar
    20    11     3   ar
    21    11    19    1
