@<TRIPOS>MOLECULE
4g2g_HEM_A_1.pdb
 43 50 0 0 0
SMALL
GASTEIGER

@<TRIPOS>ATOM
      1  CHA       -4.2830   23.4410    4.8340 C.2   401  HEM401      0.0000
      2  CHB       -3.5710   23.4930    9.7840 C.2   401  HEM401      0.0000
      3  CHC       -7.6190   26.1420   10.2790 C.2   401  HEM401      0.0000
      4  CHD       -8.8120   25.2870    5.4610 C.2   401  HEM401      0.0000
      5  C1A       -3.6870   23.3290    6.1640 C.2   401  HEM401      0.0000
      6  C2A       -2.3200   22.7990    6.3790 C.2   401  HEM401      0.0000
      7  C3A       -2.1260   22.7910    7.8330 C.2   401  HEM401      0.0000
      8  C4A       -3.3890   23.3570    8.3590 C.2   401  HEM401      0.0000
      9  CMA       -0.9190   22.3330    8.6550 C.3   401  HEM401      0.0000
     10  CAA       -1.3500   22.3160    5.3340 C.3   401  HEM401      0.0000
     11  CBA       -1.9020   21.0380    4.6520 C.3   401  HEM401      0.0000
     12  CGA       -0.8220   20.4970    3.7220 C.2   401  HEM401      0.0000
     13  O1A        0.1300   21.2930    3.3880 O.co2 401  HEM401      0.0000
     14  O2A       -0.8390   19.2990    3.3410 O.co2 401  HEM401      0.0000
     15  C1B       -4.6360   24.2760   10.3620 C.ar  401  HEM401      0.0000
     16  C2B       -4.6740   24.4950   11.8410 C.ar  401  HEM401      0.0000
     17  C3B       -5.8800   25.2800   11.8860 C.ar  401  HEM401      0.0000
     18  C4B       -6.3620   25.4130   10.5170 C.ar  401  HEM401      0.0000
     19  CMB       -3.7590   24.0710   12.9880 C.3   401  HEM401      0.0000
     20  CAB       -6.5740   25.8380   13.0450 C.2   401  HEM401      0.0000
     21  CBB       -5.8710   26.3880   14.0200 C.2   401  HEM401      0.0000
     22  C1C       -8.2740   26.2510    8.9770 C.2   401  HEM401      0.0000
     23  C2C       -9.4240   27.1330    8.7390 C.2   401  HEM401      0.0000
     24  C3C       -9.7310   26.8130    7.3340 C.2   401  HEM401      0.0000
     25  C4C       -8.7560   25.8600    6.8170 C.2   401  HEM401      0.0000
     26  CMC      -10.0460   28.1080    9.7180 C.3   401  HEM401      0.0000
     27  CAC      -10.7230   27.3990    6.4090 C.2   401  HEM401      0.0000
     28  CBC      -11.9970   27.6280    6.7210 C.2   401  HEM401      0.0000
     29  C1D       -7.6290   24.6820    4.8490 C.ar  401  HEM401      0.0000
     30  C2D       -7.6570   24.2980    3.4200 C.ar  401  HEM401      0.0000
     31  C3D       -6.3140   23.7440    3.2240 C.ar  401  HEM401      0.0000
     32  C4D       -5.6910   23.8560    4.5780 C.ar  401  HEM401      0.0000
     33  CMD       -8.7730   24.4090    2.4050 C.3   401  HEM401      0.0000
     34  CAD       -5.7340   23.1840    1.9500 C.3   401  HEM401      0.0000
     35  CBD       -4.6970   24.2130    1.5000 C.3   401  HEM401      0.0000
     36  CGD       -4.1790   23.7650    0.1230 C.2   401  HEM401      0.0000
     37  O1D       -3.4480   24.5370   -0.5260 O.co2 401  HEM401      0.0000
     38  O2D       -4.5000   22.6340   -0.3500 O.co2 401  HEM401      0.0000
     39  NA        -4.4400   23.5790    7.3890 N.2   401  HEM401      0.0000
     40  NB        -5.6250   24.7680    9.6000 N.ar  401  HEM401      0.0000
     41  NC        -7.9090   25.3820    7.8670 N.2   401  HEM401      0.0000
     42  ND        -6.4620   24.4210    5.5260 N.ar  401  HEM401      0.0000
     43 FE         -6.0240   24.8300    7.5430 Fe    401  HEM401      0.0000
@<TRIPOS>BOND
     1    37    36   ar
     2    38    36   ar
     3    36    35    1
     4    35    34    1
     5    34    31    1
     6    33    30    1
     7    31    30   ar
     8    31    32   ar
     9    14    12   ar
    10    13    12   ar
    11    30    29   ar
    12    12    11    1
    13    32     1    2
    14    32    42   ar
    15    11    10    1
    16     1     5    1
    17    29     4    2
    18    29    42   ar
    19    10     6    1
    20     4    25    1
    21    42    43    1
    22     5     6    1
    23     5    39    2
    24     6     7    2
    25    27    28    2
    26    27    24    1
    27    25    24    1
    28    25    41    2
    29    24    23    2
    30    39    43    1
    31    39     8    1
    32    43    41    1
    33    43    40    1
    34     7     8    1
    35     7     9    1
    36    41    22    1
    37     8     2    2
    38    23    22    1
    39    23    26    1
    40    22     3    2
    41    40    15   ar
    42    40    18   ar
    43     2    15    1
    44     3    18    1
    45    15    16   ar
    46    18    17   ar
    47    16    17   ar
    48    16    19    1
    49    17    20    1
    50    20    21    2
