@<TRIPOS>MOLECULE
4g2h_0VQ_A_1.pdb
 34 35 0 0 0
SMALL
GASTEIGER

@<TRIPOS>ATOM
      1  C10       -0.6510   35.5290   37.8630 C.3   501  0VQ501      0.0310
      2  C1         2.5760   37.6460   38.1480 C.ar  501  0VQ501     -0.0023
      3  C2         2.1460   38.9590   38.5490 C.ar  501  0VQ501      0.0090
      4  C3         0.7250   39.2910   38.7850 C.ar  501  0VQ501      0.0087
      5  C4        -0.2050   38.1420   38.5590 C.ar  501  0VQ501     -0.0062
      6  C6         1.6510   36.5940   37.9480 C.ar  501  0VQ501     -0.0045
      7  C5         0.2440   36.7840   38.1380 C.ar  501  0VQ501     -0.0221
      8  C26        2.9220   30.6110   38.0470 C.2   501  0VQ501     -0.0222
      9  C27        2.9100   29.4390   39.0230 C.3   501  0VQ501      0.0264
     10  C28        1.9430   28.2450   38.9690 C.3   501  0VQ501      0.0050
     11  C34        3.3240   30.6580   36.7280 C.2   501  0VQ501     -0.0045
     12  C35        3.8530   29.5900   35.8940 C.2   501  0VQ501     -0.0019
     13  C37        4.1970   29.8160   34.6220 C.2   501  0VQ501      0.0203
     14  C38        5.0520   28.9320   33.6930 C.3   501  0VQ501      0.3169
     15  O39        5.4760   27.7370   34.3730 O.3   501  0VQ501     -0.2033
     16  C40        6.3350   29.7340   33.2420 C.3   501  0VQ501      0.4344
     17  F41        7.1100   29.0210   32.4520 F     501  0VQ501     -0.1668
     18  F42        7.0530   30.0670   34.3010 F     501  0VQ501     -0.1668
     19  F43        6.0350   30.8580   32.5990 F     501  0VQ501     -0.1668
     20  C44        4.1250   28.4740   32.4800 C.3   501  0VQ501      0.4344
     21  F45        4.7740   27.7060   31.6270 F     501  0VQ501     -0.1668
     22  F46        3.6720   29.5270   31.7830 F     501  0VQ501     -0.1668
     23  F47        3.0640   27.8000   32.9080 F     501  0VQ501     -0.1668
     24  C14        0.6020   33.4060   39.1290 C.ar  501  0VQ501     -0.0219
     25  C17        1.1660   32.3490   38.3980 C.ar  501  0VQ501     -0.0046
     26  C18        2.3690   31.7470   38.8840 C.ar  501  0VQ501     -0.0043
     27  C19        2.9710   32.2870   40.1650 C.ar  501  0VQ501     -0.0003
     28  C20        2.3730   33.4000   40.9310 C.ar  501  0VQ501     -0.0003
     29  C21        1.1620   33.9370   40.3590 C.ar  501  0VQ501     -0.0043
     30  C11       -0.6820   34.1510   38.7300 C.3   501  0VQ501      0.0310
     31  C48        0.2610   40.6710   39.2070 C.3   501  0VQ501      0.2084
     32  O49        0.5520   40.8600   40.5760 O.3   501  0VQ501     -0.2152
     33  C52        3.2670   40.0080   38.7150 C.3   501  0VQ501      0.2084
     34  O53        4.5540   39.5070   38.4370 O.3   501  0VQ501     -0.2152
@<TRIPOS>BOND
     1    21    20    1
     2    22    20    1
     3    17    16    1
     4    20    23    1
     5    20    14    1
     6    19    16    1
     7    16    14    1
     8    16    18    1
     9    14    15    1
    10    14    13    1
    11    13    12    2
    12    12    11    1
    13    11     8    2
    14     1     7    1
    15     1    30    1
    16     6     7   ar
    17     6     2   ar
    18     8    26    1
    19     8     9    1
    20     7     5   ar
    21     2     3   ar
    22    25    26   ar
    23    25    24   ar
    24    34    33    1
    25     3    33    1
    26     3     4   ar
    27     5     4   ar
    28    30    24    1
    29     4    31    1
    30    26    27   ar
    31    10     9    1
    32    24    29   ar
    33    31    32    1
    34    27    28   ar
    35    29    28   ar
