@<TRIPOS>MOLECULE
4g2i_0VQ_A_1.pdb
 34 35 0 0 0
SMALL
GASTEIGER

@<TRIPOS>ATOM
      1  C10       13.5630   21.5940   32.2670 C.3   501  0VQ501      0.0310
      2  C1        12.9530   18.9070   34.9420 C.ar  501  0VQ501     -0.0023
      3  C2        14.0280   17.9930   34.8050 C.ar  501  0VQ501      0.0090
      4  C3        15.0730   18.1530   33.8170 C.ar  501  0VQ501      0.0087
      5  C4        14.9130   19.3500   32.9760 C.ar  501  0VQ501     -0.0062
      6  C6        12.8430   20.0350   34.1140 C.ar  501  0VQ501     -0.0045
      7  C5        13.8030   20.3030   33.1110 C.ar  501  0VQ501     -0.0221
      8  C26        9.8010   25.2060   35.2560 C.2   501  0VQ501     -0.0222
      9  C27       10.0550   26.5700   35.8650 C.3   501  0VQ501      0.0264
     10  C28       10.3240   27.8620   35.0790 C.3   501  0VQ501      0.0050
     11  C34        8.6380   24.6540   34.7620 C.2   501  0VQ501     -0.0045
     12  C35        7.2990   25.2290   34.6850 C.2   501  0VQ501     -0.0019
     13  C37        6.2850   24.5300   34.1590 C.2   501  0VQ501      0.0203
     14  C38        4.7900   24.8110   34.2820 C.3   501  0VQ501      0.3169
     15  O39        4.5740   26.0500   34.9680 O.3   501  0VQ501     -0.2033
     16  C40        4.1060   23.6530   35.1050 C.3   501  0VQ501      0.4344
     17  F41        2.8070   23.8630   35.2490 F     501  0VQ501     -0.1668
     18  F42        4.6340   23.5750   36.3200 F     501  0VQ501     -0.1668
     19  F43        4.2640   22.4710   34.5240 F     501  0VQ501     -0.1668
     20  C44        4.1980   24.9770   32.8260 C.3   501  0VQ501      0.4344
     21  F45        2.9040   25.2440   32.8470 F     501  0VQ501     -0.1668
     22  F46        4.3670   23.8680   32.1020 F     501  0VQ501     -0.1668
     23  F47        4.8040   25.9640   32.1880 F     501  0VQ501     -0.1668
     24  C14       12.9870   23.6090   34.0810 C.ar  501  0VQ501     -0.0219
     25  C17       11.7290   24.1930   34.0800 C.ar  501  0VQ501     -0.0046
     26  C18       11.1740   24.5810   35.3120 C.ar  501  0VQ501     -0.0043
     27  C19       11.9600   24.3410   36.5460 C.ar  501  0VQ501     -0.0003
     28  C20       13.2790   23.7300   36.5450 C.ar  501  0VQ501     -0.0003
     29  C21       13.7610   23.3720   35.2550 C.ar  501  0VQ501     -0.0043
     30  C11       13.7260   23.1200   32.8190 C.3   501  0VQ501      0.0310
     31  C48       16.2140   17.1740   33.6810 C.3   501  0VQ501      0.2084
     32  O49       17.1060   17.3750   34.7500 O.3   501  0VQ501     -0.2152
     33  C52       14.0230   16.8040   35.7760 C.3   501  0VQ501      0.2084
     34  O53       12.8360   16.7210   36.5210 O.3   501  0VQ501     -0.2152
@<TRIPOS>BOND
     1    22    20    1
     2    23    20    1
     3     1    30    1
     4     1     7    1
     5    30    24    1
     6    20    21    1
     7    20    14    1
     8     5     7   ar
     9     5     4   ar
    10     7     6   ar
    11    31     4    1
    12    31    32    1
    13     4     3   ar
    14    25    24   ar
    15    25    26   ar
    16    24    29   ar
    17     6     2   ar
    18    13    14    1
    19    13    12    2
    20    14    15    1
    21    14    16    1
    22    19    16    1
    23    12    11    1
    24    11     8    2
    25     3     2   ar
    26     3    33    1
    27    10     9    1
    28    16    17    1
    29    16    18    1
    30    29    28   ar
    31     8    26    1
    32     8     9    1
    33    26    27   ar
    34    33    34    1
    35    28    27   ar
