@<TRIPOS>MOLECULE
4g2t_TYD_A_1.pdb
 25 26 0 0 0
SMALL
GASTEIGER

@<TRIPOS>ATOM
      1  PA        -5.5970  -36.7630   -1.7200 P.3   401  TYD401      0.2231
      2  O1A       -6.7560  -37.4750   -1.0670 O.3   401  TYD401     -0.4370
      3  O2A       -5.8760  -35.2780   -1.7760 O.2   401  TYD401     -0.5169
      4  O3A       -4.3070  -37.0500   -0.8870 O.3   401  TYD401     -0.2261
      5  PB        -2.9250  -36.4960   -1.3590 P.3   401  TYD401      0.5373
      6  O1B       -3.1070  -35.1810   -2.0780 O.3   401  TYD401     -0.1143
      7  O2B       -2.0560  -36.2910   -0.1410 O.3   401  TYD401     -0.1143
      8  O3B       -2.2660  -37.4870   -2.2900 O.2   401  TYD401     -0.2221
      9  O5'       -5.3830  -37.3080   -3.1650 O.3   401  TYD401     -0.3111
     10  C5'       -5.2210  -38.6610   -3.3720 C.3   401  TYD401      0.1812
     11  C4'       -5.9970  -39.0580   -4.5780 C.3   401  TYD401      0.1773
     12  O4'       -5.4460  -40.1990   -5.1440 O.3   401  TYD401     -0.3339
     13  C3'       -7.4100  -39.3970   -4.1850 C.3   401  TYD401      0.1857
     14  O3'       -8.2720  -39.0540   -5.2020 O.3   401  TYD401     -0.2203
     15  C2'       -7.4400  -40.8680   -3.9300 C.3   401  TYD401      0.0874
     16  C1'       -6.3400  -41.3490   -4.9470 C.3   401  TYD401      0.2090
     17  N1        -5.7060  -42.7350   -4.7020 N.am  401  TYD401     -0.1794
     18  C2        -6.4520  -43.9670   -4.8580 C.1   401  TYD401      0.2844
     19  O2        -7.6230  -43.9380   -5.1900 O.2   401  TYD401     -0.1918
     20  N3        -5.8540  -45.2280   -4.6270 N.2   401  TYD401     -0.2455
     21  C4        -4.5070  -45.3050   -4.2420 C.1   401  TYD401      0.2134
     22  O4        -3.9830  -46.4040   -4.0420 O.2   401  TYD401     -0.2088
     23  C5        -3.7290  -44.0420   -4.0830 C.2   401  TYD401      0.0891
     24  C5M       -2.2970  -44.1210   -3.6750 C.3   401  TYD401      0.0462
     25  C6        -4.3070  -42.8110   -4.3060 C.2   401  TYD401      0.0877
@<TRIPOS>BOND
     1    14    13    1
     2    19    18    2
     3    12    16    1
     4    12    11    1
     5    16    17    1
     6    16    15    1
     7    18    17   am
     8    18    20    2
     9    17    25    1
    10    20    21    2
    11    11    13    1
    12    11    10    1
    13    25    23    2
    14    21    23    1
    15    21    22    2
    16    13    15    1
    17    23    24    1
    18    10     9    1
    19     9     1    1
    20     8     5    2
    21     6     5    1
    22     3     1    2
    23     1     2    1
    24     1     4    1
    25     5     4    1
    26     5     7    1
