@<TRIPOS>MOLECULE
4g2x_CTN_A_1.pdb
 17 18 0 0 0
SMALL
GASTEIGER

@<TRIPOS>ATOM
      1  O5'       20.8820    5.6100   -8.1840 O.3   804  CTN804     -0.2176
      2  C5'       21.8110    5.5840   -7.1640 C.3   804  CTN804      0.2142
      3  C4'       21.5370    6.6870   -6.1660 C.3   804  CTN804      0.1829
      4  O4'       20.7710    6.1400   -5.1420 O.3   804  CTN804     -0.3318
      5  C1'       21.3130    6.4500   -3.9250 C.3   804  CTN804      0.2400
      6  N1        21.7870    5.1770   -3.3520 N.am  804  CTN804     -0.1778
      7  C6        22.3410    4.1530   -4.1320 C.2   804  CTN804      0.0836
      8  C5        22.7750    2.9770   -3.5250 C.2   804  CTN804      0.0687
      9  C4        22.6330    2.8980   -2.1380 C.2   804  CTN804      0.2346
     10  N3        22.0990    3.9030   -1.4620 N.2   804  CTN804     -0.3024
     11  C2        21.6830    5.0200   -2.0390 C.1   804  CTN804      0.2756
     12  O2        21.2560    5.9210   -1.3430 O.2   804  CTN804     -0.1925
     13  N4        23.0100    1.8310   -1.5040 N.pl3 804  CTN804     -0.0921
     14  C2'       22.4410    7.4390   -4.1550 C.3   804  CTN804      0.2319
     15  O2'       21.9550    8.7680   -3.9490 O.3   804  CTN804     -0.2157
     16  C3'       22.8260    7.1490   -5.5740 C.3   804  CTN804      0.2159
     17  O3'       23.2550    8.3390   -6.2560 O.3   804  CTN804     -0.2175
@<TRIPOS>BOND
     1     1     2    1
     2     2     3    1
     3    17    16    1
     4     3    16    1
     5     3     4    1
     6    16    14    1
     7     4     5    1
     8    14    15    1
     9    14     5    1
    10     7     8    2
    11     7     6    1
    12     5     6    1
    13     8     9    1
    14     6    11   am
    15     9    13    1
    16     9    10    2
    17    11    10    2
    18    11    12    2
