@<TRIPOS>MOLECULE
4g2z_III_B_1.pdb
 44 44 0 0 0
SMALL
GASTEIGER

@<TRIPOS>ATOM
      1  N        -26.8320    7.6600   32.1030 N.3   681  LEU681     -0.1231
      2  CA       -26.3280    9.0670   32.1100 C.3   681  LEU681      0.1693
      3  C        -25.7320    9.5130   33.4600 C.2   681  LEU681      0.2592
      4  O        -25.8420   10.6880   33.8280 O.2   681  LEU681     -0.2718
      5  CB       -27.4200   10.0510   31.6350 C.3   681  LEU681      0.0284
      6  CG       -28.8680    9.8920   32.1360 C.3   681  LEU681      0.0019
      7  CD1      -29.4460   11.2270   32.6040 C.3   681  LEU681      0.0001
      8  CD2      -29.7560    9.2290   31.0840 C.3   681  LEU681      0.0001
      9  N        -25.0910    8.5870   34.1810 N.am  682  GLU682     -0.1966
     10  CA       -24.4510    8.9000   35.4780 C.3   682  GLU682      0.1733
     11  C        -22.9360    8.5750   35.5120 C.2   682  GLU682      0.2616
     12  O        -22.1740    9.0660   34.6850 O.2   682  GLU682     -0.2715
     13  CB       -25.1810    8.2300   36.6750 C.3   682  GLU682      0.0429
     14  CG       -26.7040    8.3790   36.7370 C.3   682  GLU682      0.1163
     15  CD       -27.1860    9.7540   37.1920 C.2   682  GLU682      0.3649
     16  OE1      -28.4130    9.9850   37.1500 O.co2 682  GLU682     -0.2457
     17  OE2      -26.3600   10.6040   37.5920 O.co2 682  GLU682     -0.2457
     18  N        -22.5240    7.7300   36.4570 N.am  683  ALA683     -0.1963
     19  CA       -21.1210    7.5760   36.8340 C.3   683  ALA683      0.1728
     20  C        -20.2450    6.6930   35.9020 C.2   683  ALA683      0.2616
     21  O        -20.7310    6.0410   34.9580 O.2   683  ALA683     -0.2715
     22  CB       -21.0400    7.0830   38.2800 C.3   683  ALA683      0.0334
     23  N        -18.9430    6.7150   36.1670 N.am  684  CYS684     -0.1954
     24  CA       -18.0320    5.7310   35.5830 C.3   684  CYS684      0.1843
     25  C        -18.4870    4.2590   35.8860 C.2   684  CYS684      0.2625
     26  O        -18.8190    3.9130   37.0460 O.2   684  CYS684     -0.2714
     27  CB       -16.6250    5.9910   36.0920 C.3   684  CYS684      0.0997
     28  SG       -15.4400    4.8040   35.4670 S.3   684  CYS684     -0.0797
     29  N        -18.4910    3.4140   34.8420 N.am  685  ALA685     -0.1963
     30  CA       -18.8110    1.9830   34.9450 C.3   685  ALA685      0.1728
     31  C        -17.8080    1.1440   35.7440 C.2   685  ALA685      0.2616
     32  O        -18.1110    0.0030   36.1240 O.2   685  ALA685     -0.2715
     33  CB       -19.0510    1.3690   33.5620 C.3   685  ALA685      0.0334
     34  N        -16.6230    1.6830   36.0130 N.am  686  PHE686     -0.1974
     35  CA       -15.6450    0.9340   36.7930 C.3   686  PHE686      0.1639
     36  C        -15.4640    1.4990   38.2010 C.2   686  PHE686      0.2290
     37  O        -14.7890    0.8480   39.0030 O.2   686  PHE686     -0.2864
     38  CB       -14.2950    0.8040   36.0630 C.3   686  PHE686      0.0560
     39  CG       -14.4450    0.4700   34.6160 C.ar  686  PHE686     -0.0200
     40  CD1      -14.8030   -0.8390   34.2150 C.ar  686  PHE686     -0.0042
     41  CD2      -14.3050    1.4730   33.6420 C.ar  686  PHE686     -0.0042
     42  CE1      -15.0040   -1.1240   32.8670 C.ar  686  PHE686     -0.0003
     43  CE2      -14.4550    1.1690   32.3010 C.ar  686  PHE686     -0.0003
     44  CZ       -14.8180   -0.1140   31.9180 C.ar  686  PHE686     -0.0000
@<TRIPOS>BOND
     1     8     6    1
     2     5     2    1
     3     5     6    1
     4    44    43   ar
     5    44    42   ar
     6     1     2    1
     7     2     3    1
     8     6     7    1
     9    43    41   ar
    10    42    40   ar
    11     3     4    2
    12     3     9   am
    13    33    30    1
    14    41    39   ar
    15     9    10    1
    16    40    39   ar
    17    39    38    1
    18    12    11    2
    19    29    30    1
    20    29    25   am
    21    30    31    1
    22    21    20    2
    23    28    27    1
    24    10    11    1
    25    10    13    1
    26    11    18   am
    27    24    25    1
    28    24    27    1
    29    24    23    1
    30    31    34   am
    31    31    32    2
    32    25    26    2
    33    20    23   am
    34    20    19    1
    35    34    35    1
    36    38    35    1
    37    18    19    1
    38    13    14    1
    39    14    15    1
    40    35    36    1
    41    19    22    1
    42    16    15   ar
    43    15    17   ar
    44    36    37    2
