@<TRIPOS>MOLECULE
4g2z_ID8_A_1.pdb
 18 19 0 0 0
SMALL
GASTEIGER

@<TRIPOS>ATOM
      1  O16      -19.2490   13.2590   13.1160 O.co2 711  ID8711     -0.2405
      2  C14      -19.7270   13.6220   14.2470 C.2   711  ID8711      0.3890
      3  O15      -20.9010   13.2950   14.5950 O.co2 711  ID8711     -0.2405
      4  C13      -18.8000   14.4120   15.1650 C.ar  711  ID8711      0.0950
      5  C12      -17.4520   14.0490   15.0160 C.ar  711  ID8711      0.0079
      6  C11      -16.4480   14.6670   15.7380 C.ar  711  ID8711      0.0003
      7  C10      -16.7570   15.6770   16.6260 C.ar  711  ID8711      0.0013
      8  C9       -18.0790   16.0590   16.8090 C.ar  711  ID8711      0.0167
      9  C8       -19.1110   15.4560   16.0890 C.ar  711  ID8711      0.0768
     10  N7       -20.3320   16.0110   16.5040 N.pl3 711  ID8711     -0.2126
     11  C6       -21.3720   16.4400   15.7540 C.ar  711  ID8711      0.0662
     12  C1       -22.4760   17.0840   16.3520 C.ar  711  ID8711     -0.0105
     13  C17      -22.5950   17.3530   17.8550 C.3   711  ID8711      0.0321
     14  C5       -21.3460   16.2450   14.3650 C.ar  711  ID8711      0.0162
     15  C4       -22.4030   16.6610   13.5570 C.ar  711  ID8711      0.0010
     16  C3       -23.4980   17.2970   14.1570 C.ar  711  ID8711     -0.0045
     17  C2       -23.5300   17.5030   15.5510 C.ar  711  ID8711     -0.0245
     18  C18      -24.7180   18.1870   16.1970 C.3   711  ID8711      0.0307
@<TRIPOS>BOND
     1     1     2   ar
     2    15    16   ar
     3    15    14   ar
     4    16    17   ar
     5     2     3   ar
     6     2     4    1
     7    14    11   ar
     8     5     4   ar
     9     5     6   ar
    10     4     9   ar
    11    17    18    1
    12    17    12   ar
    13     6     7   ar
    14    11    12   ar
    15    11    10    1
    16     9    10    1
    17     9     8   ar
    18    12    13    1
    19     7     8   ar
