@<TRIPOS>MOLECULE
4g31_0WH_A_1.pdb
 33 37 0 0 0
SMALL
GASTEIGER

@<TRIPOS>ATOM
      1  C        -47.7950   12.4100    9.3600 C.2   1102  0WH1102     0.3311
      2  F        -51.5090    9.3760   -2.5890 F     1102  0WH1102    -0.1659
      3  N        -47.4850   11.7710   10.5920 N.2   1102  0WH1102    -0.0073
      4  O        -45.9760   12.3650    0.7820 O.2   1102  0WH1102    -0.2712
      5  C01      -48.5860   14.6970   10.0840 C.3   1102  0WH1102     0.2538
      6  F01      -51.0700   10.8910   -4.0580 F     1102  0WH1102    -0.1659
      7  N01      -48.2930   13.7290    9.1100 N.pl3 1102  0WH1102    -0.1825
      8  C02      -48.4190   13.8540    7.7540 C.3   1102  0WH1102     0.2302
      9  F02      -50.6960    8.7590   -4.5210 F     1102  0WH1102    -0.1659
     10  N02      -48.1720   12.3320    1.4600 N.ar  1102  0WH1102    -0.2763
     11  C03      -48.0490   12.6880    7.1650 C.2   1102  0WH1102     0.0390
     12  N03      -46.9610    9.7170    7.0010 N.pl3 1102  0WH1102     0.2163
     13  C04      -48.0380   12.5320    5.6890 C.ar  1102  0WH1102     0.0005
     14  N04      -46.8500    9.8630    9.4500 N.2   1102  0WH1102     0.0007
     15  C05      -46.7340   12.2890    5.0010 C.ar  1102  0WH1102     0.0013
     16  C06      -46.6890   12.1840    3.6700 C.ar  1102  0WH1102     0.0176
     17  C07      -47.9180   12.3110    2.8980 C.ar  1102  0WH1102     0.0666
     18  C08      -49.5960   12.4130    1.2240 C.ar  1102  0WH1102     0.0827
     19  C09      -50.2280   12.7160    2.5170 C.ar  1102  0WH1102     0.0205
     20  C10      -49.1770   12.6030    3.5590 C.ar  1102  0WH1102     0.0177
     21  C11      -49.2340   12.7140    4.9080 C.ar  1102  0WH1102     0.0013
     22  C12      -47.0990   12.4010    0.4370 C.2   1102  0WH1102     0.2457
     23  C13      -47.4390   12.5330   -0.9610 C.3   1102  0WH1102     0.1148
     24  C14      -47.7300   11.2120   -1.6940 C.ar  1102  0WH1102    -0.0129
     25  C15      -46.6920   10.1890   -1.8540 C.ar  1102  0WH1102    -0.0038
     26  C16      -46.9920    9.0340   -2.5220 C.ar  1102  0WH1102    -0.0004
     27  C17      -48.3160    8.8470   -3.0900 C.ar  1102  0WH1102     0.0038
     28  C18      -49.2910    9.8340   -2.9350 C.ar  1102  0WH1102     0.0711
     29  C19      -48.9790   11.0440   -2.2250 C.ar  1102  0WH1102     0.0001
     30  C20      -50.6940    9.6840   -3.5230 C.3   1102  0WH1102     0.4186
     31  C21      -47.6310   11.7780    8.2100 C.2   1102  0WH1102     0.1718
     32  C22      -47.1590   10.4890    8.2180 C.2   1102  0WH1102     0.4216
     33  C23      -47.0110   10.4900   10.5800 C.3   1102  0WH1102     0.5253
@<TRIPOS>BOND
     1     9    30    1
     2     6    30    1
     3    30    28    1
     4    30     2    1
     5    27    28   ar
     6    27    26   ar
     7    28    29   ar
     8    26    25   ar
     9    29    24   ar
    10    25    24   ar
    11    24    23    1
    12    23    22    1
    13    22     4    2
    14    22    10   am
    15    18    10   ar
    16    18    19   ar
    17    10    17   ar
    18    19    20   ar
    19    17    20   ar
    20    17    16   ar
    21    20    21   ar
    22    16    15   ar
    23    21    13   ar
    24    15    13   ar
    25    13    11    1
    26    12    32    1
    27    11     8    1
    28    11    31    2
    29     8     7    1
    30    31    32    1
    31    31     1    1
    32    32    14    2
    33     7     1    1
    34     7     5    1
    35     1     3    2
    36    14    33    1
    37    33     3    1
