@<TRIPOS>MOLECULE
4g34_924_A_1.pdb
 28 32 0 0 0
SMALL
GASTEIGER

@<TRIPOS>ATOM
      1  N1        47.0180   -9.9350    7.0460 N.pl3 1101  9241101    -0.1072
      2  C2        47.2140  -10.6190    8.2440 C.ar  1101  9241101     0.1701
      3  N3        46.8670  -10.0060    9.3830 N.ar  1101  9241101    -0.2259
      4  C4        47.0400  -10.6300   10.5460 C.ar  1101  9241101     0.1009
      5  C5        47.5620  -11.8880   10.7040 C.ar  1101  9241101     0.0272
      6  C6        47.9120  -12.5040    9.5250 C.ar  1101  9241101     0.0338
      7  S7        48.5950  -14.0780    9.4050 S.2   1101  9241101    -0.0863
      8  C8        48.6580  -13.9650    7.6940 C.ar  1101  9241101     0.0355
      9  C9        48.1840  -12.7580    7.2220 C.ar  1101  9241101     0.0098
     10  C10       48.1470  -12.5700    5.7850 C.ar  1101  9241101     0.0007
     11  C11       46.9230  -12.4340    5.1510 C.ar  1101  9241101     0.0015
     12  C12       46.8350  -12.3090    3.7800 C.ar  1101  9241101     0.0176
     13  C13       48.0130  -12.3230    3.0670 C.ar  1101  9241101     0.0666
     14  N14       48.2080  -12.2130    1.6830 N.ar  1101  9241101    -0.2763
     15  C15       49.6250  -12.2820    1.3920 C.ar  1101  9241101     0.0827
     16  C16       50.3490  -12.4390    2.7180 C.ar  1101  9241101     0.0205
     17  C17       49.2240  -12.4450    3.6860 C.ar  1101  9241101     0.0177
     18  C18       49.3190  -12.5800    5.0510 C.ar  1101  9241101     0.0015
     19  C19       47.2030  -12.3330    0.7390 C.2   1101  9241101     0.2457
     20  O20       46.0080  -12.2190    0.9750 O.2   1101  9241101    -0.2712
     21  C21       47.6820  -12.5850   -0.6600 C.3   1101  9241101     0.1148
     22  C22       47.6830  -11.3020   -1.4080 C.ar  1101  9241101    -0.0128
     23  C23       48.8780  -10.7000   -1.7390 C.ar  1101  9241101    -0.0038
     24  C24       48.8870   -9.5020   -2.4270 C.ar  1101  9241101    -0.0003
     25  C25       47.6980   -8.9060   -2.7890 C.ar  1101  9241101    -0.0000
     26  C26       46.5000   -9.5050   -2.4630 C.ar  1101  9241101    -0.0003
     27  C27       46.4950  -10.6990   -1.7720 C.ar  1101  9241101    -0.0038
     28  C28       47.7510  -11.8990    8.2780 C.ar  1101  9241101     0.0413
@<TRIPOS>BOND
     1    25    26   ar
     2    25    24   ar
     3    26    27   ar
     4    24    23   ar
     5    27    22   ar
     6    23    22   ar
     7    22    21    1
     8    21    19    1
     9    19    20    2
    10    19    14   am
    11    15    14   ar
    12    15    16   ar
    13    14    13   ar
    14    16    17   ar
    15    13    17   ar
    16    13    12   ar
    17    17    18   ar
    18    12    11   ar
    19    18    10   ar
    20    11    10   ar
    21    10     9    1
    22     1     2    1
    23     9     8   ar
    24     9    28   ar
    25     8     7   ar
    26     2    28   ar
    27     2     3   ar
    28    28     6   ar
    29     3     4   ar
    30     7     6   ar
    31     6     5   ar
    32     4     5   ar
