@<TRIPOS>MOLECULE
4g36_SLU_A_1.pdb
 40 45 0 0 0
SMALL
GASTEIGER

@<TRIPOS>ATOM
      1  O39      -32.4600   16.4110  -14.2310 O.2   601  SLU601     -0.2642
      2  C16      -33.3320   17.1100  -13.7240 C.2   601  SLU601      0.3121
      3  C14      -34.5890   17.4170  -14.4750 C.2   601  SLU601      0.1772
      4  N15      -34.7040   17.0810  -15.7350 N.2   601  SLU601     -0.3912
      5  C13      -35.6420   18.0230  -13.8370 C.3   601  SLU601      0.1283
      6  S12      -36.8370   18.1360  -15.1120 S.3   601  SLU601     -0.0715
      7  C11      -35.8530   17.3720  -16.3380 C.2   601  SLU601      0.1928
      8  C8       -36.1490   17.1040  -17.6620 C.2   601  SLU601      0.1960
      9  S9       -35.0400   16.4430  -18.8100 S.3   601  SLU601     -0.0500
     10  C4       -36.1700   16.4370  -20.1660 C.2   601  SLU601      0.0608
     11  C5       -36.0970   16.0350  -21.5180 C.2   601  SLU601      0.0505
     12  C6       -37.2200   16.1620  -22.3320 C.2   601  SLU601      0.1925
     13  O10      -37.1720   15.7740  -23.6790 O.2   601  SLU601     -0.2869
     14  C3       -37.3360   16.9650  -19.6050 C.2   601  SLU601      0.1203
     15  N7       -37.2620   17.2770  -18.3370 N.2   601  SLU601     -0.3957
     16  C2       -38.4640   17.0820  -20.4680 C.3   601  SLU601      0.0888
     17  C1       -38.3840   16.6820  -21.8020 C.2   601  SLU601      0.0234
     18  N40      -33.2230   17.6890  -12.3790 N.am  601  SLU601     -0.0529
     19  S17      -31.9110   17.4100  -11.4190 S.3   601  SLU601      0.0855
     20  O18      -32.1150   16.1560  -10.7460 O.3   601  SLU601     -0.0508
     21  O19      -31.8510   18.3310  -10.3070 O.3   601  SLU601     -0.0508
     22  O20      -30.6330   17.3190  -12.2160 O.3   601  SLU601     -0.2230
     23  C21      -30.3310   18.2990  -13.1860 C.3   601  SLU601      0.2064
     24  C22      -28.8400   18.3150  -13.4310 C.3   601  SLU601      0.1842
     25  C23      -28.4750   19.5780  -14.0870 C.3   601  SLU601      0.2185
     26  O27      -28.0940   20.5090  -13.1420 O.3   601  SLU601     -0.2174
     27  C24      -27.4020   19.1720  -14.9990 C.3   601  SLU601      0.2570
     28  O28      -26.1600   19.1400  -14.4110 O.3   601  SLU601     -0.2130
     29  C25      -27.7840   17.7890  -15.3450 C.3   601  SLU601      0.3186
     30  O26      -28.4760   17.2320  -14.2450 O.3   601  SLU601     -0.3135
     31  N35      -28.6000   17.6700  -16.5320 N.pl3 601  SLU601     -0.1439
     32  C32      -28.1380   17.5430  -17.8110 C.2   601  SLU601      0.3518
     33  N31      -26.9120   17.5050  -18.3560 N.2   601  SLU601     -0.0055
     34  C30      -26.7650   17.3810  -19.6680 C.3   601  SLU601      0.5254
     35  N29      -27.8030   17.2730  -20.4950 N.2   601  SLU601      0.0021
     36  C33      -29.2780   17.4360  -18.6520 C.2   601  SLU601      0.2526
     37  C34      -29.0690   17.2940  -20.0500 C.2   601  SLU601      0.4393
     38  N38      -30.1600   17.1700  -20.9960 N.pl3 601  SLU601      0.2180
     39  N37      -30.3400   17.4970  -17.8560 N.2   601  SLU601     -0.2095
     40  C36      -29.9500   17.6300  -16.5970 C.3   601  SLU601      0.3377
@<TRIPOS>BOND
     1    13    12    1
     2    12    17    2
     3    12    11    1
     4    17    16    1
     5    11    10    2
     6    38    37    1
     7    35    37    2
     8    35    34    1
     9    16    14    1
    10    10    14    1
    11    10     9    1
    12    37    36    1
    13    34    33    1
    14    14    15    2
    15     9     8    1
    16    36    39    2
    17    36    32    1
    18    33    32    2
    19    15     8    2
    20    39    40    1
    21    32    31    1
    22     8     7    1
    23    40    31    1
    24    31    29    1
    25     7     4    2
    26     7     6    1
    27     4     3    2
    28    29    27    1
    29    29    30    1
    30     6     5    1
    31    27    28    1
    32    27    25    1
    33     3     5    1
    34     3     2    1
    35    30    24    1
    36     1     2    2
    37    25    24    1
    38    25    26    1
    39     2    18   am
    40    24    23    1
    41    23    22    1
    42    18    19    1
    43    22    19    1
    44    19    20    1
    45    19    21    1
