@<TRIPOS>MOLECULE
4g37_SLU_A_1.pdb
 40 45 0 0 0
SMALL
GASTEIGER

@<TRIPOS>ATOM
      1  O39       27.4760  -80.7040   20.2860 O.2   601  SLU601     -0.2642
      2  C16       26.7320  -80.5840   21.2520 C.2   601  SLU601      0.3121
      3  C14       25.5430  -79.6810   21.2700 C.2   601  SLU601      0.1772
      4  N15       25.2860  -78.8620   20.2980 N.2   601  SLU601     -0.3913
      5  C13       24.6920  -79.7520   22.3350 C.3   601  SLU601      0.1283
      6  S12       23.4670  -78.5790   21.9260 S.3   601  SLU601     -0.0715
      7  C11       24.1850  -78.1310   20.4100 C.2   601  SLU601      0.1925
      8  C8        23.7620  -77.1920   19.5010 C.2   601  SLU601      0.1926
      9  S9        24.7270  -76.6280   18.1800 S.3   601  SLU601     -0.0684
     10  C4        23.5250  -75.4850   17.5760 C.3   601  SLU601      0.1315
     11  C5        23.4780  -74.6010   16.4840 C.2   601  SLU601      0.0338
     12  C6        22.3440  -73.8220   16.2900 C.2   601  SLU601      0.1928
     13  O10       22.2800  -72.9220   15.2090 O.2   601  SLU601     -0.2869
     14  C3        22.4560  -75.6410   18.4800 C.2   601  SLU601      0.1241
     15  N7        22.6410  -76.5260   19.4330 N.2   601  SLU601     -0.3956
     16  C2        21.3050  -74.8310   18.2490 C.2   601  SLU601      0.0320
     17  C1        21.2700  -73.9490   17.1640 C.2   601  SLU601      0.0440
     18  N40       26.9290  -81.3170   22.4840 N.am  601  SLU601     -0.0529
     19  S17       28.1460  -82.4060   22.6430 S.3   601  SLU601      0.0855
     20  O18       27.8160  -83.5070   21.7950 O.3   601  SLU601     -0.0508
     21  O19       28.1250  -82.8900   24.0120 O.3   601  SLU601     -0.0508
     22  O20       29.5150  -81.8790   22.2640 O.3   601  SLU601     -0.2230
     23  C21       29.9700  -80.6170   22.7160 C.3   601  SLU601      0.2064
     24  C22       31.2620  -80.2670   22.0000 C.3   601  SLU601      0.1842
     25  C23       31.8080  -78.9400   22.3580 C.3   601  SLU601      0.2185
     26  O27       32.4510  -78.9760   23.5760 O.3   601  SLU601     -0.2174
     27  C24       32.7430  -78.7410   21.2530 C.3   601  SLU601      0.2570
     28  O28       33.8850  -79.4960   21.3970 O.3   601  SLU601     -0.2130
     29  C25       31.9620  -79.3020   20.1210 C.3   601  SLU601      0.3186
     30  O26       31.0510  -80.2680   20.6140 O.3   601  SLU601     -0.3135
     31  N35       31.2160  -78.3120   19.4010 N.pl3 601  SLU601     -0.1439
     32  C32       31.7140  -77.3960   18.5270 C.2   601  SLU601      0.3518
     33  N31       32.9390  -77.1040   18.0750 N.2   601  SLU601     -0.0055
     34  C30       33.1110  -76.1160   17.2000 C.3   601  SLU601      0.5254
     35  N29       32.1030  -75.3740   16.7400 N.2   601  SLU601      0.0021
     36  C33       30.6090  -76.6510   18.0550 C.2   601  SLU601      0.2526
     37  C34       30.8450  -75.6100   17.1220 C.2   601  SLU601      0.4393
     38  N38       29.7690  -74.8050   16.6040 N.pl3 601  SLU601      0.2180
     39  N37       29.5310  -77.1390   18.6590 N.2   601  SLU601     -0.2095
     40  C36       29.8780  -78.1370   19.4600 C.3   601  SLU601      0.3377
@<TRIPOS>BOND
     1    13    12    1
     2    12    11    2
     3    12    17    1
     4    11    10    1
     5    38    37    1
     6    35    37    2
     7    35    34    1
     8    37    36    1
     9    17    16    2
    10    34    33    1
    11    10     9    1
    12    10    14    1
    13    36    32    1
    14    36    39    2
    15    33    32    2
    16     9     8    1
    17    16    14    1
    18    14    15    2
    19    32    31    1
    20    39    40    1
    21    31    40    1
    22    31    29    1
    23    15     8    2
    24     8     7    1
    25    29    30    1
    26    29    27    1
    27     1     2    2
    28     4     7    2
    29     4     3    2
    30     7     6    1
    31    30    24    1
    32     2     3    1
    33     2    18   am
    34    27    28    1
    35    27    25    1
    36     3     5    1
    37    20    19    1
    38     6     5    1
    39    24    25    1
    40    24    23    1
    41    22    19    1
    42    22    23    1
    43    25    26    1
    44    18    19    1
    45    19    21    1
