@<TRIPOS>MOLECULE
4g37_XLX_A_1.pdb
 10 9 0 0 0
SMALL
GASTEIGER

@<TRIPOS>ATOM
      1  O13       26.2100  -90.8400   12.0120 O.2   602  XLX602     -0.2733
      2  C12       26.7470  -91.8750   12.3680 C.2   602  XLX602      0.2419
      3  C11       27.7150  -91.9140   13.5260 C.3   602  XLX602      0.0964
      4  N8        26.5020  -93.0170   11.7260 N.am  602  XLX602     -0.2035
      5  C7        27.1050  -94.2790   12.1070 C.3   602  XLX602      0.1385
      6  C6        26.1010  -95.1080   12.8960 C.3   602  XLX602      0.1385
      7  N1        24.8280  -95.2110   12.1940 N.am  602  XLX602     -0.2035
      8  C2        23.7100  -95.7160   12.7340 C.2   602  XLX602      0.2419
      9  O15       22.6580  -95.7930   12.1100 O.2   602  XLX602     -0.2733
     10  C3        23.8040  -96.1800   14.1610 C.3   602  XLX602      0.0964
@<TRIPOS>BOND
     1     4     5    1
     2     4     2   am
     3     1     2    2
     4     5     6    1
     5     9     8    2
     6     7     8   am
     7     7     6    1
     8     2     3    1
     9     8    10    1
