@<TRIPOS>MOLECULE
4g3e_0WC_A_1.pdb
 27 30 0 0 0
SMALL
GASTEIGER

@<TRIPOS>ATOM
      1  C4        50.6600   30.1950   -2.8550 C.1   703  0WC703     -0.0514
      2  C5        51.6720   29.8080   -2.3830 C.1   703  0WC703     -0.0616
      3  C6        52.8860   29.3390   -1.7880 C.ar  703  0WC703      0.0432
      4  C7        53.9080   28.9350   -2.6430 C.ar  703  0WC703      0.0083
      5  C8        55.1010   28.4840   -2.1260 C.ar  703  0WC703      0.0021
      6  C10       56.5000   27.9560    0.0230 C.ar  703  0WC703      0.0205
      7  N12       54.7150   28.6720    1.4660 N.ar  703  0WC703     -0.2792
      8  C13       54.2900   28.8100    0.1300 C.ar  703  0WC703      0.0670
      9  C15       53.9390   28.9580    2.5970 C.2   703  0WC703      0.2240
     10  C17       51.9580   29.8610    3.4200 C.1   703  0WC703      0.1879
     11  C20       53.4200   28.9810    4.9530 C.2   703  0WC703      0.1273
     12  C21       54.3060   28.6400    3.9360 C.2   703  0WC703      0.1252
     13  C26       46.1210   29.2260   -1.7610 C.ar  703  0WC703      0.0573
     14  C1        49.3540   32.1780   -3.3590 C.3   703  0WC703      0.0534
     15  C2        49.4160   30.6660   -3.5000 C.3   703  0WC703      0.2197
     16  O3        49.3780   30.3720   -4.9060 O.3   703  0WC703     -0.2057
     17  C9        55.2920   28.4170   -0.7580 C.ar  703  0WC703      0.0177
     18  C11       56.1430   28.3100    1.4720 C.ar  703  0WC703      0.0824
     19  C14       53.0780   29.2810   -0.4030 C.ar  703  0WC703      0.0258
     20  N16       52.7650   29.5630    2.4090 N.2   703  0WC703     -0.3158
     21  N18       50.7500   30.4660    3.1620 N.pl3 703  0WC703     -0.0345
     22  N19       52.2670   29.5790    4.6730 N.2   703  0WC703     -0.1663
     23 CL         55.7950   27.8490    4.4090 Cl    703  0WC703     -0.0763
     24  C23       48.2310   29.9950   -2.8330 C.ar  703  0WC703      0.1273
     25  N24       48.1600   28.7400   -2.5510 N.ar  703  0WC703     -0.2377
     26  C25       47.0530   28.2990   -1.9770 C.ar  703  0WC703      0.1062
     27  S27       46.7740   30.7500   -2.3530 S.2   703  0WC703     -0.0669
@<TRIPOS>BOND
     1    16    15    1
     2    15    14    1
     3    15     1    1
     4    15    24    1
     5     1     2    3
     6    24    25   ar
     7    24    27   ar
     8     4     5   ar
     9     4     3   ar
    10    25    26   ar
    11     2     3    1
    12    27    13   ar
    13     5    17   ar
    14    26    13   ar
    15     3    19   ar
    16    17     6   ar
    17    17     8   ar
    18    19     8   ar
    19     6    18   ar
    20     8     7   ar
    21     7    18   ar
    22     7     9    1
    23    20     9    2
    24    20    10    2
    25     9    12    1
    26    21    10    1
    27    10    22    2
    28    12    23    1
    29    12    11    2
    30    22    11    1
