@<TRIPOS>MOLECULE
4g3f_0WB_A_1.pdb
 22 24 0 0 0
SMALL
GASTEIGER

@<TRIPOS>ATOM
      1  C7        15.3260   10.2580    6.0930 C.ar  701  0WB701      0.0495
      2  C2        17.6930   10.5210    6.4540 C.ar  701  0WB701      0.2110
      3  C10       15.8430   11.8820    3.5860 C.2   701  0WB701      0.2307
      4  C4        16.3550    9.4700    8.1290 C.ar  701  0WB701      0.0330
      5  O1        18.8890   10.9660    5.9880 O.3   701  0WB701     -0.2852
      6  C3        17.6040    9.9050    7.6940 C.ar  701  0WB701      0.0457
      7  C5        15.2340    9.6470    7.3370 C.ar  701  0WB701      0.1416
      8  F6        14.0200    9.2180    7.7670 F     701  0WB701     -0.2041
      9  C8        16.5630   10.7060    5.6610 C.ar  701  0WB701      0.1146
     10  N9        16.7690   11.3240    4.4270 N.pl3 701  0WB701     -0.1749
     11  N11       14.5530   11.9520    3.7250 N.2   701  0WB701     -0.3825
     12  C12       13.9080   12.5610    2.7190 C.2   701  0WB701      0.1226
     13  C13       14.6780   13.0230    1.7160 C.3   701  0WB701      0.1247
     14  S14       16.3560   12.6480    2.0820 S.3   701  0WB701     -0.0577
     15  C15       12.4390   12.7580    2.6970 C.ar  701  0WB701      0.0270
     16  C16       11.7430   12.7120    3.8980 C.ar  701  0WB701      0.0125
     17  C17       10.3640   12.9190    3.9030 C.ar  701  0WB701      0.0685
     18  C18        9.6970   13.1730    2.7040 C.ar  701  0WB701      0.0103
     19  C19       10.3920   13.2140    1.5100 C.ar  701  0WB701      0.0008
     20  C20       11.7640   13.0170    1.5010 C.ar  701  0WB701      0.0023
     21  C21        9.6580   12.8800    5.1500 C.1   701  0WB701      0.1004
     22  N22        9.1210   12.8440    6.1520 N.1   701  0WB701     -0.1908
@<TRIPOS>BOND
     1    20    19   ar
     2    20    15   ar
     3    19    18   ar
     4    13    14    1
     5    13    12    1
     6    14     3    1
     7    15    12    1
     8    15    16   ar
     9    18    17   ar
    10    12    11    2
    11     3    11    2
    12     3    10    1
    13    16    17   ar
    14    17    21    1
    15    10     9    1
    16    21    22    3
    17     9     1   ar
    18     9     2   ar
    19     5     2    1
    20     1     7   ar
    21     2     6   ar
    22     7     8    1
    23     7     4   ar
    24     6     4   ar
