@<TRIPOS>MOLECULE
4g3g_0WA_A_1.pdb
 20 22 0 0 0
SMALL
GASTEIGER

@<TRIPOS>ATOM
      1  C4        16.4670    9.3920    8.4170 C.ar  701  0WA701      0.0330
      2  C5        15.3410    9.4860    7.6060 C.ar  701  0WA701      0.1416
      3  C7        15.4260   10.0450    6.3380 C.ar  701  0WA701      0.0495
      4  C8        16.6460   10.5270    5.8690 C.ar  701  0WA701      0.1146
      5  C10       15.8470   11.6890    3.7900 C.2   701  0WA701      0.2307
      6  C13       14.5270   12.8630    2.0040 C.3   701  0WA701      0.1247
      7  C15       12.3950   12.5230    3.1820 C.ar  701  0WA701      0.0295
      8  C17       10.2660   12.9670    2.1910 C.ar  701  0WA701      0.0990
      9  C20       11.7400   12.2990    4.4040 C.ar  701  0WA701      0.0229
     10  O1        18.9700   10.8760    6.2300 O.3   701  0WA701     -0.2852
     11  C2        17.7760   10.4180    6.6870 C.ar  701  0WA701      0.2110
     12  C3        17.6870    9.8530    7.9550 C.ar  701  0WA701      0.0457
     13  F6        14.1530    9.0270    8.0570 F     701  0WA701     -0.2041
     14  N9        16.8150   11.1000    4.5940 N.pl3 701  0WA701     -0.1749
     15  N11       14.5740   11.7560    4.0030 N.2   701  0WA701     -0.3825
     16  C12       13.8540   12.3870    3.0710 C.2   701  0WA701      0.1226
     17  S14       16.2120   12.4740    2.2550 S.3   701  0WA701     -0.0577
     18  C16       11.6390   12.8630    2.0530 C.ar  701  0WA701      0.0229
     19  N18        9.6830   12.7540    3.3610 N.ar  701  0WA701     -0.2423
     20  C19       10.3630   12.4310    4.4560 C.ar  701  0WA701      0.0990
@<TRIPOS>BOND
     1     6    17    1
     2     6    16    1
     3    18     8   ar
     4    18     7   ar
     5     8    19   ar
     6    17     5    1
     7    16     7    1
     8    16    15    2
     9     7     9   ar
    10    19    20   ar
    11     5    15    2
    12     5    14    1
    13     9    20   ar
    14    14     4    1
    15     4     3   ar
    16     4    11   ar
    17    10    11    1
    18     3     2   ar
    19    11    12   ar
    20     2    13    1
    21     2     1   ar
    22    12     1   ar
