@<TRIPOS>MOLECULE
4g3m_AI9_A_1.pdb
 23 23 0 0 0
SMALL
GASTEIGER

@<TRIPOS>ATOM
      1  O4        53.6650   50.7400   49.5750 O.2   402  AI9402     -0.2114
      2  N3        54.1970   48.4530   49.5340 N.2   402  AI9402     -0.2351
      3  N5        51.2640   50.1790   48.1950 N.3   402  AI9402     -0.1045
      4  O2        54.7380   46.1840   49.5020 O.2   402  AI9402     -0.1745
      5  N1        52.7420   46.8820   48.5200 N.2   402  AI9402     -0.2930
      6  C6        51.8530   47.8670   48.1810 C.2   402  AI9402      0.2261
      7  C5        52.1470   49.2240   48.5340 C.3   402  AI9402      0.2777
      8  C4        53.3490   49.5000   49.2240 C.1   402  AI9402      0.2189
      9  P         53.3200   43.9710   41.3030 P.3   402  AI9402      0.5327
     10  O1P       52.6890   44.8180   40.0560 O.2   402  AI9402     -0.2224
     11  O2P       53.2810   42.3720   40.8710 O.3   402  AI9402     -0.1145
     12  O3P       54.9040   44.3970   41.5200 O.3   402  AI9402     -0.1145
     13  C5'       51.7800   45.2820   42.9650 C.3   402  AI9402      0.1892
     14  O5'       52.5490   44.1180   42.7340 O.3   402  AI9402     -0.2674
     15  C4'       51.0820   45.1680   44.3590 C.3   402  AI9402      0.2147
     16  O4'       52.1720   45.0580   45.3100 O.3   402  AI9402     -0.2176
     17  C3'       50.1860   46.4010   44.6330 C.3   402  AI9402      0.2165
     18  O3'       49.1690   46.3650   43.6080 O.3   402  AI9402     -0.2175
     19  C2'       49.4100   46.3950   45.9610 C.3   402  AI9402      0.2063
     20  O2'       48.5650   45.2630   46.0880 O.3   402  AI9402     -0.2184
     21  C1'       50.2810   46.4870   47.1760 C.3   402  AI9402      0.1501
     22  N1'       50.7120   47.6290   47.5340 N.pl3 402  AI9402     -0.2077
     23  C2        53.8990   47.1650   49.1870 C.1   402  AI9402      0.3663
@<TRIPOS>BOND
     1    10     9    2
     2    11     9    1
     3     9    12    1
     4     9    14    1
     5    14    13    1
     6    13    15    1
     7    18    17    1
     8    15    17    1
     9    15    16    1
    10    17    19    1
    11    19    20    1
    12    19    21    1
    13    21    22    1
    14    22     6    1
    15     6     5    2
    16     6     7    1
    17     3     7    1
    18     5    23    2
    19     7     8    1
    20    23     4    2
    21    23     2    2
    22     8     2    2
    23     8     1    2
