@<TRIPOS>MOLECULE
4g3m_AOF_B_1.pdb
 23 24 0 0 0
SMALL
GASTEIGER

@<TRIPOS>ATOM
      1  C2        85.0210   10.7300   42.1200 C.1   402  AOF402      0.3663
      2  N3        83.9100   10.6380   43.0280 N.2   402  AOF402     -0.2351
      3  O4        83.1110    9.9350   45.0290 O.2   402  AOF402     -0.2114
      4  C5        85.3720    9.4340   44.6650 C.3   402  AOF402      0.2778
      5  C6        86.4390    9.5480   43.7350 C.2   402  AOF402      0.2282
      6  O3P       87.3860    3.3300   41.8210 O.2   402  AOF402     -0.2224
      7  P         88.0420    3.6560   43.1250 P.3   402  AOF402      0.5327
      8  O1P       89.2940    2.6440   43.2380 O.3   402  AOF402     -0.1145
      9  O2P       87.1190    3.6020   44.2900 O.3   402  AOF402     -0.1145
     10  O5'       88.9210    4.9920   43.0200 O.3   402  AOF402     -0.2675
     11  C5'       89.1780    5.7750   44.1800 C.3   402  AOF402      0.1859
     12  C4'       90.0420    6.9540   43.8050 C.3   402  AOF402      0.1801
     13  O4'       89.0620    7.6140   42.9720 O.3   402  AOF402     -0.3316
     14  C3'       90.5470    8.0170   44.7810 C.3   402  AOF402      0.2159
     15  O3'       91.9190    7.5970   44.7030 O.3   402  AOF402     -0.2175
     16  C2'       90.0970    9.3290   44.1200 C.3   402  AOF402      0.2325
     17  O2'       91.2560    9.8550   43.4830 O.3   402  AOF402     -0.2157
     18  C1'       88.8770    9.0140   43.2730 C.3   402  AOF402      0.2442
     19  N1'       87.6620    9.0390   44.0270 N.pl3 402  AOF402     -0.1802
     20  N1        86.3030   10.1820   42.4640 N.2   402  AOF402     -0.2930
     21  O2        84.7960    9.8910   41.2190 O.2   402  AOF402     -0.1745
     22  C4        84.0960    9.9900   44.2890 C.1   402  AOF402      0.2189
     23  N5        85.5780    8.8180   45.8450 N.3   402  AOF402     -0.1045
@<TRIPOS>BOND
     1    21     1    2
     2     6     7    2
     3     1    20    2
     4     1     2    2
     5    20     5    2
     6    13    18    1
     7    13    12    1
     8    10     7    1
     9    10    11    1
    10     2    22    2
    11     7     8    1
    12     7     9    1
    13    18    19    1
    14    18    16    1
    15    17    16    1
    16     5    19    1
    17     5     4    1
    18    12    11    1
    19    12    14    1
    20    16    14    1
    21    22     4    1
    22    22     3    2
    23     4    23    1
    24    15    14    1
