@<TRIPOS>MOLECULE
4g3r_HEM_A_1.pdb
 43 50 0 0 0
SMALL
GASTEIGER

@<TRIPOS>ATOM
      1  CHA       25.0200    4.2980   49.1060 C.2   501  HEM501      0.0000
      2  CHB       20.3660    3.8320   47.5650 C.2   501  HEM501      0.0000
      3  CHC       22.0770    2.7140   43.0930 C.2   501  HEM501      0.0000
      4  CHD       26.6730    2.4320   44.7930 C.2   501  HEM501      0.0000
      5  C1A       23.6170    4.2820   49.1380 C.2   501  HEM501      0.0000
      6  C2A       22.7200    4.5400   50.2560 C.2   501  HEM501      0.0000
      7  C3A       21.4430    4.4170   49.8310 C.2   501  HEM501      0.0000
      8  C4A       21.4450    4.0650   48.4230 C.2   501  HEM501      0.0000
      9  CMA       20.1740    4.6050   50.6860 C.3   501  HEM501      0.0000
     10  CAA       23.1670    4.9160   51.6860 C.3   501  HEM501      0.0000
     11  CBA       23.1710    3.7140   52.6270 C.3   501  HEM501      0.0000
     12  CGA       23.6150    4.1650   54.0040 C.2   501  HEM501      0.0000
     13  O1A       23.5580    5.3880   54.2930 O.co2 501  HEM501      0.0000
     14  O2A       24.0240    3.3080   54.8240 O.co2 501  HEM501      0.0000
     15  C1B       20.3900    3.5930   46.1860 C.ar  501  HEM501      0.0000
     16  C2B       19.2960    3.6580   45.2350 C.ar  501  HEM501      0.0000
     17  C3B       19.7790    3.3570   44.0000 C.ar  501  HEM501      0.0000
     18  C4B       21.1950    3.0740   44.1150 C.ar  501  HEM501      0.0000
     19  CMB       17.8570    4.0400   45.6470 C.3   501  HEM501      0.0000
     20  CAB       19.0600    3.2730   42.6320 C.2   501  HEM501      0.0000
     21  CBB       17.7370    3.3210   42.4600 C.2   501  HEM501      0.0000
     22  C1C       23.4580    2.5060   43.1250 C.2   501  HEM501      0.0000
     23  C2C       24.3130    2.0890   42.0360 C.2   501  HEM501      0.0000
     24  C3C       25.5820    1.9940   42.4800 C.2   501  HEM501      0.0000
     25  C4C       25.6080    2.3610   43.8920 C.2   501  HEM501      0.0000
     26  CMC       23.8180    1.7930   40.6070 C.3   501  HEM501      0.0000
     27  CAC       26.7760    1.5700   41.5920 C.2   501  HEM501      0.0000
     28  CBC       27.9740    1.2750   42.1090 C.2   501  HEM501      0.0000
     29  C1D       26.7050    2.9020   46.1130 C.ar  501  HEM501      0.0000
     30  C2D       27.8640    2.9930   46.9800 C.ar  501  HEM501      0.0000
     31  C3D       27.3640    3.5810   48.3180 C.ar  501  HEM501      0.0000
     32  C4D       25.9300    3.7860   48.1640 C.ar  501  HEM501      0.0000
     33  CMD       29.3120    2.5920   46.6200 C.3   501  HEM501      0.0000
     34  CAD       28.2330    3.8420   49.5690 C.3   501  HEM501      0.0000
     35  CBD       28.3510    5.3190   49.9000 C.3   501  HEM501      0.0000
     36  CGD       29.0750    5.4330   51.2190 C.2   501  HEM501      0.0000
     37  O1D       29.7340    6.4830   51.4540 O.co2 501  HEM501      0.0000
     38  O2D       29.0000    4.4690   52.0300 O.co2 501  HEM501      0.0000
     39  NA        22.7730    4.0010   48.0900 N.2   501  HEM501      0.0000
     40  NB        21.4910    3.2250   45.4430 N.ar  501  HEM501      0.0000
     41  NC        24.3030    2.6440   44.2000 N.2   501  HEM501      0.0000
     42  ND        25.6420    3.3760   46.8690 N.ar  501  HEM501      0.0000
     43 FE         23.5830    3.6190   46.0840 Fe    501  HEM501      0.0000
@<TRIPOS>BOND
     1    26    23    1
     2    27    28    2
     3    27    24    1
     4    23    24    2
     5    23    22    1
     6    21    20    2
     7    24    25    1
     8    20    17    1
     9     3    22    2
    10     3    18    1
    11    22    41    1
    12    25    41    2
    13    25     4    1
    14    17    18   ar
    15    17    16   ar
    16    18    40   ar
    17    41    43    1
    18     4    29    2
    19    16    19    1
    20    16    15   ar
    21    40    43    1
    22    40    15   ar
    23    43    42    1
    24    43    39    1
    25    29    42   ar
    26    29    30   ar
    27    15     2    1
    28    33    30    1
    29    42    32   ar
    30    30    31   ar
    31     2     8    2
    32    39     8    1
    33    39     5    2
    34    32    31   ar
    35    32     1    2
    36    31    34    1
    37     8     7    1
    38     1     5    1
    39     5     6    1
    40    34    35    1
    41     7     6    2
    42     7     9    1
    43    35    36    1
    44     6    10    1
    45    36    37   ar
    46    36    38   ar
    47    10    11    1
    48    11    12    1
    49    12    13   ar
    50    12    14   ar
