@<TRIPOS>MOLECULE
4g3r_CAM_A_1.pdb
 11 12 0 0 0
SMALL
GASTEIGER

@<TRIPOS>ATOM
      1  C1        23.4510   -1.2790   49.7590 C.3   502  CAM502      0.0515
      2  C2        24.6100   -1.0980   50.6840 C.2   502  CAM502      0.1498
      3  O         24.7480   -1.8330   51.6410 O.2   502  CAM502     -0.2961
      4  C3        24.8330    0.3910   50.8270 C.3   502  CAM502      0.0645
      5  C4        23.8010    0.8770   49.8260 C.3   502  CAM502      0.0077
      6  C5        24.3410    0.4610   48.4610 C.3   502  CAM502      0.0009
      7  C6        24.0000   -1.0300   48.3680 C.3   502  CAM502      0.0069
      8  C7        22.6310   -0.0540   50.0470 C.3   502  CAM502      0.0066
      9  C8        22.0670   -0.0210   51.4610 C.3   502  CAM502      0.0004
     10  C9        21.5320    0.1500   49.0060 C.3   502  CAM502      0.0004
     11  C10       22.7040   -2.5910   49.9750 C.3   502  CAM502      0.0073
@<TRIPOS>BOND
     1     7     6    1
     2     7     1    1
     3     6     5    1
     4    10     8    1
     5     1    11    1
     6     1     8    1
     7     1     2    1
     8     5     8    1
     9     5     4    1
    10     8     9    1
    11     2     4    1
    12     2     3    2
