@<TRIPOS>MOLECULE
4g41_MTA_B_1.pdb
 20 22 0 0 0
SMALL
GASTEIGER

@<TRIPOS>ATOM
      1  CS        23.0710   66.6800  -13.0040 C.3   300  MTA300      0.0693
      2  S5'       22.2210   67.6650  -11.7510 S.3   300  MTA300     -0.1367
      3  C5'       22.0610   69.2430  -12.5720 C.3   300  MTA300      0.0899
      4  C4'       23.4470   69.9780  -12.7110 C.3   300  MTA300      0.1630
      5  O4'       23.2970   71.0180  -13.7210 O.3   300  MTA300     -0.3153
      6  C2'       23.0060   72.0300  -11.6650 C.3   300  MTA300      0.2569
      7  O2'       23.6190   73.1640  -10.9770 O.3   300  MTA300     -0.2130
      8  C3'       23.7880   70.7210  -11.4560 C.3   300  MTA300      0.2168
      9  O3'       25.2170   70.9320  -11.3690 O.3   300  MTA300     -0.2175
     10  C1'       22.8790   72.3090  -13.1540 C.3   300  MTA300      0.3185
     11  N9        21.4870   72.4750  -13.6250 N.pl3 300  MTA300     -0.1439
     12  C8        21.2750   72.6080  -14.9930 C.3   300  MTA300      0.3377
     13  N7        19.8970   72.6720  -15.2710 N.2   300  MTA300     -0.2095
     14  C5        19.2760   72.5500  -13.9960 C.2   300  MTA300      0.2526
     15  C6        17.9100   72.5010  -13.5240 C.2   300  MTA300      0.4393
     16  N6        16.8190   72.5270  -14.3460 N.pl3 300  MTA300      0.2180
     17  N1        17.6990   72.3980  -12.2140 N.2   300  MTA300      0.0021
     18  C2        18.6840   72.3280  -11.3030 C.3   300  MTA300      0.5254
     19  N3        19.9810   72.3840  -11.6430 N.2   300  MTA300     -0.0055
     20  C4        20.2840   72.4670  -12.9540 C.2   300  MTA300      0.3518
@<TRIPOS>BOND
     1    13    12    1
     2    13    14    2
     3    12    11    1
     4    16    15    1
     5    14    15    1
     6    14    20    1
     7     5    10    1
     8     5     4    1
     9    11    10    1
    10    11    20    1
    11    15    17    2
    12    10     6    1
    13     1     2    1
    14    20    19    2
    15     4     3    1
    16     4     8    1
    17     3     2    1
    18    17    18    1
    19     6     8    1
    20     6     7    1
    21    19    18    1
    22     8     9    1
