@<TRIPOS>MOLECULE
4g44_HEM_A_1.pdb
 43 50 0 0 0
SMALL
GASTEIGER

@<TRIPOS>ATOM
      1  CHA       -4.3400   23.8570    4.5980 C.2   401  HEM401      0.0000
      2  CHB       -3.8020   23.7360    9.4110 C.2   401  HEM401      0.0000
      3  CHC       -7.8640   26.3010    9.9700 C.2   401  HEM401      0.0000
      4  CHD       -8.8450   25.6310    5.2590 C.2   401  HEM401      0.0000
      5  C1A       -3.8170   23.6730    5.8930 C.2   401  HEM401      0.0000
      6  C2A       -2.5490   23.0270    6.1420 C.2   401  HEM401      0.0000
      7  C3A       -2.3730   22.9400    7.5120 C.2   401  HEM401      0.0000
      8  C4A       -3.5780   23.5590    8.0730 C.2   401  HEM401      0.0000
      9  CMA       -1.2850   22.3040    8.2740 C.3   401  HEM401      0.0000
     10  CAA       -1.5740   22.5710    5.0960 C.3   401  HEM401      0.0000
     11  CBA       -1.8960   21.1980    4.5570 C.3   401  HEM401      0.0000
     12  CGA       -0.8320   20.6960    3.6150 C.2   401  HEM401      0.0000
     13  O1A        0.0770   21.4160    3.1830 O.co2 401  HEM401      0.0000
     14  O2A       -0.8760   19.4130    3.2510 O.co2 401  HEM401      0.0000
     15  C1B       -4.8940   24.4370   10.0090 C.ar  401  HEM401      0.0000
     16  C2B       -4.9750   24.6990   11.3930 C.ar  401  HEM401      0.0000
     17  C3B       -6.1720   25.4370   11.5320 C.ar  401  HEM401      0.0000
     18  C4B       -6.7290   25.5570   10.2630 C.ar  401  HEM401      0.0000
     19  CMB       -4.0220   24.3060   12.4290 C.3   401  HEM401      0.0000
     20  CAB       -6.7710   25.9990   12.7790 C.2   401  HEM401      0.0000
     21  CBB       -6.1600   26.3420   13.9410 C.2   401  HEM401      0.0000
     22  C1C       -8.4590   26.3900    8.7310 C.2   401  HEM401      0.0000
     23  C2C       -9.6930   27.1020    8.4220 C.2   401  HEM401      0.0000
     24  C3C      -10.0180   26.8440    7.1050 C.2   401  HEM401      0.0000
     25  C4C       -8.9160   26.1020    6.5690 C.2   401  HEM401      0.0000
     26  CMC      -10.4660   27.9630    9.4030 C.3   401  HEM401      0.0000
     27  CAC      -11.1860   27.3240    6.3340 C.2   401  HEM401      0.0000
     28  CBC      -12.3070   27.9170    6.7910 C.2   401  HEM401      0.0000
     29  C1D       -7.6820   25.0520    4.6440 C.ar  401  HEM401      0.0000
     30  C2D       -7.5550   24.7870    3.2090 C.ar  401  HEM401      0.0000
     31  C3D       -6.2450   24.2860    3.0350 C.ar  401  HEM401      0.0000
     32  C4D       -5.6880   24.2670    4.3730 C.ar  401  HEM401      0.0000
     33  CMD       -8.6200   25.0430    2.1620 C.3   401  HEM401      0.0000
     34  CAD       -5.5500   23.8910    1.7040 C.3   401  HEM401      0.0000
     35  CBD       -4.7340   24.9270    1.1220 C.3   401  HEM401      0.0000
     36  CGD       -3.9510   24.5590   -0.2130 C.2   401  HEM401      0.0000
     37  O1D       -3.4330   25.4940   -0.7690 O.co2 401  HEM401      0.0000
     38  O2D       -3.9840   23.4410   -0.4720 O.co2 401  HEM401      0.0000
     39  NA        -4.4570   24.0010    7.0820 N.2   401  HEM401      0.0000
     40  NB        -5.9680   24.9140    9.3280 N.ar  401  HEM401      0.0000
     41  NC        -7.9630   25.7860    7.5710 N.2   401  HEM401      0.0000
     42  ND        -6.5380   24.7780    5.3110 N.ar  401  HEM401      0.0000
     43 FE         -6.1940   24.9330    7.3010 Fe    401  HEM401      0.0000
@<TRIPOS>BOND
     1    37    36   ar
     2    38    36   ar
     3    36    35    1
     4    35    34    1
     5    34    31    1
     6    33    30    1
     7    31    30   ar
     8    31    32   ar
     9    13    12   ar
    10    30    29   ar
    11    14    12   ar
    12    12    11    1
    13    32     1    2
    14    32    42   ar
    15    11    10    1
    16     1     5    1
    17    29     4    2
    18    29    42   ar
    19    10     6    1
    20     4    25    1
    21    42    43    1
    22     5     6    1
    23     5    39    2
    24     6     7    2
    25    27    28    2
    26    27    24    1
    27    25    24    1
    28    25    41    2
    29    39    43    1
    30    39     8    1
    31    24    23    2
    32    43    41    1
    33    43    40    1
    34     7     8    1
    35     7     9    1
    36    41    22    1
    37     8     2    2
    38    23    22    1
    39    23    26    1
    40    22     3    2
    41    40    15   ar
    42    40    18   ar
    43     2    15    1
    44     3    18    1
    45    15    16   ar
    46    18    17   ar
    47    16    17   ar
    48    16    19    1
    49    17    20    1
    50    20    21    2
