@<TRIPOS>MOLECULE
4g44_TZM_A_1.pdb
 13 14 0 0 0
SMALL
GASTEIGER

@<TRIPOS>ATOM
      1  CAG       -7.1240   21.7810    5.2940 C.ar  405  TZM405      0.0157
      2  CAK       -6.7030   21.9460    6.6050 C.ar  405  TZM405      0.0888
      3  NAA       -7.2660   23.0220    7.4040 N.pl3 405  TZM405     -0.1281
      4  CAC       -5.6260   21.1910    7.1040 C.ar  405  TZM405      0.0180
      5  CAB       -5.0820   20.1900    6.3170 C.ar  405  TZM405      0.0011
      6  CAD       -5.5280   19.9200    5.0080 C.ar  405  TZM405     -0.0022
      7  CAL       -6.5400   20.7380    4.5100 C.ar  405  TZM405      0.0035
      8  CAH       -6.8720   20.4360    3.0940 C.3   405  TZM405      0.1556
      9  NAM       -8.1010   20.9520    2.5720 N.ar  405  TZM405     -0.2255
     10  NAJ       -9.2160   20.7040    3.1470 N.ar  405  TZM405     -0.1448
     11  CAE      -10.1420   21.3690    2.4150 C.ar  405  TZM405      0.2210
     12  NAI       -9.5820   21.8230    1.2390 N.ar  405  TZM405     -0.2007
     13  CAF       -8.2890   21.5750    1.3600 C.ar  405  TZM405      0.1975
@<TRIPOS>BOND
     1    12    13   ar
     2    12    11   ar
     3    13     9   ar
     4    11    10   ar
     5     9     8    1
     6     9    10   ar
     7     8     7    1
     8     7     6   ar
     9     7     1   ar
    10     6     5   ar
    11     1     2   ar
    12     5     4   ar
    13     2     4   ar
    14     2     3    1
