@<TRIPOS>MOLECULE
4g45_HEM_A_1.pdb
 43 50 0 0 0
SMALL
GASTEIGER

@<TRIPOS>ATOM
      1  CHA       -4.3010   23.8040    4.6650 C.2   401  HEM401      0.0000
      2  CHB       -3.6260   23.7310    9.5770 C.2   401  HEM401      0.0000
      3  CHC       -7.7040   26.3250   10.0410 C.2   401  HEM401      0.0000
      4  CHD       -8.8480   25.5500    5.3460 C.2   401  HEM401      0.0000
      5  C1A       -3.7390   23.6590    5.9300 C.2   401  HEM401      0.0000
      6  C2A       -2.4010   23.0580    6.1830 C.2   401  HEM401      0.0000
      7  C3A       -2.2350   22.9540    7.5900 C.2   401  HEM401      0.0000
      8  C4A       -3.4380   23.5590    8.1820 C.2   401  HEM401      0.0000
      9  CMA       -1.1030   22.3610    8.3600 C.3   401  HEM401      0.0000
     10  CAA       -1.4220   22.5610    5.1470 C.3   401  HEM401      0.0000
     11  CBA       -1.7760   21.1740    4.6210 C.3   401  HEM401      0.0000
     12  CGA       -0.6710   20.7230    3.7000 C.2   401  HEM401      0.0000
     13  O1A        0.1990   21.4650    3.2480 O.co2 401  HEM401      0.0000
     14  O2A       -0.7180   19.4530    3.3810 O.co2 401  HEM401      0.0000
     15  C1B       -4.7870   24.4680   10.1020 C.ar  401  HEM401      0.0000
     16  C2B       -4.7940   24.7040   11.5410 C.ar  401  HEM401      0.0000
     17  C3B       -5.9980   25.4540   11.6360 C.ar  401  HEM401      0.0000
     18  C4B       -6.5650   25.5840   10.3000 C.ar  401  HEM401      0.0000
     19  CMB       -3.8380   24.3470   12.5950 C.3   401  HEM401      0.0000
     20  CAB       -6.5830   26.0380   12.8810 C.2   401  HEM401      0.0000
     21  CBB       -5.9490   26.3590   14.0200 C.2   401  HEM401      0.0000
     22  C1C       -8.3370   26.4200    8.7780 C.2   401  HEM401      0.0000
     23  C2C       -9.5760   27.1730    8.5330 C.2   401  HEM401      0.0000
     24  C3C       -9.8740   26.8580    7.1950 C.2   401  HEM401      0.0000
     25  C4C       -8.8650   26.0430    6.6340 C.2   401  HEM401      0.0000
     26  CMC      -10.2870   28.0280    9.5720 C.3   401  HEM401      0.0000
     27  CAC      -11.0370   27.3220    6.3650 C.2   401  HEM401      0.0000
     28  CBC      -12.1450   27.9460    6.8600 C.2   401  HEM401      0.0000
     29  C1D       -7.6640   24.9540    4.7810 C.ar  401  HEM401      0.0000
     30  C2D       -7.5570   24.6330    3.3830 C.ar  401  HEM401      0.0000
     31  C3D       -6.2370   24.1110    3.1350 C.ar  401  HEM401      0.0000
     32  C4D       -5.6480   24.2100    4.4380 C.ar  401  HEM401      0.0000
     33  CMD       -8.7170   24.7160    2.3950 C.3   401  HEM401      0.0000
     34  CAD       -5.5830   23.5950    1.8570 C.3   401  HEM401      0.0000
     35  CBD       -4.7890   24.6800    1.2220 C.3   401  HEM401      0.0000
     36  CGD       -4.0450   24.3560   -0.1230 C.2   401  HEM401      0.0000
     37  O1D       -3.3800   25.1840   -0.7320 O.co2 401  HEM401      0.0000
     38  O2D       -4.1520   23.1950   -0.4680 O.co2 401  HEM401      0.0000
     39  NA        -4.3880   23.9390    7.1740 N.2   401  HEM401      0.0000
     40  NB        -5.8710   24.9030    9.3960 N.ar  401  HEM401      0.0000
     41  NC        -7.8840   25.7310    7.6220 N.2   401  HEM401      0.0000
     42  ND        -6.4800   24.7010    5.4040 N.ar  401  HEM401      0.0000
     43 FE         -6.0750   24.9390    7.3880 Fe    401  HEM401      0.0000
@<TRIPOS>BOND
     1    37    36   ar
     2    38    36   ar
     3    36    35    1
     4    35    34    1
     5    34    31    1
     6    33    30    1
     7    31    30   ar
     8    31    32   ar
     9    13    12   ar
    10    14    12   ar
    11    30    29   ar
    12    12    11    1
    13    32     1    2
    14    32    42   ar
    15    11    10    1
    16     1     5    1
    17    29     4    2
    18    29    42   ar
    19    10     6    1
    20     4    25    1
    21    42    43    1
    22     5     6    1
    23     5    39    2
    24     6     7    2
    25    27    28    2
    26    27    24    1
    27    25    24    1
    28    25    41    2
    29    39    43    1
    30    39     8    1
    31    24    23    2
    32    43    41    1
    33    43    40    1
    34     7     8    1
    35     7     9    1
    36    41    22    1
    37     8     2    2
    38    23    22    1
    39    23    26    1
    40    22     3    2
    41    40    15   ar
    42    40    18   ar
    43     2    15    1
    44     3    18    1
    45    15    16   ar
    46    18    17   ar
    47    16    17   ar
    48    16    19    1
    49    17    20    1
    50    20    21    2
