@<TRIPOS>MOLECULE
4g45_MQN_A_1.pdb
 12 13 0 0 0
SMALL
GASTEIGER

@<TRIPOS>ATOM
      1  CAA       14.8530   -0.6190   -6.1980 C.3   407  MQN407      0.0618
      2  CAI       14.0730    0.6270   -6.3800 C.2   407  MQN407      0.0914
      3  NAH       14.0270    1.1710   -7.6080 N.2   407  MQN407     -0.4102
      4  CAL       13.2930    2.3460   -7.9210 C.ar  407  MQN407      0.1303
      5  CAF       13.2940    2.8550   -9.2170 C.ar  407  MQN407      0.0334
      6  CAD       12.5940    4.0250   -9.5350 C.ar  407  MQN407      0.0207
      7  CAJ       11.8770    4.6650   -8.4850 C.ar  407  MQN407      0.0892
      8  NAB       11.2410    5.7950   -8.9260 N.pl3 407  MQN407     -0.1281
      9  CAG       11.8790    4.1630   -7.2220 C.ar  407  MQN407      0.0203
     10  CAK       12.6340    3.0160   -6.8770 C.ar  407  MQN407      0.0271
     11  CAE       12.6570    2.4500   -5.6150 C.2   407  MQN407     -0.0164
     12  CAC       13.4100    1.2620   -5.3100 C.3   407  MQN407      0.0804
@<TRIPOS>BOND
     1     6     5   ar
     2     6     7   ar
     3     5     4   ar
     4     8     7    1
     5     7     9   ar
     6     4     3    2
     7     4    10   ar
     8     3     2    2
     9     9    10   ar
    10    10    11    2
    11     2     1    1
    12     2    12    1
    13    11    12    1
