@<TRIPOS>MOLECULE
4g46_HEM_A_1.pdb
 43 50 0 0 0
SMALL
GASTEIGER

@<TRIPOS>ATOM
      1  CHA       -4.4940   23.5700    4.8050 C.2   401  HEM401      0.0000
      2  CHB       -3.7360   23.5940    9.6810 C.2   401  HEM401      0.0000
      3  CHC       -7.8460   26.2880   10.1610 C.2   401  HEM401      0.0000
      4  CHD       -8.9380   25.4070    5.4680 C.2   401  HEM401      0.0000
      5  C1A       -3.8890   23.4220    6.0750 C.2   401  HEM401      0.0000
      6  C2A       -2.5880   22.8570    6.2820 C.2   401  HEM401      0.0000
      7  C3A       -2.3930   22.8250    7.6900 C.2   401  HEM401      0.0000
      8  C4A       -3.5850   23.4170    8.2780 C.2   401  HEM401      0.0000
      9  CMA       -1.2130   22.2570    8.4050 C.3   401  HEM401      0.0000
     10  CAA       -1.6370   22.4130    5.2200 C.3   401  HEM401      0.0000
     11  CBA       -1.9580   21.0280    4.6560 C.3   401  HEM401      0.0000
     12  CGA       -0.8620   20.6370    3.6700 C.2   401  HEM401      0.0000
     13  O1A        0.0510   21.3710    3.2980 O.co2 401  HEM401      0.0000
     14  O2A       -0.9460   19.3580    3.2670 O.co2 401  HEM401      0.0000
     15  C1B       -4.8900   24.3580   10.2100 C.ar  401  HEM401      0.0000
     16  C2B       -4.9430   24.6100   11.6500 C.ar  401  HEM401      0.0000
     17  C3B       -6.0930   25.4000   11.7400 C.ar  401  HEM401      0.0000
     18  C4B       -6.6560   25.5390   10.4070 C.ar  401  HEM401      0.0000
     19  CMB       -3.9650   24.2040   12.7120 C.3   401  HEM401      0.0000
     20  CAB       -6.6940   26.0060   12.9790 C.2   401  HEM401      0.0000
     21  CBB       -5.9480   26.3530   14.0310 C.2   401  HEM401      0.0000
     22  C1C       -8.4370   26.3930    8.9070 C.2   401  HEM401      0.0000
     23  C2C       -9.6520   27.1510    8.6560 C.2   401  HEM401      0.0000
     24  C3C       -9.9290   26.8190    7.2960 C.2   401  HEM401      0.0000
     25  C4C       -8.9410   25.9760    6.7500 C.2   401  HEM401      0.0000
     26  CMC      -10.3270   28.0510    9.6800 C.3   401  HEM401      0.0000
     27  CAC      -11.1310   27.2850    6.4950 C.2   401  HEM401      0.0000
     28  CBC      -12.1570   27.9940    6.9810 C.2   401  HEM401      0.0000
     29  C1D       -7.8540   24.7180    4.9340 C.ar  401  HEM401      0.0000
     30  C2D       -7.7760   24.3380    3.5430 C.ar  401  HEM401      0.0000
     31  C3D       -6.4640   23.8210    3.2970 C.ar  401  HEM401      0.0000
     32  C4D       -5.8620   23.8860    4.5990 C.ar  401  HEM401      0.0000
     33  CMD       -8.9530   24.4430    2.5670 C.3   401  HEM401      0.0000
     34  CAD       -5.8870   23.2620    2.0300 C.3   401  HEM401      0.0000
     35  CBD       -4.9650   24.2970    1.3400 C.3   401  HEM401      0.0000
     36  CGD       -4.2060   23.8290    0.0270 C.2   401  HEM401      0.0000
     37  O1D       -3.6570   24.7530   -0.5210 O.co2 401  HEM401      0.0000
     38  O2D       -4.3110   22.6680   -0.1770 O.co2 401  HEM401      0.0000
     39  NA        -4.5340   23.7840    7.2520 N.2   401  HEM401      0.0000
     40  NB        -5.9640   24.8040    9.5120 N.ar  401  HEM401      0.0000
     41  NC        -8.0070   25.6530    7.7850 N.2   401  HEM401      0.0000
     42  ND        -6.6520   24.5080    5.5510 N.ar  401  HEM401      0.0000
     43 FE         -6.1910   24.8480    7.4990 Fe    401  HEM401      0.0000
@<TRIPOS>BOND
     1    37    36   ar
     2    38    36   ar
     3    36    35    1
     4    35    34    1
     5    34    31    1
     6    33    30    1
     7    14    12   ar
     8    31    30   ar
     9    31    32   ar
    10    13    12   ar
    11    30    29   ar
    12    12    11    1
    13    32     1    2
    14    32    42   ar
    15    11    10    1
    16     1     5    1
    17    29     4    2
    18    29    42   ar
    19    10     6    1
    20     4    25    1
    21    42    43    1
    22     5     6    1
    23     5    39    2
    24     6     7    2
    25    27    28    2
    26    27    24    1
    27    25    24    1
    28    25    41    2
    29    39    43    1
    30    39     8    1
    31    24    23    2
    32    43    41    1
    33    43    40    1
    34     7     8    1
    35     7     9    1
    36    41    22    1
    37     8     2    2
    38    23    22    1
    39    23    26    1
    40    22     3    2
    41    40    15   ar
    42    40    18   ar
    43     2    15    1
    44     3    18    1
    45    15    16   ar
    46    18    17   ar
    47    16    17   ar
    48    16    19    1
    49    17    20    1
    50    20    21    2
