@<TRIPOS>MOLECULE
4g46_TTY_A_1.pdb
 13 14 0 0 0
SMALL
GASTEIGER

@<TRIPOS>ATOM
      1  OAA      -14.5370   16.1270    3.7740 O.co2 406  TTY406     -0.2404
      2  CAI      -13.4520   16.7600    3.4440 C.2   406  TTY406      0.3910
      3  OAC      -13.5830   17.9420    3.1480 O.co2 406  TTY406     -0.2404
      4  CAK      -12.1880   16.1580    3.5550 C.ar  406  TTY406      0.1226
      5  CAM      -10.9530   16.3740    2.9710 C.ar  406  TTY406      0.0744
      6  CAJ      -10.4690   17.1840    1.9280 C.2   406  TTY406      0.1760
      7  OAB      -11.2440   17.8830    1.2100 O.2   406  TTY406     -0.2912
      8  CAF       -9.0510   17.2780    1.6700 C.3   406  TTY406      0.0697
      9  CAE       -8.4180   15.9210    1.6810 C.3   406  TTY406      0.0161
     10  CAG       -8.6780   15.3290    3.1070 C.3   406  TTY406      0.0651
     11  CAL      -10.0640   15.4510    3.4780 C.ar  406  TTY406      0.1259
     12  OAH      -10.6520   14.7020    4.3410 O.2   406  TTY406     -0.4544
     13  CAD      -12.0890   15.1790    4.4910 C.ar  406  TTY406      0.1857
@<TRIPOS>BOND
     1     7     6    2
     2     8     9    1
     3     8     6    1
     4     9    10    1
     5     6     5    1
     6     5    11   ar
     7     5     4   ar
     8    10    11    1
     9     3     2   ar
    10     2     4    1
    11     2     1   ar
    12    11    12   ar
    13     4    13   ar
    14    12    13   ar
