@<TRIPOS>MOLECULE
4g47_HEM_A_1.pdb
 43 50 0 0 0
SMALL
GASTEIGER

@<TRIPOS>ATOM
      1  CHA       -4.5400   23.4430    4.8530 C.2   401  HEM401      0.0000
      2  CHB       -3.7920   23.5700    9.6450 C.2   401  HEM401      0.0000
      3  CHC       -7.8880   26.2240   10.1710 C.2   401  HEM401      0.0000
      4  CHD       -8.9310   25.3650    5.5300 C.2   401  HEM401      0.0000
      5  C1A       -3.9320   23.3470    6.1070 C.2   401  HEM401      0.0000
      6  C2A       -2.6230   22.7880    6.3020 C.2   401  HEM401      0.0000
      7  C3A       -2.4060   22.7660    7.6960 C.2   401  HEM401      0.0000
      8  C4A       -3.6220   23.3580    8.2840 C.2   401  HEM401      0.0000
      9  CMA       -1.2660   22.2130    8.4280 C.3   401  HEM401      0.0000
     10  CAA       -1.6650   22.3390    5.2530 C.3   401  HEM401      0.0000
     11  CBA       -1.9630   20.9460    4.7360 C.3   401  HEM401      0.0000
     12  CGA       -0.8830   20.5110    3.7800 C.2   401  HEM401      0.0000
     13  O1A       -0.0200   21.2770    3.3430 O.co2 401  HEM401      0.0000
     14  O2A       -0.9090   19.2810    3.3660 O.co2 401  HEM401      0.0000
     15  C1B       -4.8930   24.2830   10.2240 C.ar  401  HEM401      0.0000
     16  C2B       -4.9430   24.5940   11.6580 C.ar  401  HEM401      0.0000
     17  C3B       -6.1260   25.3610   11.7300 C.ar  401  HEM401      0.0000
     18  C4B       -6.7150   25.4940   10.4080 C.ar  401  HEM401      0.0000
     19  CMB       -3.9970   24.1830   12.7080 C.3   401  HEM401      0.0000
     20  CAB       -6.7400   25.9610   12.9670 C.2   401  HEM401      0.0000
     21  CBB       -5.9930   26.3440   14.0280 C.2   401  HEM401      0.0000
     22  C1C       -8.4550   26.2990    8.9030 C.2   401  HEM401      0.0000
     23  C2C       -9.6770   27.0420    8.6600 C.2   401  HEM401      0.0000
     24  C3C       -9.9890   26.7530    7.3240 C.2   401  HEM401      0.0000
     25  C4C       -8.9720   25.9080    6.8110 C.2   401  HEM401      0.0000
     26  CMC      -10.4080   27.9670    9.6540 C.3   401  HEM401      0.0000
     27  CAC      -11.1730   27.2530    6.5310 C.2   401  HEM401      0.0000
     28  CBC      -12.1550   28.0040    6.9680 C.2   401  HEM401      0.0000
     29  C1D       -7.8760   24.6680    4.9600 C.ar  401  HEM401      0.0000
     30  C2D       -7.8650   24.2070    3.5590 C.ar  401  HEM401      0.0000
     31  C3D       -6.5840   23.7300    3.3720 C.ar  401  HEM401      0.0000
     32  C4D       -5.8850   23.8050    4.6560 C.ar  401  HEM401      0.0000
     33  CMD       -9.0220   24.3800    2.6140 C.3   401  HEM401      0.0000
     34  CAD       -5.9770   23.1460    2.1120 C.3   401  HEM401      0.0000
     35  CBD       -5.0650   24.1680    1.4170 C.3   401  HEM401      0.0000
     36  CGD       -4.3640   23.6240    0.0930 C.2   401  HEM401      0.0000
     37  O1D       -3.6830   24.4640   -0.4630 O.co2 401  HEM401      0.0000
     38  O2D       -4.6190   22.4490   -0.2140 O.co2 401  HEM401      0.0000
     39  NA        -4.5450   23.7120    7.2860 N.2   401  HEM401      0.0000
     40  NB        -5.9670   24.7670    9.5580 N.ar  401  HEM401      0.0000
     41  NC        -8.0230   25.5970    7.8110 N.2   401  HEM401      0.0000
     42  ND        -6.6910   24.4160    5.5830 N.ar  401  HEM401      0.0000
     43 FE         -6.2290   24.8060    7.5230 Fe    401  HEM401      0.0000
@<TRIPOS>BOND
     1    37    36   ar
     2    38    36   ar
     3    36    35    1
     4    35    34    1
     5    34    31    1
     6    33    30    1
     7    13    12   ar
     8    14    12   ar
     9    31    30   ar
    10    31    32   ar
    11    30    29   ar
    12    12    11    1
    13    32     1    2
    14    32    42   ar
    15    11    10    1
    16     1     5    1
    17    29     4    2
    18    29    42   ar
    19    10     6    1
    20     4    25    1
    21    42    43    1
    22     5     6    1
    23     5    39    2
    24     6     7    2
    25    27    28    2
    26    27    24    1
    27    25    24    1
    28    25    41    2
    29    39    43    1
    30    39     8    1
    31    24    23    2
    32    43    41    1
    33    43    40    1
    34     7     8    1
    35     7     9    1
    36    41    22    1
    37     8     2    2
    38    23    22    1
    39    23    26    1
    40    22     3    2
    41    40    15   ar
    42    40    18   ar
    43     2    15    1
    44     3    18    1
    45    15    16   ar
    46    18    17   ar
    47    16    17   ar
    48    16    19    1
    49    17    20    1
    50    20    21    2
