@<TRIPOS>MOLECULE
4g47_TZF_A_1.pdb
 12 13 0 0 0
SMALL
GASTEIGER

@<TRIPOS>ATOM
      1  CAD      -10.8440   19.1620    3.3760 C.ar  406  TZF406      0.0225
      2  CAB      -10.4310   20.2540    2.6010 C.ar  406  TZF406      0.0436
      3  CAJ       -9.5150   20.0900    1.5830 C.ar  406  TZF406      0.1958
      4  OAA       -9.1230   21.1310    0.8060 O.3   406  TZF406     -0.2866
      5  CAC       -9.0040   18.8270    1.3600 C.ar  406  TZF406      0.0436
      6  CAE       -9.3850   17.7420    2.1440 C.ar  406  TZF406      0.0225
      7  CAK      -10.3160   17.8880    3.1650 C.ar  406  TZF406      0.0848
      8  NAL      -10.6410   16.8280    3.9210 N.ar  406  TZF406     -0.2079
      9  CAG       -9.8020   15.8540    4.3070 C.ar  406  TZF406      0.2016
     10  NAH      -10.4910   15.0020    5.0380 N.ar  406  TZF406     -0.2004
     11  CAF      -11.7290   15.5010    5.0560 C.ar  406  TZF406      0.2214
     12  NAI      -11.7700   16.6160    4.3390 N.ar  406  TZF406     -0.1409
@<TRIPOS>BOND
     1     4     3    1
     2     5     3   ar
     3     5     6   ar
     4     3     2   ar
     5     6     7   ar
     6     2     1   ar
     7     7     1   ar
     8     7     8    1
     9     8     9   ar
    10     8    12   ar
    11     9    10   ar
    12    12    11   ar
    13    10    11   ar
