@<TRIPOS>MOLECULE
4g48_HEM_A_1.pdb
 43 50 0 0 0
SMALL
GASTEIGER

@<TRIPOS>ATOM
      1  CHA       -4.4730  -23.5320   -4.8450 C.2   401  HEM401      0.0000
      2  CHB       -3.7450  -23.5760   -9.6490 C.2   401  HEM401      0.0000
      3  CHC       -7.7510  -26.3060  -10.1720 C.2   401  HEM401      0.0000
      4  CHD       -8.9170  -25.4410   -5.5750 C.2   401  HEM401      0.0000
      5  C1A       -3.8830  -23.3850   -6.0810 C.ar  401  HEM401      0.0000
      6  C2A       -2.5700  -22.8230   -6.3170 C.ar  401  HEM401      0.0000
      7  C3A       -2.3690  -22.8330   -7.6480 C.ar  401  HEM401      0.0000
      8  C4A       -3.5440  -23.3960   -8.2890 C.ar  401  HEM401      0.0000
      9  CMA       -1.1050  -22.3240   -8.3680 C.3   401  HEM401      0.0000
     10  CAA       -1.5790  -22.3390   -5.2210 C.3   401  HEM401      0.0000
     11  CBA       -1.8920  -20.9430   -4.7020 C.3   401  HEM401      0.0000
     12  CGA       -0.8090  -20.4940   -3.7420 C.2   401  HEM401      0.0000
     13  O1A        0.0660  -21.3180   -3.3590 O.co2 401  HEM401      0.0000
     14  O2A       -0.8250  -19.2860   -3.3690 O.co2 401  HEM401      0.0000
     15  C1B       -4.7720  -24.3360  -10.1950 C.2   401  HEM401      0.0000
     16  C2B       -4.9010  -24.6890  -11.5950 C.2   401  HEM401      0.0000
     17  C3B       -6.0140  -25.4260  -11.7370 C.2   401  HEM401      0.0000
     18  C4B       -6.6090  -25.5790  -10.4310 C.2   401  HEM401      0.0000
     19  CMB       -3.9170  -24.2520  -12.6970 C.3   401  HEM401      0.0000
     20  CAB       -6.6090  -26.0850  -13.0000 C.2   401  HEM401      0.0000
     21  CBB       -5.8910  -26.2860  -14.1090 C.2   401  HEM401      0.0000
     22  C1C       -8.3900  -26.3630   -8.9550 C.ar  401  HEM401      0.0000
     23  C2C       -9.5910  -27.1210   -8.6560 C.ar  401  HEM401      0.0000
     24  C3C       -9.9090  -26.8770   -7.3690 C.ar  401  HEM401      0.0000
     25  C4C       -8.9320  -25.9590   -6.8410 C.ar  401  HEM401      0.0000
     26  CMC      -10.3230  -28.0390   -9.6620 C.3   401  HEM401      0.0000
     27  CAC      -11.0950  -27.4210   -6.5470 C.2   401  HEM401      0.0000
     28  CBC      -12.0830  -28.1380   -7.0910 C.2   401  HEM401      0.0000
     29  C1D       -7.8520  -24.8170   -4.9820 C.2   401  HEM401      0.0000
     30  C2D       -7.8540  -24.3830   -3.6080 C.2   401  HEM401      0.0000
     31  C3D       -6.4760  -23.7890   -3.3600 C.2   401  HEM401      0.0000
     32  C4D       -5.7730  -23.9220   -4.6190 C.2   401  HEM401      0.0000
     33  CMD       -9.0080  -24.4860   -2.6010 C.3   401  HEM401      0.0000
     34  CAD       -5.9680  -23.1830   -2.0330 C.3   401  HEM401      0.0000
     35  CBD       -4.9730  -24.1690   -1.4250 C.3   401  HEM401      0.0000
     36  CGD       -4.4280  -23.6730   -0.1050 C.2   401  HEM401      0.0000
     37  O1D       -3.6440  -24.4260    0.5150 O.co2 401  HEM401      0.0000
     38  O2D       -4.7800  -22.5440    0.3120 O.co2 401  HEM401      0.0000
     39  NA        -4.4490  -23.7220   -7.2980 N.ar  401  HEM401      0.0000
     40  NB        -5.8420  -24.8790   -9.5040 N.2   401  HEM401      0.0000
     41  NC        -8.0150  -25.6730   -7.8230 N.ar  401  HEM401      0.0000
     42  ND        -6.6100  -24.5340   -5.5570 N.2   401  HEM401      0.0000
     43 FE         -6.1370  -24.8620   -7.5210 Fe    401  HEM401      0.0000
@<TRIPOS>BOND
     1    21    20    2
     2    20    17    1
     3    19    16    1
     4    17    16    2
     5    17    18    1
     6    16    15    1
     7    18     3    2
     8    18    40    1
     9    15     2    1
    10    15    40    2
    11     3    22    1
    12    26    23    1
    13     2     8    2
    14    40    43    1
    15    22    23   ar
    16    22    41   ar
    17    23    24   ar
    18     9     7    1
    19     8     7   ar
    20     8    39   ar
    21    41    43    1
    22    41    25   ar
    23     7     6   ar
    24    43    39    1
    25    43    42    1
    26    24    25   ar
    27    24    27    1
    28    39     5   ar
    29    28    27    2
    30    25     4    1
    31     6     5   ar
    32     6    10    1
    33     5     1    2
    34     4    29    2
    35    42    29    1
    36    42    32    2
    37    10    11    1
    38    29    30    1
    39     1    32    1
    40    11    12    1
    41    32    31    1
    42    12    14   ar
    43    12    13   ar
    44    30    31    2
    45    30    33    1
    46    31    34    1
    47    34    35    1
    48    35    36    1
    49    36    38   ar
    50    36    37   ar
