@<TRIPOS>MOLECULE
4g48_PZB_A_1.pdb
 20 22 0 0 0
SMALL
GASTEIGER

@<TRIPOS>ATOM
      1  CAF       -9.8660  -18.3790   -1.2280 C.ar  405  PZB405      0.0375
      2  CAD       -9.1580  -19.0420   -0.2310 C.ar  405  PZB405      0.0031
      3  CAC       -8.8840  -20.3990   -0.3500 C.ar  405  PZB405      0.0002
      4  CAE       -9.3140  -21.0970   -1.4640 C.ar  405  PZB405      0.0031
      5  CAG      -10.0190  -20.4380   -2.4600 C.ar  405  PZB405      0.0375
      6  CAQ      -10.2710  -19.0790   -2.3500 C.ar  405  PZB405      0.1454
      7  OAN      -10.9750  -18.4420   -3.3190 O.3   405  PZB405     -0.4503
      8  CAR      -10.7260  -17.1030   -3.4340 C.ar  405  PZB405      0.1854
      9  CAJ       -9.5850  -16.4160   -3.3770 C.ar  405  PZB405      0.1611
     10  NAM       -9.9010  -15.1160   -3.5460 N.ar  405  PZB405     -0.1430
     11  NAL      -11.1220  -14.9890   -3.7260 N.ar  405  PZB405     -0.1446
     12  CAT      -11.7190  -16.1850   -3.6380 C.ar  405  PZB405      0.1419
     13  CAS      -13.0550  -16.5450   -3.7930 C.ar  405  PZB405      0.0616
     14  CAI      -13.4560  -17.8780   -3.9380 C.ar  405  PZB405      0.0081
     15  CAH      -14.8110  -18.1740   -4.1420 C.ar  405  PZB405      0.0423
     16  CAO      -15.7390  -17.1360   -4.2050 C.ar  405  PZB405      0.1989
     17  OAA      -17.0630  -17.3670   -4.4050 O.3   405  PZB405     -0.2865
     18  CAK      -15.3230  -15.8240   -4.0660 C.ar  405  PZB405      0.0841
     19  CAP      -13.9870  -15.5280   -3.8940 C.ar  405  PZB405      0.2005
     20  OAB      -13.5950  -14.2330   -3.7560 O.3   405  PZB405     -0.2864
@<TRIPOS>BOND
     1    17    16    1
     2    16    15   ar
     3    16    18   ar
     4    15    14   ar
     5    18    19   ar
     6    14    13   ar
     7    19    13   ar
     8    19    20    1
     9    13    12    1
    10    11    12   ar
    11    11    10   ar
    12    12     8   ar
    13    10     9   ar
    14     8     9   ar
    15     8     7    1
    16     7     6    1
    17     5     6   ar
    18     5     4   ar
    19     6     1   ar
    20     4     3   ar
    21     1     2   ar
    22     3     2   ar
