@<TRIPOS>MOLECULE
4g4s_LDZ_L_1.pdb
 34 34 0 0 0
SMALL
GASTEIGER

@<TRIPOS>ATOM
      1  C4       -16.3930   60.5880  -79.1450 C.ar  301  LDZ301     -0.0007
      2  C5       -15.9320   59.2590  -79.2270 C.ar  301  LDZ301     -0.0002
      3  C6       -14.6960   58.9070  -78.6630 C.ar  301  LDZ301     -0.0000
      4  C1       -13.9500   59.9040  -78.0270 C.ar  301  LDZ301     -0.0002
      5  C2       -14.4130   61.2250  -77.9460 C.ar  301  LDZ301     -0.0007
      6  C3       -15.6430   61.6230  -78.4960 C.ar  301  LDZ301      0.0213
      7  C7       -16.1910   63.0780  -78.4170 C.3   301  LDZ301      0.2368
      8  O8       -17.1960   63.5170  -79.4160 O.3   301  LDZ301     -0.4285
      9  C9       -17.6010   64.8860  -79.4200 C.2   301  LDZ301      0.4218
     10  O31      -17.6860   65.5060  -80.4800 O.2   301  LDZ301     -0.2245
     11  N10      -18.0390   65.5180  -78.2780 N.am  301  LDZ301     -0.1611
     12  C11      -18.9310   66.7340  -78.4510 C.3   301  LDZ301      0.1761
     13  C12      -18.0480   67.9590  -78.9240 C.2   301  LDZ301      0.2617
     14  O32      -17.0300   68.2780  -78.3360 O.2   301  LDZ301     -0.2715
     15  C30      -19.7760   67.0650  -77.1710 C.3   301  LDZ301      0.0312
     16  C31      -21.2370   67.3600  -77.4480 C.3   301  LDZ301      0.0022
     17  C32      -21.7620   66.4620  -78.5790 C.3   301  LDZ301      0.0001
     18  C33      -22.1590   67.2310  -76.2020 C.3   301  LDZ301      0.0001
     19  N13      -18.4470   68.6910  -79.9990 N.am  301  LDZ301     -0.1963
     20  C14      -17.7170   69.8220  -80.5210 C.3   301  LDZ301      0.1728
     21  C15      -18.3970   71.1660  -80.2830 C.2   301  LDZ301      0.2616
     22  O34      -19.5800   71.3160  -80.5240 O.2   301  LDZ301     -0.2715
     23  C24      -17.5030   69.7420  -82.0510 C.3   301  LDZ301      0.0311
     24  C25      -16.3240   70.5020  -82.5620 C.3   301  LDZ301      0.0022
     25  C26      -16.1550   70.3420  -84.0790 C.3   301  LDZ301      0.0001
     26  C27      -15.0610   70.0220  -81.8540 C.3   301  LDZ301      0.0001
     27  N16      -17.7330   72.2010  -79.8600 N.am  301  LDZ301     -0.1977
     28  C17      -18.3370   73.4630  -79.7230 C.3   301  LDZ301      0.1596
     29  C22      -17.7110   74.0440  -80.9340 C.2   301  LDZ301      0.2287
     30  C18      -17.8390   74.2400  -78.4870 C.3   301  LDZ301      0.0297
     31  C19      -17.9520   73.4430  -77.2010 C.3   301  LDZ301      0.0022
     32  C20      -19.3580   72.8620  -76.9860 C.3   301  LDZ301      0.0001
     33  C21      -17.5510   74.2560  -75.9750 C.3   301  LDZ301      0.0001
     34  O33      -16.6400   74.6300  -80.8210 O.2   301  LDZ301     -0.2864
@<TRIPOS>BOND
     1    25    24    1
     2    24    23    1
     3    24    26    1
     4    23    20    1
     5    29    34    2
     6    29    28    1
     7    22    21    2
     8    20    21    1
     9    20    19    1
    10    10     9    2
    11    21    27   am
    12    19    13   am
    13    27    28    1
    14    28    30    1
    15     9     8    1
    16     9    11   am
    17     8     7    1
    18     2     1   ar
    19     2     3   ar
    20     1     6   ar
    21    13    12    1
    22    13    14    2
    23     3     4   ar
    24    17    16    1
    25     6     7    1
    26     6     5   ar
    27    30    31    1
    28    12    11    1
    29    12    15    1
    30     4     5   ar
    31    16    15    1
    32    16    18    1
    33    31    32    1
    34    31    33    1
