@<TRIPOS>MOLECULE
4g50_861_A_1.pdb
 34 36 0 0 0
SMALL
GASTEIGER

@<TRIPOS>ATOM
      1  O6        22.0930    5.8230   72.0200 O.2   201  861201     -0.1569
      2  S         22.0260    4.9500   73.1010 S.O2  201  861201      0.0485
      3  O5        20.8230    4.1550   73.1170 O.2   201  861201     -0.1569
      4  C18       22.1070    5.7840   74.5860 C.3   201  861201      0.1955
      5  C19       21.0950    6.9000   74.7040 C.ar  201  861201      0.0029
      6  C24       21.4220    8.2020   74.3760 C.ar  201  861201     -0.0025
      7  C23       20.4520    9.2050   74.5120 C.ar  201  861201     -0.0003
      8  C22       19.1550    8.9010   74.9290 C.ar  201  861201     -0.0000
      9  C21       18.8150    7.6010   75.2470 C.ar  201  861201     -0.0003
     10  C20       19.7910    6.6060   75.1200 C.ar  201  861201     -0.0025
     11  N         23.2510    3.9640   73.0320 N.3   201  861201     -0.1497
     12  C17       24.6200    4.4600   72.8610 C.3   201  861201      0.0960
     13  C16       25.3570    3.6040   71.8140 C.3   201  861201      0.0192
     14  C15       25.2590    2.1250   72.1260 C.3   201  861201      0.0035
     15  C14       23.8000    1.7340   72.0890 C.3   201  861201      0.0291
     16  C13       22.9890    2.4960   73.1690 C.3   201  861201      0.1775
     17  C12       23.2860    1.9480   74.5110 C.2   201  861201      0.3332
     18  O4        23.0600    0.7740   74.7890 O.2   201  861201     -0.2485
     19  O3        23.8800    2.8050   75.4830 O.3   201  861201     -0.4475
     20  C11       24.6940    2.2120   76.5460 C.3   201  861201      0.2088
     21  C10       24.1060    2.7140   77.8170 C.3   201  861201      0.0521
     22  C9        22.6500    2.1660   77.9850 C.3   201  861201      0.0304
     23  C3        22.5550    0.7810   78.5670 C.ar  201  861201     -0.0158
     24  C2        21.3120    0.1700   78.6620 C.ar  201  861201      0.0360
     25  C4        23.6720    0.0950   79.0030 C.ar  201  861201      0.0360
     26  C5        23.5170   -1.1800   79.5430 C.ar  201  861201      0.1751
     27  O2        24.6180   -1.8520   80.0010 O.3   201  861201     -0.4683
     28  C8        25.5710   -1.1950   80.8650 C.3   201  861201      0.2526
     29  C6        22.2700   -1.7630   79.6280 C.ar  201  861201      0.2060
     30  O1        22.1470   -3.0110   80.1460 O.3   201  861201     -0.4654
     31  C7        22.5040   -4.1470   79.3370 C.3   201  861201      0.2528
     32  C1        21.1610   -1.0990   79.1910 C.ar  201  861201      0.1751
     33  O         19.9210   -1.7200   79.2960 O.3   201  861201     -0.4683
     34  C         18.6690   -1.0600   79.2770 C.3   201  861201      0.2526
@<TRIPOS>BOND
     1    13    14    1
     2    13    12    1
     3     1     2    2
     4    15    14    1
     5    15    16    1
     6    12    11    1
     7    11     2    1
     8    11    16    1
     9     2     3    2
    10     2     4    1
    11    16    17    1
    12     6     7   ar
    13     6     5   ar
    14    17    18    2
    15    17    19    1
    16     7     8   ar
    17     4     5    1
    18     5    10   ar
    19     8     9   ar
    20    10     9   ar
    21    19    20    1
    22    20    21    1
    23    21    22    1
    24    22    23    1
    25    23    24   ar
    26    23    25   ar
    27    24    32   ar
    28    25    26   ar
    29    32    33    1
    30    32    29   ar
    31    34    33    1
    32    31    30    1
    33    26    29   ar
    34    26    27    1
    35    29    30    1
    36    27    28    1
