@<TRIPOS>MOLECULE
4g51_HEM_A_1.pdb
 43 50 0 0 0
SMALL
GASTEIGER

@<TRIPOS>ATOM
      1  CHA        6.5060  -19.6900   11.7020 C.2   202  HEM202      0.0000
      2  CHB        8.8150  -15.4970   11.0580 C.2   202  HEM202      0.0000
      3  CHC        4.8390  -13.0970   12.3970 C.2   202  HEM202      0.0000
      4  CHD        2.5170  -17.2840   12.9780 C.2   202  HEM202      0.0000
      5  C1A        7.4950  -18.7690   11.4300 C.ar  202  HEM202      0.0000
      6  C2A        8.8610  -19.0700   11.0520 C.ar  202  HEM202      0.0000
      7  C3A        9.4950  -17.9050   10.8670 C.ar  202  HEM202      0.0000
      8  C4A        8.5470  -16.8460   11.1280 C.ar  202  HEM202      0.0000
      9  CMA       10.9600  -17.6560   10.4480 C.3   202  HEM202      0.0000
     10  CAA        9.4300  -20.4930   10.9240 C.3   202  HEM202      0.0000
     11  CBA        8.7060  -21.5150   10.0630 C.3   202  HEM202      0.0000
     12  CGA        8.9920  -22.9600   10.4060 C.2   202  HEM202      0.0000
     13  O1A        9.9610  -23.4970    9.8120 O.co2 202  HEM202      0.0000
     14  O2A        8.2370  -23.4970   11.2570 O.co2 202  HEM202      0.0000
     15  C1B        7.9380  -14.4810   11.3740 C.2   202  HEM202      0.0000
     16  C2B        8.2520  -13.0670   11.3370 C.2   202  HEM202      0.0000
     17  C3B        7.1510  -12.4000   11.6950 C.2   202  HEM202      0.0000
     18  C4B        6.1170  -13.3780   11.9580 C.2   202  HEM202      0.0000
     19  CMB        9.6440  -12.5240   10.9590 C.3   202  HEM202      0.0000
     20  CAB        6.9310  -10.8780   11.8010 C.2   202  HEM202      0.0000
     21  CBB        6.5280  -10.3180   12.9390 C.2   202  HEM202      0.0000
     22  C1C        3.8910  -14.0320   12.7550 C.ar  202  HEM202      0.0000
     23  C2C        2.6420  -13.7520   13.4370 C.ar  202  HEM202      0.0000
     24  C3C        2.0090  -14.9090   13.6070 C.ar  202  HEM202      0.0000
     25  C4C        2.8260  -15.9460   13.0140 C.ar  202  HEM202      0.0000
     26  CMC        2.2190  -12.3290   13.8630 C.3   202  HEM202      0.0000
     27  CAC        0.6340  -15.1940   14.2530 C.2   202  HEM202      0.0000
     28  CBC       -0.3820  -14.3510   14.0290 C.2   202  HEM202      0.0000
     29  C1D        3.4160  -18.2980   12.7280 C.2   202  HEM202      0.0000
     30  C2D        3.1450  -19.7090   12.9190 C.2   202  HEM202      0.0000
     31  C3D        4.2420  -20.3780   12.5600 C.2   202  HEM202      0.0000
     32  C4D        5.2360  -19.4080   12.1490 C.2   202  HEM202      0.0000
     33  CMD        1.7860  -20.2320   13.4310 C.3   202  HEM202      0.0000
     34  CAD        4.5010  -21.9000   12.5930 C.3   202  HEM202      0.0000
     35  CBD        4.8590  -22.5190   13.9460 C.3   202  HEM202      0.0000
     36  CGD        4.5800  -23.9890   14.0880 C.2   202  HEM202      0.0000
     37  O1D        5.3180  -24.6340   14.8770 O.co2 202  HEM202      0.0000
     38  O2D        3.6290  -24.4590   13.4060 O.co2 202  HEM202      0.0000
     39  NA         7.3230  -17.3940   11.4720 N.ar  202  HEM202      0.0000
     40  NB         6.6250  -14.6540   11.7630 N.2   202  HEM202      0.0000
     41  NC         3.9870  -15.3900   12.5060 N.ar  202  HEM202      0.0000
     42  ND         4.6990  -18.1330   12.2580 N.2   202  HEM202      0.0000
     43 FE          5.6070  -16.4030   11.8350 Fe    202  HEM202      0.0000
@<TRIPOS>BOND
     1    13    12   ar
     2    11    12    1
     3    11    10    1
     4    12    14   ar
     5     9     7    1
     6     7     6   ar
     7     7     8   ar
     8    10     6    1
     9    19    16    1
    10     6     5   ar
    11     2     8    2
    12     2    15    1
    13     8    39   ar
    14    16    15    1
    15    16    17    2
    16    15    40    2
    17     5    39   ar
    18     5     1    2
    19    39    43    1
    20    17    20    1
    21    17    18    1
    22     1    32    1
    23    40    43    1
    24    40    18    1
    25    20    21    2
    26    43    42    1
    27    43    41    1
    28    18     3    2
    29    32    42    2
    30    32    31    1
    31    42    29    1
    32     3    22    1
    33    41    22   ar
    34    41    25   ar
    35    31    34    1
    36    31    30    2
    37    34    35    1
    38    29    30    1
    39    29     4    2
    40    22    23   ar
    41    30    33    1
    42     4    25    1
    43    25    24   ar
    44    38    36   ar
    45    23    24   ar
    46    23    26    1
    47    24    27    1
    48    35    36    1
    49    28    27    2
    50    36    37   ar
