@<TRIPOS>MOLECULE
4g55_VH2_A_1.pdb
 28 31 0 0 0
SMALL
GASTEIGER

@<TRIPOS>ATOM
      1  CBA       47.8060   -5.4140   23.6060 C.ar  418  VH2418      0.0190
      2  CAP       47.8210   -4.1760   24.3060 C.ar  418  VH2418      0.0013
      3  CAG       47.8760   -2.9210   23.6620 C.ar  418  VH2418      0.0000
      4  CAF       47.9700   -2.9430   22.2610 C.ar  418  VH2418      0.0000
      5  CAN       47.9880   -4.1530   21.5460 C.ar  418  VH2418      0.0000
      6  CAZ       47.8610   -5.4010   22.1860 C.ar  418  VH2418      0.0013
      7  CAO       47.8660   -6.5990   21.4590 C.ar  418  VH2418      0.0001
      8  CAH       47.8050   -7.8390   22.0920 C.ar  418  VH2418      0.0014
      9  CAK       47.7130   -7.8710   23.4800 C.ar  418  VH2418      0.0202
     10  CAW       47.6950   -6.6860   24.2280 C.ar  418  VH2418      0.1271
     11  SBB       47.6230   -6.8910   25.9720 S.O2  418  VH2418      0.0956
     12  OAB       46.6250   -5.9120   26.4900 O.2   418  VH2418     -0.1482
     13  OAC       47.1820   -8.3380   26.3270 O.2   418  VH2418     -0.1482
     14  NAR       49.1290   -6.4930   26.6050 N.pl3 418  VH2418     -0.0569
     15  CAV       50.1280   -7.3110   26.5680 C.2   418  VH2418      0.2653
     16  SAS       50.0480   -9.0220   26.1350 S.3   418  VH2418     -0.0233
     17  NAQ       51.3780   -6.9290   26.8670 N.2   418  VH2418     -0.3069
     18  CAX       52.2550   -7.9340   26.7580 C.1   418  VH2418      0.2127
     19  OAA       53.4430   -7.7070   26.9920 O.2   418  VH2418     -0.2087
     20  CAY       51.7920   -9.1540   26.3770 C.2   418  VH2418      0.1276
     21  CAE       52.6000  -10.2520   26.2510 C.2   418  VH2418      0.0194
     22  CAU       52.1410  -11.5420   25.9420 C.ar  418  VH2418      0.0013
     23  CAL       50.8950  -11.9940   26.3750 C.ar  418  VH2418      0.0005
     24  CAI       50.4790  -13.2680   26.0780 C.ar  418  VH2418      0.0067
     25  CAT       51.2790  -14.0800   25.3530 C.ar  418  VH2418      0.0346
     26 BR         50.6940  -15.9160   24.8860 Br    418  VH2418     -0.0490
     27  CAJ       52.5540  -13.7080   24.9280 C.ar  418  VH2418      0.0067
     28  CAM       52.9650  -12.4050   25.2280 C.ar  418  VH2418      0.0005
@<TRIPOS>BOND
     1     7     8   ar
     2     7     6   ar
     3     5     6   ar
     4     5     4   ar
     5     8     9   ar
     6     6     1   ar
     7     4     3   ar
     8     9    10   ar
     9     1    10   ar
    10     1     2   ar
    11     3     2   ar
    12    10    11    1
    13    26    25    1
    14    27    28   ar
    15    27    25   ar
    16    28    22   ar
    17    25    24   ar
    18    22    21    1
    19    22    23   ar
    20    11    13    2
    21    11    12    2
    22    11    14    1
    23    24    23   ar
    24    16    20    1
    25    16    15    1
    26    21    20    2
    27    20    18    1
    28    15    14    1
    29    15    17    2
    30    18    17    2
    31    18    19    2
