@<TRIPOS>MOLECULE
4g56_SAH_A_1.pdb
 26 28 0 0 0
SMALL
GASTEIGER

@<TRIPOS>ATOM
      1  N        105.6890  -16.0430  123.6340 N.3   701  SAH701     -0.1208
      2  CA       105.7580  -17.4610  124.0850 C.3   701  SAH701      0.1952
      3  CB       104.3470  -17.9910  124.3190 C.3   701  SAH701      0.0422
      4  CG       103.5770  -17.0590  125.2470 C.3   701  SAH701      0.0597
      5  SD       102.2120  -17.8990  125.9790 S.3   701  SAH701     -0.1375
      6  C        106.4450  -18.2810  123.0330 C.2   701  SAH701      0.3819
      7  O        106.4200  -17.9410  121.8490 O.co2 701  SAH701     -0.2441
      8  OXT      107.0500  -19.3120  123.3270 O.co2 701  SAH701     -0.2441
      9  C5'      101.7650  -16.6910  127.1830 C.3   701  SAH701      0.0899
     10  C4'      100.5790  -17.1640  128.0140 C.3   701  SAH701      0.1630
     11  O4'      100.3560  -16.2460  129.0870 O.3   701  SAH701     -0.3153
     12  C3'       99.2970  -17.2280  127.1980 C.3   701  SAH701      0.2168
     13  O3'       98.7170  -18.5280  127.3240 O.3   701  SAH701     -0.2175
     14  C2'       98.3680  -16.1960  127.8070 C.3   701  SAH701      0.2569
     15  O2'       97.0560  -16.7400  127.9710 O.3   701  SAH701     -0.2130
     16  C1'       98.9770  -15.8770  129.1600 C.3   701  SAH701      0.3185
     17  N9        98.8390  -14.4300  129.4620 N.pl3 701  SAH701     -0.1439
     18  C8        99.3520  -13.4200  128.7360 C.3   701  SAH701      0.3377
     19  N7        99.0410  -12.2180  129.2830 N.2   701  SAH701     -0.2095
     20  C5        98.3080  -12.4530  130.3860 C.2   701  SAH701      0.2526
     21  C6        97.6550  -11.6290  131.4310 C.2   701  SAH701      0.4393
     22  N6        97.7280  -10.2760  131.4020 N.pl3 701  SAH701      0.2180
     23  N1        96.9860  -12.2730  132.4130 N.2   701  SAH701      0.0021
     24  C2        96.9060  -13.6170  132.4520 C.3   701  SAH701      0.5254
     25  N3        97.4740  -14.4250  131.5380 N.2   701  SAH701     -0.0055
     26  C4        98.1750  -13.9130  130.4980 C.2   701  SAH701      0.3518
@<TRIPOS>BOND
     1     7     6   ar
     2     6     8   ar
     3     6     2    1
     4     1     2    1
     5     2     3    1
     6     3     4    1
     7     4     5    1
     8     5     9    1
     9     9    10    1
    10    12    13    1
    11    12    14    1
    12    12    10    1
    13    14    15    1
    14    14    16    1
    15    10    11    1
    16    18    19    1
    17    18    17    1
    18    11    16    1
    19    16    17    1
    20    19    20    2
    21    17    26    1
    22    20    26    1
    23    20    21    1
    24    26    25    2
    25    22    21    1
    26    21    23    2
    27    25    24    1
    28    23    24    1
