@<TRIPOS>MOLECULE
4g5d_NDP_A_1.pdb
 48 52 0 0 0
SMALL
GASTEIGER

@<TRIPOS>ATOM
      1  PA        32.3220   12.5460   14.3140 P.3   301  NDP301      0.2189
      2  O1A       32.9880   12.5550   12.9620 O.2   301  NDP301     -0.5170
      3  O2A       31.7650   11.3030   14.9040 O.3   301  NDP301     -0.4371
      4  O5B       31.1590   13.6680   14.2520 O.3   301  NDP301     -0.3112
      5  C5B       30.6430   14.1380   15.4970 C.3   301  NDP301      0.1813
      6  C4B       29.5370   15.1570   15.2670 C.3   301  NDP301      0.1820
      7  O4B       28.4330   14.5880   14.5390 O.3   301  NDP301     -0.3136
      8  C3B       28.9410   15.6850   16.5630 C.3   301  NDP301      0.2157
      9  O3B       28.7300   17.0920   16.3330 O.3   301  NDP301     -0.2175
     10  C2B       27.6140   14.9640   16.7290 C.3   301  NDP301      0.2314
     11  O2B       26.6680   15.8120   17.3820 O.3   301  NDP301     -0.2630
     12  C1B       27.2110   14.7400   15.2830 C.3   301  NDP301      0.3158
     13  N9A       26.4680   13.4930   15.0060 N.pl3 301  NDP301     -0.1439
     14  C8A       26.8170   12.2540   15.4050 C.3   301  NDP301      0.3377
     15  N7A       25.9480   11.3260   14.9330 N.2   301  NDP301     -0.2095
     16  C5A       25.0030   11.9850   14.2250 C.2   301  NDP301      0.2526
     17  C6A       23.7990   11.5910   13.4700 C.2   301  NDP301      0.4393
     18  N6A       23.4170   10.2960   13.3880 N.pl3 301  NDP301      0.2180
     19  N1A       23.0920   12.5770   12.8730 N.2   301  NDP301      0.0021
     20  C2A       23.4490   13.8750   12.9510 C.3   301  NDP301      0.5254
     21  N3A       24.5410   14.3010   13.6220 N.2   301  NDP301     -0.0055
     22  C4A       25.3410   13.4100   14.2710 C.2   301  NDP301      0.3518
     23  O3        33.2290   13.4120   15.3320 O.3   301  NDP301     -0.2703
     24  PN        34.5840   13.2030   16.1720 P.3   301  NDP301      0.2189
     25  O1N       35.5300   14.2500   15.6340 O.2   301  NDP301     -0.5170
     26  O2N       34.1840   13.3060   17.6240 O.3   301  NDP301     -0.4371
     27  O5D       35.2420   11.7500   15.8980 O.3   301  NDP301     -0.3112
     28  C5D       34.7860   10.5920   16.5780 C.3   301  NDP301      0.1813
     29  C4D       35.7750   10.1920   17.6640 C.3   301  NDP301      0.1799
     30  O4D       37.0960   10.0160   17.1400 O.3   301  NDP301     -0.3327
     31  C3D       36.0050   11.2490   18.7250 C.3   301  NDP301      0.2158
     32  O3D       34.9050   11.4230   19.6270 O.3   301  NDP301     -0.2175
     33  C2D       37.2700   10.7350   19.3720 C.3   301  NDP301      0.2309
     34  O2D       36.9130    9.6120   20.1970 O.3   301  NDP301     -0.2158
     35  C1D       38.0600   10.2390   18.1740 C.3   301  NDP301      0.2263
     36  N1N       39.0200   11.2720   17.7540 N.pl3 301  NDP301     -0.2787
     37  C2N       40.3270   11.0330   17.9030 C.3   301  NDP301      0.1244
     38  C3N       41.2810   11.9830   17.5250 C.2   301  NDP301      0.0544
     39  C7N       42.7400   11.7090   17.6440 C.2   301  NDP301      0.2818
     40  O7N       43.5240   12.6510   17.5350 O.2   301  NDP301     -0.2670
     41  N7N       43.1440   10.4430   17.8050 N.am  301  NDP301     -0.0839
     42  C4N       40.8800   13.3150   16.9430 C.2   301  NDP301      0.0033
     43  C5N       39.4440   13.4600   16.8490 C.2   301  NDP301      0.0157
     44  C6N       38.5840   12.4430   17.2460 C.2   301  NDP301      0.0633
     45  P2B       26.0900   15.5320   18.8540 P.3   301  NDP301      0.5328
     46  O1X       24.9580   14.5590   18.6820 O.2   301  NDP301     -0.2224
     47  O2X       27.2590   14.9730   19.6630 O.3   301  NDP301     -0.1145
     48  O3X       25.6480   16.9150   19.3040 O.3   301  NDP301     -0.1145
@<TRIPOS>BOND
     1    19    20    1
     2    19    17    2
     3    20    21    1
     4     2     1    2
     5    18    17    1
     6    17    16    1
     7    21    22    2
     8    16    22    1
     9    16    15    2
    10     4     1    1
    11     4     5    1
    12    22    13    1
    13     1     3    1
    14     1    23    1
    15     7     6    1
    16     7    12    1
    17    15    14    1
    18    13    12    1
    19    13    14    1
    20     6     5    1
    21     6     8    1
    22    12    10    1
    23    23    24    1
    24    25    24    2
    25    27    24    1
    26    27    28    1
    27    24    26    1
    28     9     8    1
    29     8    10    1
    30    28    29    1
    31    10    11    1
    32    43    42    1
    33    43    44    2
    34    42    38    2
    35    30    29    1
    36    30    35    1
    37    44    36    1
    38    11    45    1
    39    38    39    1
    40    38    37    1
    41    40    39    2
    42    39    41   am
    43    29    31    1
    44    36    37    1
    45    36    35    1
    46    35    33    1
    47    46    45    2
    48    31    33    1
    49    31    32    1
    50    45    48    1
    51    45    47    1
    52    33    34    1
