@<TRIPOS>MOLECULE
4g5g_GDP_A_1.pdb
 28 30 0 0 0
SMALL
GASTEIGER

@<TRIPOS>ATOM
      1  PB       -16.0570    2.8130  -19.8480 P.3   502  GDP502      0.5373
      2  O1B      -15.4530    4.1820  -20.2370 O.2   502  GDP502     -0.2221
      3  O2B      -17.5790    2.9560  -19.7840 O.3   502  GDP502     -0.1143
      4  O3B      -15.4770    2.3300  -18.5300 O.3   502  GDP502     -0.1143
      5  O3A      -15.7300    1.9010  -21.0780 O.3   502  GDP502     -0.2261
      6  PA       -16.5500    1.1120  -22.1520 P.3   502  GDP502      0.2231
      7  O1A      -17.5210    0.1110  -21.5820 O.3   502  GDP502     -0.4370
      8  O2A      -17.2290    2.2190  -22.9970 O.2   502  GDP502     -0.5169
      9  O5'      -15.6110    0.4280  -23.1770 O.3   502  GDP502     -0.3111
     10  C5'      -14.2370    0.8460  -23.3790 C.3   502  GDP502      0.1813
     11  C4'      -13.6030    0.0250  -24.5180 C.3   502  GDP502      0.1799
     12  O4'      -13.0790   -1.2520  -24.0930 O.3   502  GDP502     -0.3326
     13  C3'      -14.6000   -0.2550  -25.7030 C.3   502  GDP502      0.2158
     14  O3'      -13.9530   -0.1610  -26.9900 O.3   502  GDP502     -0.2175
     15  C2'      -15.0630   -1.6500  -25.4050 C.3   502  GDP502      0.2310
     16  O2'      -15.4870   -2.4270  -26.5050 O.3   502  GDP502     -0.2158
     17  C1'      -13.8880   -2.2860  -24.6480 C.3   502  GDP502      0.2293
     18  N9       -14.5910   -3.2370  -23.7920 N.pl3 502  GDP502     -0.2354
     19  C8       -15.1620   -3.2370  -22.5010 C.3   502  GDP502      0.2246
     20  N7       -15.0710   -4.3880  -21.8020 N.2   502  GDP502     -0.2322
     21  C5       -14.2570   -5.2490  -22.6690 C.2   502  GDP502      0.2182
     22  C6       -13.7490   -6.6520  -22.5110 C.1   502  GDP502      0.2372
     23  O6       -14.1460   -7.3380  -21.5800 O.2   502  GDP502     -0.2069
     24  N1       -12.8420   -7.0980  -23.4490 N.2   502  GDP502     -0.2485
     25  C2       -12.4040   -6.3730  -24.5300 C.1   502  GDP502      0.2531
     26  N2       -11.5080   -6.9090  -25.3650 N.pl3 502  GDP502     -0.0226
     27  N3       -12.9250   -5.1010  -24.7480 N.2   502  GDP502     -0.3074
     28  C4       -13.9200   -4.5540  -23.7740 C.2   502  GDP502      0.2300
@<TRIPOS>BOND
     1    14    13    1
     2    16    15    1
     3    13    15    1
     4    13    11    1
     5    15    17    1
     6    26    25    1
     7    27    25    2
     8    27    28    2
     9    17    12    1
    10    17    18    1
    11    25    24    2
    12    11    12    1
    13    11    10    1
    14    18    28    1
    15    18    19    1
    16    28    21    1
    17    24    22    2
    18    10     9    1
    19     9     6    1
    20     8     6    2
    21    21    22    1
    22    21    20    2
    23    22    23    2
    24    19    20    1
    25     6     7    1
    26     6     5    1
    27     5     1    1
    28     2     1    2
    29     1     3    1
    30     1     4    1
