@<TRIPOS>MOLECULE
4g5i_DB7_A_1.pdb
 20 20 0 0 0
SMALL
GASTEIGER

@<TRIPOS>ATOM
      1  C1        38.4570  -17.0210   23.2420 C.ar  205  DB7205      0.0819
      2  C2        37.8980  -17.5340   22.0120 C.ar  205  DB7205      0.0819
      3  C3        36.6270  -18.1400   22.0360 C.ar  205  DB7205      0.0066
      4  C4        35.9280  -18.2280   23.2250 C.ar  205  DB7205      0.0002
      5  C5        36.4730  -17.7180   24.4060 C.ar  205  DB7205      0.0002
      6  C6        37.7200  -17.1120   24.4260 C.ar  205  DB7205      0.0066
      7  C7        39.8520  -16.2970   23.3640 C.2   205  DB7205      0.3414
      8  C8        38.6080  -17.4860   20.5730 C.2   205  DB7205      0.3414
      9  C13       40.5210  -17.0120   19.1020 C.3   205  DB7205      0.2088
     10  C14       42.0340  -16.7820   19.2570 C.3   205  DB7205      0.0475
     11  C15       42.8520  -18.0420   18.9340 C.3   205  DB7205      0.0038
     12  C16       44.3460  -17.8260   19.2070 C.3   205  DB7205      0.0001
     13  O9        39.7990  -16.7740   20.3500 O.3   205  DB7205     -0.4454
     14  O11       38.0660  -18.0670   19.6160 O.2   205  DB7205     -0.2449
     15  O12       39.8840  -15.0710   23.2470 O.2   205  DB7205     -0.2449
     16  O10       41.0400  -16.9720   23.6370 O.3   205  DB7205     -0.4454
     17  C17       42.2900  -16.1510   23.7510 C.3   205  DB7205      0.2088
     18  C18       43.4260  -16.2440   22.6850 C.3   205  DB7205      0.0475
     19  C19       44.7190  -15.5190   23.1290 C.3   205  DB7205      0.0038
     20  C20       45.1270  -14.4290   22.1340 C.3   205  DB7205      0.0001
@<TRIPOS>BOND
     1    11    12    1
     2    11    10    1
     3     9    10    1
     4     9    13    1
     5    14     8    2
     6    13     8    1
     7     8     2    1
     8     2     3   ar
     9     2     1   ar
    10     3     4   ar
    11    20    19    1
    12    18    19    1
    13    18    17    1
    14     4     5   ar
    15     1     7    1
    16     1     6   ar
    17    15     7    2
    18     7    16    1
    19    16    17    1
    20     5     6   ar
