@<TRIPOS>MOLECULE
4g5j_0WM_A_1.pdb
 34 37 0 0 0
SMALL
GASTEIGER

@<TRIPOS>ATOM
      1  C1        59.2740   -5.5600   -5.4350 C.3   1102  0WM1102     0.3917
      2  N2        60.5650   -5.1010   -5.4540 N.2   1102  0WM1102    -0.0327
      3  N3        58.2530   -4.6420   -5.3720 N.2   1102  0WM1102    -0.2224
      4  C4        60.8640   -3.7580   -5.4100 C.2   1102  0WM1102     0.3642
      5  C5        58.5230   -3.2900   -5.3280 C.2   1102  0WM1102     0.0731
      6  C6        59.8330   -2.8180   -5.3470 C.2   1102  0WM1102     0.1010
      7  C7        58.9600   -0.5650   -5.2490 C.2   1102  0WM1102     0.1036
      8  C8        60.0460   -1.4350   -5.3060 C.2   1102  0WM1102     0.0280
      9  C9        57.6610   -1.0510   -5.2280 C.2   1102  0WM1102     0.1371
     10  C10       57.4470   -2.4220   -5.2680 C.3   1102  0WM1102     0.1109
     11  N11       62.2280   -3.3890   -5.4580 N.pl3 1102  0WM1102    -0.0060
     12  C12       64.3740   -6.4410   -5.9590 C.ar  1102  0WM1102     0.0886
     13  C13       65.6050   -5.8270   -6.0460 C.ar  1102  0WM1102     0.1508
     14  C14       63.2330   -5.6810   -5.7660 C.ar  1102  0WM1102     0.0581
     15  C15       65.7080   -4.4560   -5.9380 C.ar  1102  0WM1102     0.0342
     16  C16       63.3190   -4.2880   -5.6560 C.ar  1102  0WM1102     0.1844
     17  C17       64.5710   -3.6950   -5.7480 C.ar  1102  0WM1102     0.0468
     18  F18       66.6920   -6.5510   -6.2300 F     1102  0WM1102    -0.2033
     19 CL1        64.2700   -8.1540   -6.0930 Cl    1102  0WM1102    -0.0798
     20  O20       56.6520   -0.1230   -5.1690 O.2   1102  0WM1102    -0.4791
     21  C21       55.2490   -0.3470   -5.3240 C.3   1102  0WM1102     0.1974
     22  C22       54.5100    0.9580   -5.6420 C.3   1102  0WM1102     0.1854
     23  O23       54.2050    1.5920   -4.3980 O.3   1102  0WM1102    -0.3498
     24  C24       53.9790    0.5270   -3.4790 C.3   1102  0WM1102     0.1461
     25  C25       54.5850   -0.7520   -4.0380 C.3   1102  0WM1102     0.0782
     26  N26       59.0560    0.8470   -5.2110 N.am  1102  0WM1102    -0.1765
     27  C27       60.1170    1.7410   -5.2550 C.2   1102  0WM1102     0.2457
     28  C28       59.6350    3.1390   -5.1770 C.3   1102  0WM1102     0.0886
     29  O29       61.2940    1.4440   -5.3240 O.2   1102  0WM1102    -0.2730
     30  C30       60.4130    4.2250   -5.1320 C.3   1102  0WM1102     0.0270
     31  C31       59.6420    5.5360   -5.0330 C.3   1102  0WM1102     0.0727
     32  N32       60.2910    6.6650   -5.7020 N.3   1102  0WM1102    -0.2703
     33  C33       60.6520    6.3280   -7.0930 C.3   1102  0WM1102     0.0897
     34  C34       59.3680    7.8060   -5.7180 C.3   1102  0WM1102     0.0897
@<TRIPOS>BOND
     1    33    32    1
     2    18    13    1
     3    19    12    1
     4    13    12   ar
     5    13    15   ar
     6    12    14   ar
     7    15    17   ar
     8    14    16   ar
     9    17    16   ar
    10    34    32    1
    11    32    31    1
    12    16    11    1
    13    22    21    1
    14    22    23    1
    15    11     4    1
    16     2     1    1
    17     2     4    2
    18     1     3    1
    19     4     6    1
    20     3     5    2
    21     6     5    1
    22     6     8    2
    23     5    10    1
    24    21    20    1
    25    21    25    1
    26    29    27    2
    27     8     7    1
    28    10     9    1
    29    27    26   am
    30    27    28    1
    31     7     9    2
    32     7    26    1
    33     9    20    1
    34    28    30    1
    35    30    31    1
    36    23    24    1
    37    25    24    1
