@<TRIPOS>MOLECULE
4g5j_0WN_A_1.pdb
 34 37 0 0 0
SMALL
GASTEIGER

@<TRIPOS>ATOM
      1  C1        53.1790   -1.6160  -21.7290 C.3   1101  0WN1101     0.3920
      2  N2        52.8410   -0.6260  -22.6090 N.2   1101  0WN1101    -0.0327
      3  N3        52.7050   -1.5670  -20.4430 N.2   1101  0WN1101    -0.2183
      4  C4        52.0300    0.4280  -22.2380 C.2   1101  0WN1101     0.3642
      5  C5        51.9030   -0.5230  -20.0530 C.2   1101  0WN1101     0.0902
      6  C6        51.5410    0.5000  -20.9270 C.2   1101  0WN1101     0.1012
      7  C7        50.2450    1.5230  -19.1350 C.3   1101  0WN1101     0.1737
      8  C8        50.7090    1.5350  -20.4530 C.2   1101  0WN1101     0.0117
      9  C9        50.6490    0.4930  -18.2850 C.2   1101  0WN1101     0.1413
     10  C10       51.4660   -0.5230  -18.7560 C.2   1101  0WN1101     0.0535
     11  N11       51.6260    1.3250  -23.2670 N.pl3 1101  0WN1101    -0.0060
     12  C12       51.7710   -0.5620  -26.5420 C.ar  1101  0WN1101     0.0886
     13  C13       51.7250    0.5220  -27.4050 C.ar  1101  0WN1101     0.1508
     14  C14       51.6990   -0.3420  -25.1660 C.ar  1101  0WN1101     0.0581
     15  C15       51.6090    1.8130  -26.9140 C.ar  1101  0WN1101     0.0342
     16  C16       51.5900    0.9650  -24.6560 C.ar  1101  0WN1101     0.1844
     17  C17       51.5430    2.0300  -25.5510 C.ar  1101  0WN1101     0.0468
     18  F18       51.7880    0.3220  -28.7120 F     1101  0WN1101    -0.2033
     19 CL1        51.9050   -2.1620  -27.2040 Cl    1101  0WN1101    -0.0798
     20  O20       50.2140    0.4870  -16.9920 O.2   1101  0WN1101    -0.4787
     21  C21       50.7250   -0.3450  -15.9420 C.3   1101  0WN1101     0.1974
     22  C22       50.3270   -1.8270  -16.0470 C.3   1101  0WN1101     0.1854
     23  O23       49.7230   -2.2430  -14.8260 O.3   1101  0WN1101    -0.3498
     24  C24       49.1970   -1.0530  -14.2520 C.3   1101  0WN1101     0.1461
     25  C25       50.1460    0.0720  -14.6150 C.3   1101  0WN1101     0.0782
     26  N26       49.4570    2.5630  -18.5470 N.am  1101  0WN1101    -0.1949
     27  C27       49.5680    3.9570  -18.7480 C.2   1101  0WN1101     0.2421
     28  C28       48.6750    4.8840  -17.9680 C.3   1101  0WN1101     0.0883
     29  O29       50.3610    4.4170  -19.5490 O.2   1101  0WN1101    -0.2733
     30  C30       49.0260    6.3970  -18.1540 C.3   1101  0WN1101     0.0269
     31  C31       47.9020    7.4640  -18.1670 C.3   1101  0WN1101     0.0727
     32  N32       47.9490    8.4150  -19.3120 N.3   1101  0WN1101    -0.2703
     33  C33       47.4780    7.8010  -20.5840 C.3   1101  0WN1101     0.0897
     34  C34       47.1870    9.6590  -19.0290 C.3   1101  0WN1101     0.0897
@<TRIPOS>BOND
     1    18    13    1
     2    13    15   ar
     3    13    12   ar
     4    19    12    1
     5    15    17   ar
     6    12    14   ar
     7    17    16   ar
     8    14    16   ar
     9    16    11    1
    10    11     4    1
    11     2     4    2
    12     2     1    1
    13     4     6    1
    14     1     3    1
    15     6     8    2
    16     6     5    1
    17    33    32    1
    18     8     7    1
    19     3     5    2
    20     5    10    1
    21    29    27    2
    22    32    34    1
    23    32    31    1
    24     7    26    1
    25     7     9    1
    26    10     9    2
    27    27    26   am
    28    27    28    1
    29     9    20    1
    30    31    30    1
    31    30    28    1
    32    20    21    1
    33    22    21    1
    34    22    23    1
    35    21    25    1
    36    23    24    1
    37    25    24    1
