@<TRIPOS>MOLECULE
4g5o_GDP_A_1.pdb
 28 30 0 0 0
SMALL
GASTEIGER

@<TRIPOS>ATOM
      1  PB        55.6550  -51.5380   37.8180 P.3   401  GDP401      0.5373
      2  O1B       55.3730  -52.7830   38.6170 O.3   401  GDP401     -0.1143
      3  O2B       56.9700  -51.5380   37.0640 O.3   401  GDP401     -0.1143
      4  O3B       54.4930  -51.0710   36.9770 O.2   401  GDP401     -0.2221
      5  O3A       55.8190  -50.5120   39.0600 O.3   401  GDP401     -0.2261
      6  PA        54.7140  -49.4070   39.5010 P.3   401  GDP401      0.2231
      7  O1A       53.3610  -49.9800   39.8060 O.3   401  GDP401     -0.4370
      8  O2A       54.7510  -48.3040   38.4840 O.2   401  GDP401     -0.5169
      9  O5'       55.3590  -48.8940   40.8790 O.3   401  GDP401     -0.3111
     10  C5'       55.6500  -49.7770   41.9560 C.3   401  GDP401      0.1813
     11  C4'       55.2410  -49.1260   43.2810 C.3   401  GDP401      0.1799
     12  O4'       56.2100  -48.1720   43.7320 O.3   401  GDP401     -0.3326
     13  C3'       53.9460  -48.3430   43.1870 C.3   401  GDP401      0.2158
     14  O3'       53.3540  -48.3910   44.4830 O.3   401  GDP401     -0.2175
     15  C2'       54.4030  -46.9290   42.8730 C.3   401  GDP401      0.2310
     16  O2'       53.3930  -45.9480   43.1620 O.3   401  GDP401     -0.2158
     17  C1'       55.6800  -46.8370   43.7050 C.3   401  GDP401      0.2293
     18  N9        56.7840  -46.0460   43.1180 N.pl3 401  GDP401     -0.2354
     19  C8        57.2080  -46.0850   41.8400 C.3   401  GDP401      0.2246
     20  N7        58.2690  -45.2700   41.6470 N.2   401  GDP401     -0.2322
     21  C5        58.5520  -44.7030   42.8340 C.2   401  GDP401      0.2182
     22  C6        59.5580  -43.7420   43.3420 C.1   401  GDP401      0.2372
     23  O6        60.4070  -43.2880   42.5320 O.2   401  GDP401     -0.2069
     24  N1        59.5230  -43.4030   44.6560 N.2   401  GDP401     -0.2485
     25  C2        58.5990  -43.9160   45.5000 C.1   401  GDP401      0.2531
     26  N2        58.5810  -43.5680   46.8110 N.pl3 401  GDP401     -0.0226
     27  N3        57.6560  -44.8000   45.0870 N.2   401  GDP401     -0.3074
     28  C4        57.5810  -45.2230   43.8010 C.2   401  GDP401      0.2300
@<TRIPOS>BOND
     1     4     1    2
     2     3     1    1
     3     1     2    1
     4     1     5    1
     5     8     6    2
     6     5     6    1
     7     6     7    1
     8     6     9    1
     9     9    10    1
    10    20    19    1
    11    20    21    2
    12    19    18    1
    13    10    11    1
    14    23    22    2
    15    21    22    1
    16    21    28    1
    17    15    16    1
    18    15    13    1
    19    15    17    1
    20    18    17    1
    21    18    28    1
    22    13    11    1
    23    13    14    1
    24    11    12    1
    25    22    24    2
    26    17    12    1
    27    28    27    2
    28    24    25    2
    29    27    25    2
    30    25    26    1
