@<TRIPOS>MOLECULE
4g5p_0WN_A_1.pdb
 34 37 0 0 0
SMALL
GASTEIGER

@<TRIPOS>ATOM
      1  C1        -7.0410   19.7090   30.1570 C.3   1101  0WN1101     0.3920
      2  N2        -8.1070   20.5610   29.9960 N.2   1101  0WN1101    -0.0327
      3  N3        -7.1900   18.5960   30.9510 N.2   1101  0WN1101    -0.2183
      4  C4        -9.3260   20.3350   30.6130 C.2   1101  0WN1101     0.3642
      5  C5        -8.3950   18.3530   31.5810 C.2   1101  0WN1101     0.0902
      6  C6        -9.4920   19.2030   31.4320 C.2   1101  0WN1101     0.1012
      7  C7       -10.7770   17.7290   32.8970 C.3   1101  0WN1101     0.1737
      8  C8       -10.6840   18.8780   32.1050 C.2   1101  0WN1101     0.0117
      9  C9        -9.6520   16.9050   33.0220 C.2   1101  0WN1101     0.1413
     10  C10       -8.4760   17.2290   32.3670 C.2   1101  0WN1101     0.0535
     11  N11      -10.3810   21.2410   30.3190 N.pl3 1101  0WN1101    -0.0060
     12  C12       -9.4970   23.2770   27.2600 C.ar  1101  0WN1101     0.0886
     13  C13      -10.6180   24.1010   27.2330 C.ar  1101  0WN1101     0.1508
     14  C14       -9.3950   22.3110   28.2560 C.ar  1101  0WN1101     0.0581
     15  C15      -11.6200   23.9620   28.1830 C.ar  1101  0WN1101     0.0342
     16  C16      -10.3960   22.1680   29.2300 C.ar  1101  0WN1101     0.1844
     17  C17      -11.5100   22.9990   29.1690 C.ar  1101  0WN1101     0.0468
     18  F18      -10.7420   25.0350   26.3000 F     1101  0WN1101    -0.2033
     19 CL1        -8.2450   23.4490   26.0660 Cl    1101  0WN1101    -0.0798
     20  O20       -9.7040   15.7770   33.7960 O.2   1101  0WN1101    -0.4787
     21  C21       -9.0790   14.5260   33.4980 C.3   1101  0WN1101     0.1974
     22  C22       -9.3550   14.0290   32.0750 C.3   1101  0WN1101     0.1854
     23  O23       -9.4330   12.6080   32.1230 O.3   1101  0WN1101    -0.3498
     24  C24      -10.0320   12.3220   33.3810 C.3   1101  0WN1101     0.1461
     25  C25       -9.6220   13.4110   34.3560 C.3   1101  0WN1101     0.0782
     26  N26      -11.9640   17.3590   33.6260 N.am  1101  0WN1101    -0.1949
     27  C27      -13.3510   17.4280   33.4080 C.2   1101  0WN1101     0.2421
     28  C28      -14.2470   16.9280   34.5160 C.3   1101  0WN1101     0.0883
     29  O29      -13.8200   17.8560   32.3730 O.2   1101  0WN1101    -0.2733
     30  C30      -14.9610   18.0830   35.2960 C.3   1101  0WN1101     0.0269
     31  C31      -16.5130   18.0160   35.3150 C.3   1101  0WN1101     0.0727
     32  N32      -17.1610   19.0270   34.4310 N.3   1101  0WN1101    -0.2703
     33  C33      -17.3070   18.5390   33.0390 C.3   1101  0WN1101     0.0897
     34  C34      -18.4940   19.4580   34.9150 C.3   1101  0WN1101     0.0897
@<TRIPOS>BOND
     1    19    12    1
     2    18    13    1
     3    13    12   ar
     4    13    15   ar
     5    12    14   ar
     6    15    17   ar
     7    14    16   ar
     8    17    16   ar
     9    16    11    1
    10     2     1    1
    11     2     4    2
    12     1     3    1
    13    11     4    1
    14     4     6    1
    15     3     5    2
    16     6     5    1
    17     6     8    2
    18     5    10    1
    19    22    23    1
    20    22    21    1
    21     8     7    1
    22    23    24    1
    23    10     9    2
    24    29    27    2
    25     7     9    1
    26     7    26    1
    27     9    20    1
    28    33    32    1
    29    24    25    1
    30    27    26   am
    31    27    28    1
    32    21    20    1
    33    21    25    1
    34    32    34    1
    35    32    31    1
    36    28    30    1
    37    30    31    1
