@<TRIPOS>MOLECULE
4g5q_GDP_A_1.pdb
 28 30 0 0 0
SMALL
GASTEIGER

@<TRIPOS>ATOM
      1  PB        55.6460  -51.5870   37.8360 P.3   401  GDP401      0.5373
      2  O1B       55.4270  -52.8170   38.6670 O.3   401  GDP401     -0.1143
      3  O2B       56.9390  -51.5870   37.0520 O.3   401  GDP401     -0.1143
      4  O3B       54.4920  -51.1320   36.9810 O.2   401  GDP401     -0.2221
      5  O3A       55.8020  -50.5550   39.0760 O.3   401  GDP401     -0.2261
      6  PA        54.7020  -49.4460   39.5050 P.3   401  GDP401      0.2231
      7  O1A       53.3430  -50.0080   39.7760 O.3   401  GDP401     -0.4370
      8  O2A       54.7480  -48.3350   38.4970 O.2   401  GDP401     -0.5169
      9  O5'       55.3040  -48.9380   40.9050 O.3   401  GDP401     -0.3111
     10  C5'       55.6630  -49.8060   41.9760 C.3   401  GDP401      0.1813
     11  C4'       55.2940  -49.1570   43.3230 C.3   401  GDP401      0.1799
     12  O4'       56.2570  -48.1900   43.7720 O.3   401  GDP401     -0.3326
     13  C3'       53.9840  -48.3910   43.2850 C.3   401  GDP401      0.2158
     14  O3'       53.4270  -48.4260   44.6050 O.3   401  GDP401     -0.2175
     15  C2'       54.4290  -46.9790   42.9510 C.3   401  GDP401      0.2310
     16  O2'       53.4060  -46.0310   43.2680 O.3   401  GDP401     -0.2158
     17  C1'       55.7150  -46.8560   43.7620 C.3   401  GDP401      0.2293
     18  N9        56.8210  -46.0710   43.1610 N.pl3 401  GDP401     -0.2354
     19  C8        57.2360  -46.1390   41.8830 C.3   401  GDP401      0.2246
     20  N7        58.3000  -45.3390   41.6670 N.2   401  GDP401     -0.2322
     21  C5        58.6030  -44.7520   42.8320 C.2   401  GDP401      0.2182
     22  C6        59.6290  -43.7890   43.2990 C.1   401  GDP401      0.2372
     23  O6        60.4760  -43.3540   42.4830 O.2   401  GDP401     -0.2069
     24  N1        59.6160  -43.4180   44.5960 N.2   401  GDP401     -0.2485
     25  C2        58.6950  -43.9030   45.4550 C.1   401  GDP401      0.2531
     26  N2        58.7120  -43.5140   46.7480 N.pl3 401  GDP401     -0.0226
     27  N3        57.7300  -44.7840   45.0840 N.2   401  GDP401     -0.3074
     28  C4        57.6360  -45.2410   43.8150 C.2   401  GDP401      0.2300
@<TRIPOS>BOND
     1     4     1    2
     2     3     1    1
     3     1     2    1
     4     1     5    1
     5     8     6    2
     6     5     6    1
     7     6     7    1
     8     6     9    1
     9     9    10    1
    10    20    19    1
    11    20    21    2
    12    19    18    1
    13    10    11    1
    14    23    22    2
    15    21    22    1
    16    21    28    1
    17    15    16    1
    18    15    13    1
    19    15    17    1
    20    18    17    1
    21    18    28    1
    22    13    11    1
    23    13    14    1
    24    22    24    2
    25    11    12    1
    26    17    12    1
    27    28    27    2
    28    24    25    2
    29    27    25    2
    30    25    26    1
