@<TRIPOS>MOLECULE
4g5r_GDP_A_1.pdb
 28 30 0 0 0
SMALL
GASTEIGER

@<TRIPOS>ATOM
      1  PB       -57.2120  -52.0650  -37.9840 P.3   401  GDP401      0.5373
      2  O1B      -56.6660  -53.2950  -38.6650 O.2   401  GDP401     -0.2221
      3  O2B      -58.5080  -52.4140  -37.3020 O.3   401  GDP401     -0.1143
      4  O3B      -56.2180  -51.5630  -36.9630 O.3   401  GDP401     -0.1143
      5  O3A      -57.4860  -50.9400  -39.0960 O.3   401  GDP401     -0.2261
      6  PA       -56.2750  -50.1020  -39.7280 P.3   401  GDP401      0.2231
      7  O1A      -55.0470  -50.9610  -39.9070 O.2   401  GDP401     -0.5169
      8  O2A      -55.9730  -48.9030  -38.8630 O.3   401  GDP401     -0.4370
      9  O5'      -56.8330  -49.6540  -41.1610 O.3   401  GDP401     -0.3111
     10  C5'      -56.2430  -50.2530  -42.3110 C.3   401  GDP401      0.1813
     11  C4'      -56.5240  -49.3860  -43.5190 C.3   401  GDP401      0.1799
     12  O4'      -57.8230  -48.8100  -43.4120 O.3   401  GDP401     -0.3326
     13  C3'      -55.5290  -48.2430  -43.5840 C.3   401  GDP401      0.2158
     14  O3'      -54.7460  -48.3960  -44.7660 O.3   401  GDP401     -0.2175
     15  C2'      -56.3620  -46.9820  -43.6530 C.3   401  GDP401      0.2310
     16  O2'      -55.9350  -46.1210  -44.7090 O.3   401  GDP401     -0.2158
     17  C1'      -57.7600  -47.4910  -43.9460 C.3   401  GDP401      0.2293
     18  N9       -58.7920  -46.5910  -43.3810 N.pl3 401  GDP401     -0.2354
     19  C8       -59.2810  -46.5770  -42.1270 C.3   401  GDP401      0.2246
     20  N7       -60.2260  -45.6090  -41.9980 N.2   401  GDP401     -0.2322
     21  C5       -60.3500  -44.9920  -43.1870 C.2   401  GDP401      0.2182
     22  C6       -61.1610  -43.8890  -43.7460 C.1   401  GDP401      0.2372
     23  O6       -61.9880  -43.2880  -43.0350 O.2   401  GDP401     -0.2069
     24  N1       -60.9790  -43.5610  -45.0340 N.2   401  GDP401     -0.2485
     25  C2       -60.0910  -44.2000  -45.8190 C.1   401  GDP401      0.2531
     26  N2       -59.9630  -43.8160  -47.1110 N.pl3 401  GDP401     -0.0226
     27  N3       -59.3170  -45.2190  -45.3720 N.2   401  GDP401     -0.3074
     28  C4       -59.4030  -45.6470  -44.0920 C.2   401  GDP401      0.2300
@<TRIPOS>BOND
     1    26    25    1
     2    25    27    2
     3    25    24    2
     4    27    28    2
     5    24    22    2
     6    14    13    1
     7    16    15    1
     8    28    18    1
     9    28    21    1
    10    17    15    1
    11    17    12    1
    12    17    18    1
    13    22    21    1
    14    22    23    2
    15    15    13    1
    16    13    11    1
    17    11    12    1
    18    11    10    1
    19    18    19    1
    20    21    20    2
    21    10     9    1
    22    19    20    1
    23     9     6    1
    24     7     6    2
    25     6     5    1
    26     6     8    1
    27     5     1    1
    28     2     1    2
    29     1     3    1
    30     1     4    1
