@<TRIPOS>MOLECULE
4g5s_GDP_A_1.pdb
 28 30 0 0 0
SMALL
GASTEIGER

@<TRIPOS>ATOM
      1  PB       -56.6740   51.7380   37.0630 P.3   401  GDP401      0.5373
      2  O1B      -56.5330   53.0440   37.7970 O.3   401  GDP401     -0.1143
      3  O2B      -57.8900   51.7940   36.1780 O.2   401  GDP401     -0.2221
      4  O3B      -55.4540   51.4820   36.2230 O.3   401  GDP401     -0.1143
      5  O3A      -56.8450   50.5550   38.1280 O.3   401  GDP401     -0.2261
      6  PA       -55.5850   50.0700   38.9880 P.3   401  GDP401      0.2231
      7  O1A      -54.6570   51.2200   39.2570 O.3   401  GDP401     -0.4370
      8  O2A      -54.8530   48.9710   38.2660 O.2   401  GDP401     -0.5169
      9  O5'      -56.2370   49.5190   40.3510 O.3   401  GDP401     -0.3111
     10  C5'      -55.8020   50.0520   41.6020 C.3   401  GDP401      0.1813
     11  C4'      -55.6590   48.9530   42.6490 C.3   401  GDP401      0.1799
     12  O4'      -56.9080   48.3000   42.8600 O.3   401  GDP401     -0.3326
     13  C3'      -54.6690   47.8930   42.1890 C.3   401  GDP401      0.2158
     14  O3'      -53.4950   47.9320   43.0040 O.3   401  GDP401     -0.2175
     15  C2'      -55.3770   46.5650   42.3560 C.3   401  GDP401      0.2310
     16  O2'      -54.5910   45.6830   43.1600 O.3   401  GDP401     -0.2158
     17  C1'      -56.6810   46.9050   43.0580 C.3   401  GDP401      0.2293
     18  N9       -57.8090   46.1290   42.4930 N.pl3 401  GDP401     -0.2354
     19  C8       -58.2930   46.2240   41.2410 C.3   401  GDP401      0.2246
     20  N7       -59.3370   45.3770   41.0630 N.2   401  GDP401     -0.2322
     21  C5       -59.5370   44.7290   42.2240 C.2   401  GDP401      0.2182
     22  C6       -60.4770   43.7030   42.7280 C.1   401  GDP401      0.2372
     23  O6       -61.3600   43.2270   41.9840 O.2   401  GDP401     -0.2069
     24  N1       -60.3460   43.2980   43.9980 N.2   401  GDP401     -0.2485
     25  C2       -59.4000   43.7950   44.8160 C.1   401  GDP401      0.2531
     26  N2       -59.3310   43.3370   46.0880 N.pl3 401  GDP401     -0.0226
     27  N3       -58.5080   44.7370   44.4210 N.2   401  GDP401     -0.3074
     28  C4       -58.5300   45.2320   43.1630 C.2   401  GDP401      0.2300
@<TRIPOS>BOND
     1     3     1    2
     2     4     1    1
     3     1     2    1
     4     1     5    1
     5     5     6    1
     6     8     6    2
     7     6     7    1
     8     6     9    1
     9     9    10    1
    10    20    19    1
    11    20    21    2
    12    19    18    1
    13    10    11    1
    14    23    22    2
    15    13    15    1
    16    13    11    1
    17    13    14    1
    18    21    22    1
    19    21    28    1
    20    15    17    1
    21    15    16    1
    22    18    17    1
    23    18    28    1
    24    11    12    1
    25    22    24    2
    26    12    17    1
    27    28    27    2
    28    24    25    2
    29    27    25    2
    30    25    26    1
