@<TRIPOS>MOLECULE
4g67_SAH_A_1.pdb
 26 28 0 0 0
SMALL
GASTEIGER

@<TRIPOS>ATOM
      1  N         15.7020   -6.1980  -17.2870 N.3   501  SAH501     -0.1208
      2  CA        16.6520   -5.0830  -17.4620 C.3   501  SAH501      0.1952
      3  CB        17.6040   -5.3900  -18.6310 C.3   501  SAH501      0.0422
      4  CG        17.0270   -5.5010  -19.9900 C.3   501  SAH501      0.0597
      5  SD        18.3690   -5.8870  -21.1250 S.3   501  SAH501     -0.1375
      6  C         15.8530   -3.8020  -17.5990 C.2   501  SAH501      0.3819
      7  O         16.3970   -2.7300  -17.3580 O.co2 501  SAH501     -0.2441
      8  OXT       14.6530   -3.8190  -17.9070 O.co2 501  SAH501     -0.2441
      9  C5'       18.3420   -7.6600  -21.3820 C.3   501  SAH501      0.0899
     10  C4'       19.2620   -8.4390  -20.4460 C.3   501  SAH501      0.1630
     11  O4'       18.9640   -9.8520  -20.4540 O.3   501  SAH501     -0.3153
     12  C3'       20.7570   -8.3290  -20.7530 C.3   501  SAH501      0.2168
     13  O3'       21.4680   -7.9090  -19.5680 O.3   501  SAH501     -0.2175
     14  C2'       21.1440   -9.7260  -21.2160 C.3   501  SAH501      0.2569
     15  O2'       22.5090  -10.0760  -20.9270 O.3   501  SAH501     -0.2130
     16  C1'       20.1640  -10.5820  -20.4240 C.3   501  SAH501      0.3185
     17  N9        19.9440  -11.9240  -20.9960 N.pl3 501  SAH501     -0.1439
     18  C8        19.8020  -12.3230  -22.2820 C.3   501  SAH501      0.3377
     19  N7        19.6450  -13.6660  -22.3590 N.2   501  SAH501     -0.2095
     20  C5        19.6780  -14.1200  -21.0830 C.2   501  SAH501      0.2526
     21  C6        19.5540  -15.4080  -20.3990 C.2   501  SAH501      0.4393
     22  N6        19.3920  -16.5000  -21.1450 N.pl3 501  SAH501      0.2180
     23  N1        19.6450  -15.4520  -19.0490 N.2   501  SAH501      0.0021
     24  C2        19.8650  -14.3540  -18.3080 C.3   501  SAH501      0.5254
     25  N3        19.9170  -13.1230  -18.8790 N.2   501  SAH501     -0.0055
     26  C4        19.8620  -12.9830  -20.2060 C.2   501  SAH501      0.3518
@<TRIPOS>BOND
     1    19    18    1
     2    19    20    2
     3    18    17    1
     4     9     5    1
     5     9    10    1
     6    14    15    1
     7    14    12    1
     8    14    16    1
     9    22    21    1
    10     5     4    1
    11    20    21    1
    12    20    26    1
    13    17    16    1
    14    17    26    1
    15    12    10    1
    16    12    13    1
    17    11    10    1
    18    11    16    1
    19    21    23    2
    20    26    25    2
    21     4     3    1
    22    23    24    1
    23    25    24    1
    24     3     2    1
    25     8     6   ar
    26     6     2    1
    27     6     7   ar
    28     2     1    1
