@<TRIPOS>MOLECULE
4g68_XYS_A_1.pdb
 10 10 0 0 0
SMALL
GASTEIGER

@<TRIPOS>ATOM
      1  C1        -3.4270   23.8570   20.6840 C.2   800  XYS800      0.3506
      2  C2        -2.3300   24.4640   21.5900 C.3   800  XYS800      0.2823
      3  C3        -1.2390   23.4750   22.0250 C.3   800  XYS800      0.2270
      4  C4        -1.8590   22.1220   22.4160 C.3   800  XYS800      0.2287
      5  C5        -2.7290   21.5970   21.2750 C.3   800  XYS800      0.2439
      6  O1        -3.7470   24.5930   19.5460 O.2   800  XYS800     -0.2472
      7  O2        -1.7520   25.6330   21.1540 O.3   800  XYS800     -0.2082
      8  O3        -0.5440   24.0710   23.0590 O.3   800  XYS800     -0.2169
      9  O4        -0.9550   21.1920   22.9680 O.3   800  XYS800     -0.2163
     10  O5        -3.3760   22.4810   20.4850 O.3   800  XYS800     -0.4438
@<TRIPOS>BOND
     1     6     1    2
     2    10     1    1
     3    10     5    1
     4     1     2    1
     5     7     2    1
     6     5     4    1
     7     2     3    1
     8     3     4    1
     9     3     8    1
    10     4     9    1
