@<TRIPOS>MOLECULE
4g69_III_B_1.pdb
 48 48 0 0 0
SMALL
GASTEIGER

@<TRIPOS>ATOM
      1  N          0.8920  -13.2240   26.2650 N.3   2838  TYR2838    -0.1227
      2  CA         0.1790  -14.3860   26.7800 C.3   2838  TYR2838     0.1736
      3  C         -1.0340  -14.7640   25.9410 C.2   2838  TYR2838     0.2595
      4  O         -1.2000  -15.9390   25.6150 O.2   2838  TYR2838    -0.2718
      5  CB        -0.2160  -14.1960   28.2440 C.3   2838  TYR2838     0.0548
      6  CG         0.7680  -14.8250   29.2020 C.ar  2838  TYR2838    -0.0200
      7  CD1        0.7610  -16.1980   29.4340 C.ar  2838  TYR2838    -0.0009
      8  CD2        1.7110  -14.0510   29.8690 C.ar  2838  TYR2838    -0.0009
      9  CE1        1.6650  -16.7830   30.3100 C.ar  2838  TYR2838     0.0417
     10  CE2        2.6230  -14.6290   30.7490 C.ar  2838  TYR2838     0.0417
     11  CZ         2.5940  -15.9940   30.9640 C.ar  2838  TYR2838     0.1957
     12  OH         3.4930  -16.5710   31.8360 O.3   2838  TYR2838    -0.2866
     13  N         -1.8740  -13.7820   25.6010 N.am  2839  LEU2839    -0.1966
     14  CA        -3.0340  -14.0190   24.7380 C.3   2839  LEU2839     0.1728
     15  C         -2.7520  -13.5670   23.3170 C.2   2839  LEU2839     0.2616
     16  O         -2.3320  -12.4270   23.0920 O.2   2839  LEU2839    -0.2715
     17  CB        -4.2690  -13.2780   25.2630 C.3   2839  LEU2839     0.0311
     18  CG        -4.7560  -13.7250   26.6370 C.3   2839  LEU2839     0.0022
     19  CD1       -6.0080  -12.9450   27.0720 C.3   2839  LEU2839     0.0001
     20  CD2       -5.0080  -15.2320   26.6330 C.3   2839  LEU2839     0.0001
     21  N         -2.9610  -14.4660   22.3610 N.am  2840  VAL2840    -0.1963
     22  CA        -2.8490  -14.1150   20.9470 C.3   2840  VAL2840     0.1727
     23  C         -4.1020  -14.5600   20.1890 C.2   2840  VAL2840     0.2617
     24  O         -4.6110  -15.6520   20.4140 O.2   2840  VAL2840    -0.2715
     25  CB        -1.5950  -14.7380   20.2940 C.3   2840  VAL2840     0.0290
     26  CG1       -1.5450  -14.3880   18.8150 C.3   2840  VAL2840     0.0023
     27  CG2       -0.3340  -14.2450   20.9980 C.3   2840  VAL2840     0.0023
     28  N         -4.5920  -13.7240   19.2810 N.am  2841  THR2841    -0.1937
     29  CA        -5.8500  -14.0100   18.5970 C.3   2841  THR2841     0.2028
     30  C         -5.7460  -13.8200   17.0900 C.2   2841  THR2841     0.2643
     31  O         -5.3250  -12.7580   16.6240 O.2   2841  THR2841    -0.2714
     32  CB        -6.9860  -13.1220   19.1240 C.3   2841  THR2841     0.1808
     33  OG1       -7.1080  -13.3080   20.5390 O.3   2841  THR2841    -0.2208
     34  CG2       -8.3230  -13.4900   18.4560 C.3   2841  THR2841     0.0379
     35  N         -6.1220  -14.8570   16.3360 N.am  2842  SER2842    -0.1935
     36  CA        -6.2130  -14.7520   14.8860 C.3   2842  SER2842     0.2055
     37  C         -7.6110  -14.3150   14.4940 C.2   2842  SER2842     0.2644
     38  O         -8.5930  -14.7590   15.0770 O.2   2842  SER2842    -0.2714
     39  CB        -5.8590  -16.0800   14.2040 C.3   2842  SER2842     0.2130
     40  OG        -6.8010  -17.0860   14.5250 O.3   2842  SER2842    -0.2179
     41  N         -7.6850  -13.4310   13.5060 N.am  2843  VAL2843    -0.1941
     42  CA        -8.9500  -12.8790   13.0550 C.3   2843  VAL2843     0.1977
     43  C         -9.0140  -12.8540   11.5280 C.2   2843  VAL2843     0.3842
     44  O        -10.0380  -12.5000   10.9430 O.co2 2843  VAL2843    -0.2437
     45  CB        -9.1610  -11.4550   13.6210 C.3   2843  VAL2843     0.0311
     46  CG1       -9.2510  -11.5010   15.1350 C.3   2843  VAL2843     0.0023
     47  CG2       -8.0390  -10.5140   13.1810 C.3   2843  VAL2843     0.0023
     48  OXT       -8.0340  -13.1950   10.8490 O.co2 2843  VAL2843    -0.2437
@<TRIPOS>BOND
     1    48    43   ar
     2    44    43   ar
     3    43    42    1
     4    42    41    1
     5    42    45    1
     6    47    45    1
     7    41    37   am
     8    45    46    1
     9    39    40    1
    10    39    36    1
    11    37    36    1
    12    37    38    2
    13    36    35    1
    14    35    30   am
    15    31    30    2
    16    30    29    1
    17    34    32    1
    18    29    32    1
    19    29    28    1
    20    26    25    1
    21    32    33    1
    22    28    23   am
    23    23    24    2
    24    23    22    1
    25    25    22    1
    26    25    27    1
    27    22    21    1
    28    21    15   am
    29    16    15    2
    30    15    14    1
    31    14    17    1
    32    14    13    1
    33    17    18    1
    34    13     3   am
    35     4     3    2
    36     3     2    1
    37     1     2    1
    38    20    18    1
    39    18    19    1
    40     2     5    1
    41     5     6    1
    42     6     7   ar
    43     6     8   ar
    44     7     9   ar
    45     8    10   ar
    46     9    11   ar
    47    10    11   ar
    48    11    12    1
