@<TRIPOS>MOLECULE
4g6g_TRT_A_1.pdb
 16 16 0 0 0
SMALL
GASTEIGER

@<TRIPOS>ATOM
      1  C16       29.5530    9.0970  -13.4680 C.3   601  TRT601      0.2525
      2  O15       28.2930    9.7580  -13.3800 O.3   601  TRT601     -0.4714
      3  C12       27.8610   10.2410  -12.1740 C.ar  601  TRT601      0.1387
      4  C13       27.8330    9.4060  -11.0640 C.ar  601  TRT601      0.0366
      5  C14       27.3940    9.8950   -9.8400 C.ar  601  TRT601     -0.0012
      6  C11       27.4520   11.5640  -12.0600 C.ar  601  TRT601      0.0366
      7  C10       27.0140   12.0530  -10.8350 C.ar  601  TRT601     -0.0012
      8  C9        26.9850   11.2180   -9.7250 C.ar  601  TRT601     -0.0226
      9  C6        26.5140   11.7410   -8.4030 C.3   601  TRT601      0.0189
     10  C8        25.2080   12.4970   -8.6070 C.3   601  TRT601      0.0044
     11  C7        27.5800   12.6660   -7.8320 C.3   601  TRT601      0.0044
     12  C5        26.2940   10.5600   -7.4650 C.3   601  TRT601      0.0040
     13  C1        27.6310   10.1160   -6.8890 C.3   601  TRT601      0.0003
     14  C2        28.0200   11.0260   -5.7330 C.3   601  TRT601      0.0000
     15  C4        28.7030   10.1620   -7.9680 C.3   601  TRT601      0.0000
     16  C3        27.5040    8.6870   -6.3770 C.3   601  TRT601      0.0000
@<TRIPOS>BOND
     1     1     2    1
     2     2     3    1
     3     3     6   ar
     4     3     4   ar
     5     6     7   ar
     6     4     5   ar
     7     7     8   ar
     8     5     8   ar
     9     8     9    1
    10    10     9    1
    11     9    11    1
    12     9    12    1
    13    15    13    1
    14    12    13    1
    15    13    16    1
    16    13    14    1
