@<TRIPOS>MOLECULE
4g6h_NAD_A_1.pdb
 44 48 0 0 0
SMALL
GASTEIGER

@<TRIPOS>ATOM
      1  PA       -16.0410   19.4650    6.3550 P.3   602  NAD602      0.2189
      2  O1A      -16.7900   20.1410    5.2360 O.2   602  NAD602     -0.5170
      3  O2A      -16.7150   18.3940    7.1720 O.3   602  NAD602     -0.4371
      4  O5B      -14.6820   18.8580    5.7540 O.3   602  NAD602     -0.3112
      5  C5B      -13.5100   19.6610    5.6620 C.3   602  NAD602      0.1813
      6  C4B      -12.3180   18.7400    5.4610 C.3   602  NAD602      0.1821
      7  O4B      -11.2720   19.4220    4.7700 O.3   602  NAD602     -0.3135
      8  C3B      -11.7450   18.2740    6.7890 C.3   602  NAD602      0.2184
      9  O3B      -11.9410   16.8660    6.9240 O.3   602  NAD602     -0.2174
     10  C2B      -10.2650   18.5890    6.7330 C.3   602  NAD602      0.2570
     11  O2B       -9.5030   17.4200    7.0380 O.3   602  NAD602     -0.2130
     12  C1B      -10.0090   19.0190    5.2990 C.3   602  NAD602      0.3186
     13  N9A       -9.0350   20.1350    5.2350 N.pl3 602  NAD602     -0.1439
     14  C8A       -8.9790   21.1970    6.0570 C.3   602  NAD602      0.3377
     15  N7A       -7.9610   22.0250    5.7110 N.2   602  NAD602     -0.2095
     16  C5A       -7.3460   21.4880    4.6430 C.2   602  NAD602      0.2526
     17  C6A       -6.1980   21.8440    3.7760 C.2   602  NAD602      0.4393
     18  N6A       -5.4810   22.9720    3.9840 N.pl3 602  NAD602      0.2180
     19  N1A       -5.8900   21.0020    2.7680 N.2   602  NAD602      0.0021
     20  C2A       -6.5900   19.8750    2.5470 C.3   602  NAD602      0.5254
     21  N3A       -7.6390   19.4920    3.2920 N.2   602  NAD602     -0.0055
     22  C4A       -8.0590   20.2420    4.3360 C.2   602  NAD602      0.3518
     23  O3       -15.4950   20.6090    7.3440 O.3   602  NAD602     -0.2703
     24  PN       -15.5480   20.4230    8.9390 P.3   602  NAD602      0.2189
     25  O1N      -14.7570   19.1930    9.3020 O.2   602  NAD602     -0.5170
     26  O2N      -15.2070   21.7480    9.5700 O.3   602  NAD602     -0.4371
     27  O5D      -17.1030   20.1180    9.2040 O.3   602  NAD602     -0.3112
     28  C5D      -18.0410   21.1770    9.3720 C.3   602  NAD602      0.1813
     29  C4D      -18.4430   21.7370    8.0140 C.3   602  NAD602      0.1799
     30  O4D      -19.0730   20.7280    7.2220 O.3   602  NAD602     -0.3327
     31  C3D      -19.4380   22.8780    8.1580 C.3   602  NAD602      0.2158
     32  O3D      -18.8410   24.0980    7.7120 O.3   602  NAD602     -0.2175
     33  C2D      -20.6170   22.5250    7.2750 C.3   602  NAD602      0.2309
     34  O2D      -20.8600   23.5770    6.3380 O.3   602  NAD602     -0.2158
     35  C1D      -20.2150   21.2560    6.5420 C.3   602  NAD602      0.2263
     36  N1N      -21.3050   20.2790    6.5470 N.pl3 602  NAD602     -0.2787
     37  C2N      -21.6220   19.6480    5.4100 C.3   602  NAD602      0.1244
     38  C3N      -22.6470   18.7110    5.3760 C.2   602  NAD602      0.0544
     39  C7N      -22.9930   18.0090    4.0960 C.2   602  NAD602      0.2818
     40  O7N      -23.6990   17.0160    4.1330 O.2   602  NAD602     -0.2670
     41  N7N      -22.5160   18.4870    2.9490 N.am  602  NAD602     -0.0839
     42  C4N      -23.3480   18.4290    6.5370 C.2   602  NAD602      0.0033
     43  C5N      -23.0010   19.0970    7.7030 C.2   602  NAD602      0.0157
     44  C6N      -21.9660   20.0230    7.6800 C.2   602  NAD602      0.0633
@<TRIPOS>BOND
     1    20    19    1
     2    20    21    1
     3    19    17    2
     4    41    39   am
     5    21    22    2
     6    17    18    1
     7    17    16    1
     8    39    40    2
     9    39    38    1
    10    22    16    1
    11    22    13    1
    12    16    15    2
    13     7    12    1
    14     7     6    1
    15    13    12    1
    16    13    14    1
    17     2     1    2
    18    12    10    1
    19    38    37    1
    20    38    42    2
    21    37    36    1
    22     6     5    1
    23     6     8    1
    24     5     4    1
    25    15    14    1
    26     4     1    1
    27    34    33    1
    28     1     3    1
    29     1    23    1
    30    42    43    1
    31    35    36    1
    32    35    30    1
    33    35    33    1
    34    36    44    1
    35    10     8    1
    36    10    11    1
    37     8     9    1
    38    30    29    1
    39    33    31    1
    40    23    24    1
    41    44    43    2
    42    32    31    1
    43    29    31    1
    44    29    28    1
    45    24    27    1
    46    24    25    2
    47    24    26    1
    48    27    28    1
