@<TRIPOS>MOLECULE
4g6n_EK0_A_1.pdb
 29 31 0 0 0
SMALL
GASTEIGER

@<TRIPOS>ATOM
      1 CL         24.1910    9.2000   11.2820 Cl    401  EK0401     -0.0835
      2  C1        23.5900    7.9050   12.2810 C.ar  401  EK0401      0.0410
      3  C6        22.2820    7.4870   12.1330 C.ar  401  EK0401     -0.0428
      4  C5        21.8020    6.4760   12.9500 C.ar  401  EK0401     -0.0511
      5  C4        22.6200    5.8860   13.9110 C.ar  401  EK0401      0.0025
      6  C3        23.9340    6.3280   14.0340 C.ar  401  EK0401     -0.0511
      7  C2        24.4250    7.3330   13.2180 C.ar  401  EK0401     -0.0428
      8  C7        22.1060    4.8040   14.7780 C.ar  401  EK0401      0.0959
      9  C9        20.8480    4.7180   15.4430 C.ar  401  EK0401      0.0009
     10  C10       19.6890    5.6710   15.5730 C.3   401  EK0401     -0.0239
     11  C11       18.7330    5.2500   16.6830 C.3   401  EK0401     -0.0486
     12  C12       18.4230    3.7620   16.6350 C.3   401  EK0401     -0.0474
     13  C13       19.6800    2.9160   16.8350 C.3   401  EK0401     -0.0107
     14  C8        20.8220    3.4680   16.0480 C.ar  401  EK0401      0.0398
     15  N2        22.0360    2.8610   15.7540 N.ar  401  EK0401     -0.2807
     16  N1        22.8070    3.6860   14.9890 N.ar  401  EK0401     -0.1734
     17  H5        21.6490    7.9510   11.3790 H     401  EK0401      0.0632
     18  H4        20.7710    6.1480   12.8270 H     401  EK0401      0.0625
     19  H3        24.5910    5.8830   14.7770 H     401  EK0401      0.0625
     20  H2        25.4570    7.6660   13.3090 H     401  EK0401      0.0632
     21  H7        19.1630    5.7500   14.6220 H     401  EK0401      0.0314
     22  H6        20.0890    6.6650   15.7680 H     401  EK0401      0.0314
     23  H9        17.8140    5.8300   16.6170 H     401  EK0401      0.0269
     24  H8        19.1550    5.5030   17.6550 H     401  EK0401      0.0269
     25  H11       17.9510    3.5030   15.6880 H     401  EK0401      0.0269
     26  H10       17.6780    3.5220   17.3920 H     401  EK0401      0.0269
     27  H12       19.4930    1.8820   16.5500 H     401  EK0401      0.0328
     28  H13       19.9600    2.8820   17.8860 H     401  EK0401      0.0328
     29  H1        22.3770    1.9450   16.0250 H     401  EK0401      0.1885
@<TRIPOS>BOND
     1     1     2    1
     2    17     3    1
     3     3     2   ar
     4     3     4   ar
     5     2     7   ar
     6    18     4    1
     7     4     5   ar
     8     7    20    1
     9     7     6   ar
    10     5     6   ar
    11     5     8    1
    12     6    19    1
    13    21    10    1
    14     8    16   ar
    15     8     9   ar
    16    16    15   ar
    17     9    10    1
    18     9    14   ar
    19    10    22    1
    20    10    11    1
    21    25    12    1
    22    15    29    1
    23    15    14   ar
    24    14    13    1
    25    27    13    1
    26    23    11    1
    27    12    11    1
    28    12    13    1
    29    12    26    1
    30    11    24    1
    31    13    28    1
