@<TRIPOS>MOLECULE
4g6z_GLU_A_1.pdb
 10 9 0 0 0
SMALL
GASTEIGER

@<TRIPOS>ATOM
      1  N         29.5260   32.1020   30.7180 N.3   501  GLU501     -0.1208
      2  CA        29.6150   33.5390   30.4070 C.3   501  GLU501      0.1949
      3  C         30.1630   34.2830   31.6300 C.2   501  GLU501      0.3819
      4  O         30.2440   33.7200   32.7130 O.co2 501  GLU501     -0.2441
      5  CB        28.2480   34.1080   29.9800 C.3   501  GLU501      0.0424
      6  CG        27.8420   33.6010   28.5890 C.3   501  GLU501      0.1161
      7  CD        26.4870   34.0820   28.0890 C.2   501  GLU501      0.3649
      8  OE1       25.7150   34.7170   28.8610 O.co2 501  GLU501     -0.2457
      9  OE2       26.1890   33.7940   26.8930 O.co2 501  GLU501     -0.2457
     10  OXT       30.5410   35.4410   31.5390 O.co2 501  GLU501     -0.2441
@<TRIPOS>BOND
     1     9     7   ar
     2     7     6    1
     3     7     8   ar
     4     6     5    1
     5     5     2    1
     6     2     1    1
     7     2     3    1
     8    10     3   ar
     9     3     4   ar
