@<TRIPOS>MOLECULE
4g73_UQ5_A_1.pdb
 20 19 0 0 0
SMALL
GASTEIGER

@<TRIPOS>ATOM
      1  C1        17.7760   16.3920  -13.1720 C.3   601  UQ5601      0.0217
      2  C2        16.7080   17.4450  -12.8670 C.3   601  UQ5601      0.0043
      3  C3        16.3400   17.7580  -11.4110 C.3   601  UQ5601      0.0003
      4  C6        17.8380   15.9710  -14.6600 C.2   601  UQ5601     -0.0310
      5  C1M       17.5760   15.1820  -12.2690 C.3   601  UQ5601      0.0047
      6  C7        19.1690   15.4360  -15.2390 C.2   601  UQ5601     -0.0307
      7  C8        19.1720   14.5990  -16.5420 C.3   601  UQ5601      0.0257
      8  C9        19.7910   15.1780  -17.8290 C.3   601  UQ5601      0.0043
      9  C10       18.7530   15.9780  -18.5940 C.3   601  UQ5601      0.0003
     10  C11       20.3790   14.1260  -18.7620 C.3   601  UQ5601      0.0003
     11  C12       21.7310   14.3740  -19.4840 C.3   601  UQ5601      0.0000
     12  C13       21.7890   15.0330  -20.8970 C.3   601  UQ5601      0.0000
     13  C14       21.9400   14.1670  -22.1840 C.3   601  UQ5601      0.0000
     14  C15       20.5990   13.6310  -22.6950 C.3   601  UQ5601      0.0000
     15  C16       22.8020   14.7980  -23.3130 C.3   601  UQ5601      0.0000
     16  C17       24.1790   14.2060  -23.6150 C.3   601  UQ5601      0.0000
     17  C18       24.4230   13.4500  -24.9460 C.3   601  UQ5601      0.0000
     18  C19       25.5510   13.8890  -25.9050 C.3   601  UQ5601      0.0000
     19  C20       25.1550   13.7060  -27.3820 C.3   601  UQ5601      0.0000
     20  C21       26.8860   13.1920  -25.6430 C.3   601  UQ5601      0.0000
@<TRIPOS>BOND
     1    19    18    1
     2    18    20    1
     3    18    17    1
     4    17    16    1
     5    16    15    1
     6    15    13    1
     7    14    13    1
     8    13    12    1
     9    12    11    1
    10    11    10    1
    11    10     8    1
    12     9     8    1
    13     8     7    1
    14     7     6    1
    15     6     4    2
    16     4     1    1
    17     1     2    1
    18     1     5    1
    19     2     3    1
