@<TRIPOS>MOLECULE
4g73_NAD_A_1.pdb
 44 48 0 0 0
SMALL
GASTEIGER

@<TRIPOS>ATOM
      1  PA        47.9960   19.9010    6.3210 P.3   610  NAD610      0.2189
      2  O1A       47.0440   18.7240    6.7360 O.2   610  NAD610     -0.5170
      3  O2A       48.6620   20.6700    7.3750 O.3   610  NAD610     -0.4371
      4  O5B       49.1690   19.5100    5.4790 O.3   610  NAD610     -0.3112
      5  C5B       50.2650   20.3340    5.1460 C.3   610  NAD610      0.1813
      6  C4B       51.4800   19.4380    4.9540 C.3   610  NAD610      0.1821
      7  O4B       52.5670   20.0460    4.2510 O.3   610  NAD610     -0.3135
      8  C3B       51.9620   18.9310    6.2850 C.3   610  NAD610      0.2184
      9  O3B       51.5320   17.6330    6.5480 O.3   610  NAD610     -0.2174
     10  C2B       53.4370   19.1850    6.2840 C.3   610  NAD610      0.2570
     11  O2B       54.1970   18.0940    6.6860 O.3   610  NAD610     -0.2130
     12  C1B       53.7670   19.6530    4.8960 C.3   610  NAD610      0.3186
     13  N9A       54.7610   20.7360    4.8700 N.pl3 610  NAD610     -0.1439
     14  C8A       54.8710   21.7780    5.7900 C.3   610  NAD610      0.3377
     15  N7A       55.8810   22.6030    5.4500 N.2   610  NAD610     -0.2095
     16  C5A       56.4810   22.1510    4.2830 C.2   610  NAD610      0.2526
     17  C6A       57.5360   22.6120    3.5010 C.2   610  NAD610      0.4393
     18  N6A       58.2490   23.8030    3.8760 N.pl3 610  NAD610      0.2180
     19  N1A       57.8900   21.9370    2.3900 N.2   610  NAD610      0.0021
     20  C2A       57.2350   20.7890    2.0080 C.3   610  NAD610      0.5254
     21  N3A       56.1870   20.3000    2.7500 N.2   610  NAD610     -0.0055
     22  C4A       55.7820   20.9510    3.8820 C.2   610  NAD610      0.3518
     23  O3        47.4780   21.0560    5.5380 O.3   610  NAD610     -0.2703
     24  PN        45.9790   21.2450    5.0020 P.3   610  NAD610      0.2189
     25  O1N       45.5140   20.0340    4.2010 O.3   610  NAD610     -0.4371
     26  O2N       45.8580   22.4700    4.1280 O.2   610  NAD610     -0.5170
     27  O5D       45.1980   21.4300    6.3770 O.3   610  NAD610     -0.3112
     28  C5D       43.9300   22.0030    6.5290 C.3   610  NAD610      0.1813
     29  C4D       43.0880   21.1370    7.4550 C.3   610  NAD610      0.1799
     30  O4D       41.9270   20.7380    6.7650 O.3   610  NAD610     -0.3327
     31  C3D       43.8160   19.9150    7.9410 C.3   610  NAD610      0.2158
     32  O3D       43.8850   19.8030    9.3270 O.3   610  NAD610     -0.2175
     33  C2D       43.1070   18.7770    7.2900 C.3   610  NAD610      0.2309
     34  O2D       43.0060   17.6440    8.0910 O.3   610  NAD610     -0.2158
     35  C1D       41.7860   19.3450    6.8450 C.3   610  NAD610      0.2263
     36  N1N       41.3840   18.8790    5.5340 N.pl3 610  NAD610     -0.2787
     37  C2N       40.5720   17.7140    5.3510 C.3   610  NAD610      0.1244
     38  C3N       40.2210   17.3360    4.0340 C.2   610  NAD610      0.0544
     39  C7N       39.3620   16.1330    3.7620 C.2   610  NAD610      0.2818
     40  O7N       39.0320   15.4180    4.7360 O.2   610  NAD610     -0.2670
     41  N7N       38.9200   15.9110    2.3850 N.am  610  NAD610     -0.0839
     42  C4N       40.6550   18.1090    2.9230 C.2   610  NAD610      0.0033
     43  C5N       41.4660   19.2530    3.1170 C.2   610  NAD610      0.0157
     44  C6N       41.8180   19.6430    4.4150 C.2   610  NAD610      0.0633
@<TRIPOS>BOND
     1    20    19    1
     2    20    21    1
     3    41    39   am
     4    19    17    2
     5    21    22    2
     6    42    43    1
     7    42    38    2
     8    43    44    2
     9    17    18    1
    10    17    16    1
    11    39    38    1
    12    39    40    2
    13    22    16    1
    14    22    13    1
    15    38    37    1
    16    26    24    2
    17    25    24    1
    18     7    12    1
    19     7     6    1
    20    16    15    2
    21    44    36    1
    22    13    12    1
    23    13    14    1
    24    12    10    1
    25     6     5    1
    26     6     8    1
    27    24    23    1
    28    24    27    1
    29     5     4    1
    30    37    36    1
    31    15    14    1
    32     4     1    1
    33    36    35    1
    34    23     1    1
    35    10     8    1
    36    10    11    1
    37     8     9    1
    38     1     2    2
    39     1     3    1
    40    27    28    1
    41    28    29    1
    42    30    35    1
    43    30    29    1
    44    35    33    1
    45    33    31    1
    46    33    34    1
    47    29    31    1
    48    31    32    1
