@<TRIPOS>MOLECULE
4g74_UQ5_A_1.pdb
 23 23 0 0 0
SMALL
GASTEIGER

@<TRIPOS>ATOM
      1  C1        26.5950   16.3990    7.3290 C.ar  601  UQ5601      0.0234
      2  C2        27.7290   16.4870    8.1480 C.ar  601  UQ5601      0.2285
      3  C3        28.3400   17.7280    8.3680 C.ar  601  UQ5601      0.2140
      4  C4        27.8190   18.8840    7.7670 C.ar  601  UQ5601      0.2143
      5  C5        26.6800   18.7990    6.9440 C.ar  601  UQ5601      0.2321
      6  C6        26.0690   17.5600    6.7250 C.ar  601  UQ5601      0.0410
      7  C1M       25.9380   15.0640    7.0930 C.3   601  UQ5601      0.0346
      8  C3M       30.1680   16.6470    9.5140 C.3   601  UQ5601      0.2528
      9  C4M       28.4160   21.0400    6.9660 C.3   601  UQ5601      0.2528
     10  C7        24.8300   17.4600    5.8300 C.2   601  UQ5601     -0.0015
     11  C8        24.3090   16.0690    5.4830 C.2   601  UQ5601     -0.0260
     12  C9        22.9650   15.9720    4.7840 C.3   601  UQ5601      0.0264
     13  C10       21.9870   16.9190    5.4460 C.3   601  UQ5601      0.0050
     14  C11       23.0380   16.2640    3.2800 C.3   601  UQ5601      0.0300
     15  C12       22.4560   15.2220    2.3160 C.2   601  UQ5601     -0.0304
     16  C13       22.9220   15.2630    0.8550 C.2   601  UQ5601     -0.0310
     17  C14       22.5720   14.0750   -0.0440 C.3   601  UQ5601      0.0217
     18  C15       23.8170   13.4420   -0.6250 C.3   601  UQ5601      0.0047
     19  C16       21.6460   14.4580   -1.1830 C.3   601  UQ5601      0.0047
     20  O2        28.2420   15.3560    8.7360 O.3   601  UQ5601     -0.2835
     21  O3        29.4660   17.8140    9.1810 O.3   601  UQ5601     -0.4652
     22  O4        28.4190   20.0970    7.9810 O.3   601  UQ5601     -0.4652
     23  O5        26.1710   19.9350    6.3570 O.3   601  UQ5601     -0.2832
@<TRIPOS>BOND
     1    19    17    1
     2    18    17    1
     3    17    16    1
     4    16    15    2
     5    15    14    1
     6    14    12    1
     7    12    13    1
     8    12    11    1
     9    11    10    2
    10    10     6    1
    11    23     5    1
    12     6     5   ar
    13     6     1   ar
    14     5     4   ar
    15     9    22    1
    16     7     1    1
    17     1     2   ar
    18     4    22    1
    19     4     3   ar
    20     2     3   ar
    21     2    20    1
    22     3    21    1
    23    21     8    1
