@<TRIPOS>MOLECULE
4g74_TRT_A_1.pdb
 20 20 0 0 0
SMALL
GASTEIGER

@<TRIPOS>ATOM
      1  C20       15.7110   22.9910   -3.5370 C.3   603  TRT603      0.0346
      2  C19       16.4160   21.8010   -4.1880 C.3   603  TRT603      0.1424
      3  O18       16.1750   21.8330   -5.5990 O.3   603  TRT603     -0.3498
      4  C17       16.4290   20.5770   -6.2410 C.3   603  TRT603      0.1893
      5  C16       16.1320   20.6300   -7.7480 C.3   603  TRT603      0.2373
      6  O15       15.8210   19.3000   -8.1880 O.3   603  TRT603     -0.4727
      7  C12       16.0980   18.7800   -9.4400 C.ar  603  TRT603      0.1387
      8  C13       15.2230   18.9040  -10.5210 C.ar  603  TRT603      0.0366
      9  C14       15.5480   18.3330  -11.7530 C.ar  603  TRT603     -0.0012
     10  C11       17.2700   18.0490   -9.5970 C.ar  603  TRT603      0.0366
     11  C10       17.6000   17.4870  -10.8210 C.ar  603  TRT603     -0.0012
     12  C9        16.7390   17.6200  -11.9060 C.ar  603  TRT603     -0.0226
     13  C6        17.1370   16.9880  -13.2180 C.3   603  TRT603      0.0189
     14  C8        18.1940   17.8520  -13.9010 C.3   603  TRT603      0.0044
     15  C7        15.9130   16.8580  -14.1250 C.3   603  TRT603      0.0044
     16  C5        17.6820   15.6050  -12.8460 C.3   603  TRT603      0.0040
     17  C1        18.4170   14.8800  -13.9840 C.3   603  TRT603      0.0003
     18  C2        17.6540   13.8800  -14.8660 C.3   603  TRT603      0.0000
     19  C4        19.9520   14.8840  -14.0080 C.3   603  TRT603      0.0000
     20  C3        18.5550   13.7190  -12.9900 C.3   603  TRT603      0.0000
@<TRIPOS>BOND
     1    18    17    1
     2    15    13    1
     3    19    17    1
     4    17    20    1
     5    17    16    1
     6    14    13    1
     7    13    16    1
     8    13    12    1
     9    12     9   ar
    10    12    11   ar
    11     9     8   ar
    12    11    10   ar
    13     8     7   ar
    14    10     7   ar
    15     7     6    1
    16     6     5    1
    17     5     4    1
    18     4     3    1
    19     3     2    1
    20     2     1    1
