@<TRIPOS>MOLECULE
4g77_TLF_A_1.pdb
 18 19 0 0 0
SMALL
GASTEIGER

@<TRIPOS>ATOM
      1  C4         4.7500   11.1980   11.2570 C.ar  711  TLF711      0.0022
      2  C5         4.3160   10.6830   12.4440 C.ar  711  TLF711      0.0162
      3  C6         3.0820   10.0180   12.4340 C.ar  711  TLF711      0.0673
      4  C8         3.0770    9.6270   14.8680 C.ar  711  TLF711      0.0768
      5  C9         4.1700   10.4420   15.1950 C.ar  711  TLF711      0.0167
      6  C10        4.6360   10.4480   16.5000 C.ar  711  TLF711      0.0013
      7  C11        3.9750    9.6760   17.4590 C.ar  711  TLF711      0.0003
      8  C12        2.8810    8.8430   17.1830 C.ar  711  TLF711      0.0079
      9  C13        2.4030    8.7820   15.8960 C.ar  711  TLF711      0.0950
     10  C14        1.2360    7.8930   15.5210 C.2   711  TLF711      0.3890
     11  O16        1.4360    6.6430   15.3790 O.co2 711  TLF711     -0.2405
     12  O15        0.0770    8.4070   15.3530 O.co2 711  TLF711     -0.2405
     13  N7         2.5630    9.5300   13.6110 N.pl3 711  TLF711     -0.2126
     14  C1         2.3660    9.7610   11.2250 C.ar  711  TLF711      0.0040
     15  C17        1.0840    8.9600   11.2330 C.3   711  TLF711      0.0333
     16  C2         2.8510   10.1940    9.9830 C.ar  711  TLF711      0.0549
     17 CL          2.0260    9.9290    8.7040 Cl    711  TLF711     -0.0825
     18  C3         4.0340   10.9510   10.0390 C.ar  711  TLF711      0.0112
@<TRIPOS>BOND
     1    17    16    1
     2    16    18   ar
     3    16    14   ar
     4    18     1   ar
     5    14    15    1
     6    14     3   ar
     7     1     2   ar
     8     3     2   ar
     9     3    13    1
    10    13     4    1
    11     4     5   ar
    12     4     9   ar
    13     5     6   ar
    14    12    10   ar
    15    11    10   ar
    16    10     9    1
    17     9     8   ar
    18     6     7   ar
    19     8     7   ar
