@<TRIPOS>MOLECULE
4g7l_HEM_A_1.pdb
 43 50 0 0 0
SMALL
GASTEIGER

@<TRIPOS>ATOM
      1  CHA      -88.9290   -8.8020  -87.1600 C.2   301  HEM301      0.0000
      2  CHB      -89.0130  -11.8980  -90.9220 C.2   301  HEM301      0.0000
      3  CHC      -91.9040  -14.8820  -88.5110 C.2   301  HEM301      0.0000
      4  CHD      -92.0880  -11.5770  -84.9660 C.2   301  HEM301      0.0000
      5  C1A      -88.6570   -9.4170  -88.4390 C.ar  301  HEM301      0.0000
      6  C2A      -87.7320   -8.8130  -89.4240 C.ar  301  HEM301      0.0000
      7  C3A      -87.7600   -9.7330  -90.6030 C.ar  301  HEM301      0.0000
      8  C4A      -88.6700  -10.7870  -90.1290 C.ar  301  HEM301      0.0000
      9  CMA      -86.9350   -9.5480  -91.9070 C.3   301  HEM301      0.0000
     10  CAA      -86.9870   -7.4980  -89.1660 C.2   301  HEM301      0.0000
     11  CBA      -87.8090   -6.2020  -89.2780 C.2   301  HEM301      0.0000
     12  CGA      -87.1900   -4.8300  -88.8270 C.2   301  HEM301      0.0000
     13  O1A      -87.9590   -3.7490  -88.8260 O.co2 301  HEM301      0.0000
     14  O2A      -85.9780   -4.8470  -88.3720 O.co2 301  HEM301      0.0000
     15  C1B      -89.8730  -12.9790  -90.5570 C.2   301  HEM301      0.0000
     16  C2B      -90.0950  -14.0220  -91.5530 C.2   301  HEM301      0.0000
     17  C3B      -90.9830  -14.8680  -90.8680 C.2   301  HEM301      0.0000
     18  C4B      -91.1190  -14.2880  -89.5440 C.2   301  HEM301      0.0000
     19  CMB      -89.6290  -14.1200  -92.9880 C.3   301  HEM301      0.0000
     20  CAB      -91.6540  -16.1330  -91.1660 C.2   301  HEM301      0.0000
     21  CBB      -91.3650  -16.7640  -92.2780 C.2   301  HEM301      0.0000
     22  C1C      -92.1420  -14.2710  -87.2330 C.ar  301  HEM301      0.0000
     23  C2C      -93.0650  -14.9570  -86.2910 C.ar  301  HEM301      0.0000
     24  C3C      -93.1260  -13.9270  -85.2770 C.ar  301  HEM301      0.0000
     25  C4C      -92.3080  -12.7890  -85.6580 C.ar  301  HEM301      0.0000
     26  CMC      -93.6760  -16.3420  -86.2930 C.3   301  HEM301      0.0000
     27  CAC      -93.8130  -13.9700  -83.9980 C.2   301  HEM301      0.0000
     28  CBC      -94.8530  -14.6190  -83.8540 C.2   301  HEM301      0.0000
     29  C1D      -91.1830  -10.5310  -85.2360 C.2   301  HEM301      0.0000
     30  C2D      -91.0450   -9.4020  -84.3400 C.2   301  HEM301      0.0000
     31  C3D      -90.1150   -8.5860  -85.0160 C.2   301  HEM301      0.0000
     32  C4D      -89.8730   -9.3030  -86.2190 C.2   301  HEM301      0.0000
     33  CMD      -91.7100   -9.1810  -82.9810 C.3   301  HEM301      0.0000
     34  CAD      -89.5290   -7.2680  -84.5880 C.3   301  HEM301      0.0000
     35  CBD      -88.1830   -7.4650  -83.9420 C.3   301  HEM301      0.0000
     36  CGD      -87.6990   -6.1320  -83.3520 C.2   301  HEM301      0.0000
     37  O1D      -87.5320   -6.0160  -82.1300 O.co2 301  HEM301      0.0000
     38  O2D      -87.4090   -5.2630  -84.1820 O.co2 301  HEM301      0.0000
     39  NA       -89.1910  -10.6910  -88.8180 N.ar  301  HEM301      0.0000
     40  NB       -90.4340  -13.1780  -89.3660 N.2   301  HEM301      0.0000
     41  NC       -91.7340  -12.9640  -86.9050 N.ar  301  HEM301      0.0000
     42  ND       -90.4790  -10.4490  -86.3280 N.2   301  HEM301      0.0000
     43 FE        -90.4620  -11.8320  -87.8420 Fe    301  HEM301      0.0000
@<TRIPOS>BOND
     1    19    16    1
     2    21    20    2
     3     9     7    1
     4    16    17    2
     5    16    15    1
     6    20    17    1
     7     2    15    1
     8     2     8    2
     9    17    18    1
    10     7     8   ar
    11     7     6   ar
    12    15    40    2
    13     8    39   ar
    14    18    40    1
    15    18     3    2
    16     6    10    1
    17     6     5   ar
    18    40    43    1
    19    11    10    2
    20    11    12    1
    21    12    13   ar
    22    12    14   ar
    23    39     5   ar
    24    39    43    1
    25     3    22    1
    26     5     1    2
    27    43    41    1
    28    43    42    1
    29    22    41   ar
    30    22    23   ar
    31     1    32    1
    32    41    25   ar
    33    42    32    2
    34    42    29    1
    35    26    23    1
    36    23    24   ar
    37    32    31    1
    38    25    24   ar
    39    25     4    1
    40    24    27    1
    41    29     4    2
    42    29    30    1
    43    31    34    1
    44    31    30    2
    45    34    35    1
    46    30    33    1
    47    38    36   ar
    48    27    28    2
    49    35    36    1
    50    36    37   ar
