@<TRIPOS>MOLECULE
4g7o_NUC_I_1.pdb
 42 47 0 0 0
SMALL
GASTEIGER

@<TRIPOS>ATOM
      1  O5'       54.9570   -4.9900   85.7420 O.3     1  RG1        -0.2176
      2  C5'       54.3780   -4.5090   84.5380 C.3     1  RG1         0.2141
      3  C4'       54.0570   -3.0390   84.6290 C.3     1  RG1         0.1800
      4  O4'       54.5760   -2.3620   83.4610 O.3     1  RG1        -0.3326
      5  C3'       52.5760   -2.6770   84.6460 C.3     1  RG1         0.1858
      6  O3'       52.0010   -2.7700   85.9400 O.3     1  RG1        -0.3112
      7  C2'       52.5630   -1.2630   84.0820 C.3     1  RG1         0.2282
      8  O2'       52.9090   -0.3190   85.0870 O.3     1  RG1        -0.2159
      9  C1'       53.7010   -1.3270   83.0670 C.3     1  RG1         0.2292
     10  N9        53.2260   -1.6130   81.6980 N.pl3   1  RG1        -0.2354
     11  C8        53.4360   -2.7770   80.9960 C.3     1  RG1         0.2246
     12  N7        52.9410   -2.7530   79.7880 N.2     1  RG1        -0.2322
     13  C5        52.3760   -1.4940   79.6810 C.2     1  RG1         0.2182
     14  C6        51.6880   -0.9030   78.5950 C.1     1  RG1         0.2372
     15  O6        51.4410   -1.3960   77.4890 O.2     1  RG1        -0.2069
     16  N1        51.2800    0.3920   78.8960 N.2     1  RG1        -0.2485
     17  C2        51.5020    1.0270   80.0920 C.1     1  RG1         0.2531
     18  N2        51.0260    2.2760   80.1890 N.pl3   1  RG1        -0.0226
     19  N3        52.1420    0.4860   81.1160 N.2     1  RG1        -0.3074
     20  C4        52.5500   -0.7700   80.8440 C.2     1  RG1         0.2300
     21  P         50.5880   -3.5070   86.1490 P.3     2  RA2         0.2141
     22  OP1       50.4410   -3.7610   87.6050 O.3     2  RA2        -0.4373
     23  OP2       50.5550   -4.6610   85.2130 O.2     2  RA2        -0.5172
     24  O5'       49.5360   -2.4060   85.6860 O.3     2  RA2        -0.3114
     25  C5'       49.1560   -1.3470   86.5510 C.3     2  RA2         0.1813
     26  C4'       48.5700   -0.1980   85.7770 C.3     2  RA2         0.1821
     27  O4'       49.4100    0.0930   84.6270 O.3     2  RA2        -0.3135
     28  C3'       47.1990   -0.4380   85.1670 C.3     2  RA2         0.2184
     29  O3'       46.1340   -0.3030   86.1010 O.3     2  RA2        -0.2174
     30  C2'       47.1670    0.5740   84.0230 C.3     2  RA2         0.2570
     31  O2'       46.9270    1.8870   84.5040 O.3     2  RA2        -0.2130
     32  C1'       48.6110    0.5080   83.5370 C.3     2  RA2         0.3186
     33  N9        48.7700   -0.4520   82.4280 N.pl3   2  RA2        -0.1439
     34  C8        49.2690   -1.7360   82.4270 C.3     2  RA2         0.3377
     35  N7        49.2460   -2.2980   81.2370 N.2     2  RA2        -0.2095
     36  C5        48.6970   -1.3180   80.4090 C.2     2  RA2         0.2526
     37  C6        48.3980   -1.2770   79.0320 C.2     2  RA2         0.4393
     38  N6        48.6210   -2.2900   78.1970 N.pl3   2  RA2         0.2180
     39  N1        47.8480   -0.1470   78.5340 N.2     2  RA2         0.0021
     40  C2        47.6180    0.8780   79.3630 C.3     2  RA2         0.5254
     41  N3        47.8510    0.9650   80.6680 N.2     2  RA2        -0.0055
     42  C4        48.3980   -0.1780   81.1330 C.2     2  RA2         0.3518
@<TRIPOS>BOND
     1    15    14    2
     2    38    37    1
     3    39    37    2
     4    39    40    1
     5    14    16    2
     6    14    13    1
     7    16    17    2
     8    37    36    1
     9    40    41    1
    10    13    12    2
    11    13    20    1
    12    12    11    1
    13    17    18    1
    14    17    19    2
    15    36    42    1
    16    36    35    2
    17    41    42    2
    18    20    19    2
    19    20    10    1
    20    11    10    1
    21    42    33    1
    22    35    34    1
    23    10     9    1
    24    34    33    1
    25    33    32    1
    26     9     4    1
    27     9     7    1
    28     4     3    1
    29    32    30    1
    30    32    27    1
    31    30    31    1
    32    30    28    1
    33     7     5    1
    34     7     8    1
    35     2     3    1
    36     2     1    1
    37    27    26    1
    38     3     5    1
    39     5     6    1
    40    28    26    1
    41    28    29    1
    42    23    21    2
    43    24    21    1
    44    24    25    1
    45    26    25    1
    46     6    21    1
    47    21    22    1
