@<TRIPOS>MOLECULE
4g7p_HEM_A_1.pdb
 43 50 0 0 0
SMALL
GASTEIGER

@<TRIPOS>ATOM
      1  CHA      -41.5520    9.3790  -27.5990 C.2   300  HEM300      0.0000
      2  CHB      -41.1620   12.9770  -31.2140 C.2   300  HEM300      0.0000
      3  CHC      -38.4170   15.6740  -28.3860 C.2   300  HEM300      0.0000
      4  CHD      -38.4370   12.1420  -24.9590 C.2   300  HEM300      0.0000
      5  C1A      -41.6880   10.1930  -28.8060 C.ar  300  HEM300      0.0000
      6  C2A      -42.3950    9.7160  -30.0190 C.ar  300  HEM300      0.0000
      7  C3A      -42.2960   10.7240  -31.0530 C.ar  300  HEM300      0.0000
      8  C4A      -41.4830   11.8010  -30.3850 C.ar  300  HEM300      0.0000
      9  CMA      -42.9100   10.6670  -32.4710 C.3   300  HEM300      0.0000
     10  CAA      -43.1110    8.4270  -30.0370 C.3   300  HEM300      0.0000
     11  CBA      -44.4710    8.6790  -29.3930 C.3   300  HEM300      0.0000
     12  CGA      -45.2660    7.3810  -29.2610 C.2   300  HEM300      0.0000
     13  O1A      -44.6620    6.3320  -29.5260 O.co2 300  HEM300      0.0000
     14  O2A      -46.4610    7.4070  -28.8630 O.co2 300  HEM300      0.0000
     15  C1B      -40.3370   14.0510  -30.8140 C.2   300  HEM300      0.0000
     16  C2B      -40.1070   15.2390  -31.6510 C.2   300  HEM300      0.0000
     17  C3B      -39.3010   15.9780  -30.7280 C.2   300  HEM300      0.0000
     18  C4B      -39.1500   15.1480  -29.5280 C.2   300  HEM300      0.0000
     19  CMB      -40.6130   15.5670  -33.0200 C.3   300  HEM300      0.0000
     20  CAB      -38.7400   17.3350  -30.8880 C.2   300  HEM300      0.0000
     21  CBB      -39.1820   18.0580  -31.9000 C.2   300  HEM300      0.0000
     22  C1C      -38.1480   14.9580  -27.1730 C.ar  300  HEM300      0.0000
     23  C2C      -37.3040   15.5500  -26.1230 C.ar  300  HEM300      0.0000
     24  C3C      -37.3420   14.4520  -25.1460 C.ar  300  HEM300      0.0000
     25  C4C      -38.1100   13.3300  -25.6640 C.ar  300  HEM300      0.0000
     26  CMC      -36.6660   16.9030  -26.1600 C.3   300  HEM300      0.0000
     27  CAC      -36.6450   14.2980  -23.8890 C.2   300  HEM300      0.0000
     28  CBC      -35.6680   15.0620  -23.6050 C.2   300  HEM300      0.0000
     29  C1D      -39.2880   11.0780  -25.4100 C.2   300  HEM300      0.0000
     30  C2D      -39.5090    9.9530  -24.5040 C.2   300  HEM300      0.0000
     31  C3D      -40.4010    9.1460  -25.2920 C.2   300  HEM300      0.0000
     32  C4D      -40.6120    9.8720  -26.5480 C.2   300  HEM300      0.0000
     33  CMD      -39.0080    9.5830  -23.1280 C.3   300  HEM300      0.0000
     34  CAD      -40.9870    7.8370  -24.9090 C.3   300  HEM300      0.0000
     35  CBD      -42.4010    8.0310  -24.4530 C.3   300  HEM300      0.0000
     36  CGD      -42.8490    6.6830  -23.9030 C.2   300  HEM300      0.0000
     37  O1D      -43.1100    5.7990  -24.7290 O.co2 300  HEM300      0.0000
     38  O2D      -43.0420    6.4630  -22.6840 O.co2 300  HEM300      0.0000
     39  NA       -41.1770   11.5260  -28.9790 N.ar  300  HEM300      0.0000
     40  NB       -39.8300   14.0120  -29.5390 N.2   300  HEM300      0.0000
     41  NC       -38.7420   13.7230  -26.8310 N.ar  300  HEM300      0.0000
     42  ND       -39.9780   11.0760  -26.6060 N.2   300  HEM300      0.0000
     43 FE        -39.7600   12.5470  -28.0520 Fe    300  HEM300      0.0000
@<TRIPOS>BOND
     1    19    16    1
     2     9     7    1
     3    21    20    2
     4    16    15    1
     5    16    17    2
     6     2    15    1
     7     2     8    2
     8     7     8   ar
     9     7     6   ar
    10    20    17    1
    11    15    40    2
    12    17    18    1
    13     8    39   ar
    14    10     6    1
    15    10    11    1
    16     6     5   ar
    17    40    18    1
    18    40    43    1
    19    18     3    2
    20    13    12   ar
    21    11    12    1
    22    12    14   ar
    23    39     5   ar
    24    39    43    1
    25     5     1    2
    26     3    22    1
    27    43    41    1
    28    43    42    1
    29     1    32    1
    30    22    41   ar
    31    22    23   ar
    32    41    25   ar
    33    42    32    2
    34    42    29    1
    35    32    31    1
    36    26    23    1
    37    23    24   ar
    38    25    24   ar
    39    25     4    1
    40    29     4    2
    41    29    30    1
    42    31    34    1
    43    31    30    2
    44    24    27    1
    45    34    35    1
    46    37    36   ar
    47    30    33    1
    48    35    36    1
    49    36    38   ar
    50    27    28    2
