@<TRIPOS>MOLECULE
4g7t_HEM_A_1.pdb
 43 50 0 0 0
SMALL
GASTEIGER

@<TRIPOS>ATOM
      1  CHA      -41.5530    9.4040  -27.5830 C.2   301  HEM301      0.0000
      2  CHB      -41.2010   12.9430  -31.2550 C.2   301  HEM301      0.0000
      3  CHC      -38.4300   15.6560  -28.4350 C.2   301  HEM301      0.0000
      4  CHD      -38.4610   12.1260  -24.9640 C.2   301  HEM301      0.0000
      5  C1A      -41.6850   10.2010  -28.8020 C.ar  301  HEM301      0.0000
      6  C2A      -42.4260    9.7150  -29.9920 C.ar  301  HEM301      0.0000
      7  C3A      -42.3280   10.7100  -31.0370 C.ar  301  HEM301      0.0000
      8  C4A      -41.5160   11.7920  -30.4040 C.ar  301  HEM301      0.0000
      9  CMA      -42.9400   10.6550  -32.4350 C.3   301  HEM301      0.0000
     10  CAA      -43.1890    8.4450  -30.0290 C.3   301  HEM301      0.0000
     11  CBA      -44.5740    8.7140  -29.4150 C.3   301  HEM301      0.0000
     12  CGA      -45.4070    7.4350  -29.2660 C.2   301  HEM301      0.0000
     13  O1A      -44.8130    6.3570  -29.4000 O.co2 301  HEM301      0.0000
     14  O2A      -46.6340    7.4670  -29.0020 O.co2 301  HEM301      0.0000
     15  C1B      -40.3720   14.0270  -30.8520 C.2   301  HEM301      0.0000
     16  C2B      -40.1310   15.1990  -31.7000 C.2   301  HEM301      0.0000
     17  C3B      -39.3190   15.9440  -30.7780 C.2   301  HEM301      0.0000
     18  C4B      -39.1700   15.1260  -29.5730 C.2   301  HEM301      0.0000
     19  CMB      -40.6360   15.5330  -33.0720 C.3   301  HEM301      0.0000
     20  CAB      -38.7550   17.3000  -30.9350 C.2   301  HEM301      0.0000
     21  CBB      -39.1400   18.0100  -31.9690 C.2   301  HEM301      0.0000
     22  C1C      -38.1670   14.9350  -27.2040 C.ar  301  HEM301      0.0000
     23  C2C      -37.2890   15.4930  -26.1830 C.ar  301  HEM301      0.0000
     24  C3C      -37.3400   14.4210  -25.1830 C.ar  301  HEM301      0.0000
     25  C4C      -38.1490   13.3150  -25.6670 C.ar  301  HEM301      0.0000
     26  CMC      -36.6280   16.8300  -26.2100 C.3   301  HEM301      0.0000
     27  CAC      -36.6320   14.3010  -23.9370 C.2   301  HEM301      0.0000
     28  CBC      -35.6890   15.1000  -23.6260 C.2   301  HEM301      0.0000
     29  C1D      -39.3160   11.0560  -25.4030 C.2   301  HEM301      0.0000
     30  C2D      -39.5450    9.9290  -24.5020 C.2   301  HEM301      0.0000
     31  C3D      -40.4280    9.1330  -25.2900 C.2   301  HEM301      0.0000
     32  C4D      -40.6260    9.8830  -26.5290 C.2   301  HEM301      0.0000
     33  CMD      -39.0610    9.5590  -23.1340 C.3   301  HEM301      0.0000
     34  CAD      -41.0360    7.8290  -24.9250 C.3   301  HEM301      0.0000
     35  CBD      -42.4450    8.0210  -24.4760 C.3   301  HEM301      0.0000
     36  CGD      -42.8920    6.6840  -23.8990 C.2   301  HEM301      0.0000
     37  O1D      -43.1740    5.7880  -24.6910 O.co2 301  HEM301      0.0000
     38  O2D      -43.0260    6.4750  -22.6740 O.co2 301  HEM301      0.0000
     39  NA       -41.1960   11.5380  -28.9960 N.ar  301  HEM301      0.0000
     40  NB       -39.8550   13.9890  -29.5820 N.2   301  HEM301      0.0000
     41  NC       -38.7580   13.7170  -26.8500 N.ar  301  HEM301      0.0000
     42  ND       -39.9770   11.0630  -26.5940 N.2   301  HEM301      0.0000
     43 FE        -39.7970   12.5560  -28.0510 Fe    301  HEM301      0.0000
@<TRIPOS>BOND
     1    19    16    1
     2     9     7    1
     3    21    20    2
     4    16    15    1
     5    16    17    2
     6     2    15    1
     7     2     8    2
     8     7     8   ar
     9     7     6   ar
    10    20    17    1
    11    15    40    2
    12    17    18    1
    13     8    39   ar
    14    10     6    1
    15    10    11    1
    16     6     5   ar
    17    40    18    1
    18    40    43    1
    19    18     3    2
    20    11    12    1
    21    13    12   ar
    22    12    14   ar
    23    39     5   ar
    24    39    43    1
    25     5     1    2
    26     3    22    1
    27    43    41    1
    28    43    42    1
    29     1    32    1
    30    22    41   ar
    31    22    23   ar
    32    41    25   ar
    33    42    32    2
    34    42    29    1
    35    32    31    1
    36    26    23    1
    37    23    24   ar
    38    25    24   ar
    39    25     4    1
    40    29     4    2
    41    29    30    1
    42    31    34    1
    43    31    30    2
    44    24    27    1
    45    34    35    1
    46    37    36   ar
    47    30    33    1
    48    35    36    1
    49    27    28    2
    50    36    38   ar
