@<TRIPOS>MOLECULE
4g7u_HEM_A_1.pdb
 43 50 0 0 0
SMALL
GASTEIGER

@<TRIPOS>ATOM
      1  CHA      -41.3780    9.5040  -27.5410 C.2   300  HEM300      0.0000
      2  CHB      -41.0540   12.9500  -31.1900 C.2   300  HEM300      0.0000
      3  CHC      -38.3110   15.6850  -28.3350 C.2   300  HEM300      0.0000
      4  CHD      -38.2820   12.1790  -24.8970 C.2   300  HEM300      0.0000
      5  C1A      -41.5250   10.2310  -28.7960 C.ar  300  HEM300      0.0000
      6  C2A      -42.3390    9.7340  -29.9300 C.ar  300  HEM300      0.0000
      7  C3A      -42.2480   10.6680  -31.0070 C.ar  300  HEM300      0.0000
      8  C4A      -41.3760   11.7540  -30.4140 C.ar  300  HEM300      0.0000
      9  CMA      -42.9550   10.5240  -32.3860 C.3   300  HEM300      0.0000
     10  CAA      -43.0980    8.4450  -29.9660 C.3   300  HEM300      0.0000
     11  CBA      -44.4270    8.7070  -29.2790 C.3   300  HEM300      0.0000
     12  CGA      -45.2660    7.4560  -29.0360 C.2   300  HEM300      0.0000
     13  O1A      -44.7400    6.3810  -29.3460 O.co2 300  HEM300      0.0000
     14  O2A      -46.4250    7.5630  -28.5290 O.co2 300  HEM300      0.0000
     15  C1B      -40.2390   14.0290  -30.7160 C.2   300  HEM300      0.0000
     16  C2B      -39.9950   15.2160  -31.5590 C.2   300  HEM300      0.0000
     17  C3B      -39.2040   15.9740  -30.6270 C.2   300  HEM300      0.0000
     18  C4B      -39.0270   15.1440  -29.4290 C.2   300  HEM300      0.0000
     19  CMB      -40.4620   15.5140  -32.9540 C.3   300  HEM300      0.0000
     20  CAB      -38.6310   17.3120  -30.8100 C.2   300  HEM300      0.0000
     21  CBB      -39.0170   18.0050  -31.8610 C.2   300  HEM300      0.0000
     22  C1C      -38.0490   15.0090  -27.1130 C.ar  300  HEM300      0.0000
     23  C2C      -37.2060   15.6120  -26.0280 C.ar  300  HEM300      0.0000
     24  C3C      -37.2300   14.5100  -25.0520 C.ar  300  HEM300      0.0000
     25  C4C      -38.0170   13.3920  -25.5810 C.ar  300  HEM300      0.0000
     26  CMC      -36.5830   16.9680  -26.0220 C.3   300  HEM300      0.0000
     27  CAC      -36.5630   14.3550  -23.7780 C.2   300  HEM300      0.0000
     28  CBC      -35.4480   14.9570  -23.6430 C.2   300  HEM300      0.0000
     29  C1D      -39.1330   11.1260  -25.3230 C.2   300  HEM300      0.0000
     30  C2D      -39.4100    9.9440  -24.4340 C.2   300  HEM300      0.0000
     31  C3D      -40.2820    9.1940  -25.2480 C.2   300  HEM300      0.0000
     32  C4D      -40.4590    9.9670  -26.4830 C.2   300  HEM300      0.0000
     33  CMD      -38.9100    9.5880  -23.0650 C.3   300  HEM300      0.0000
     34  CAD      -40.9130    7.9080  -24.9070 C.3   300  HEM300      0.0000
     35  CBD      -42.3440    8.0430  -24.4690 C.3   300  HEM300      0.0000
     36  CGD      -42.7770    6.6780  -23.9530 C.2   300  HEM300      0.0000
     37  O1D      -43.0700    5.8190  -24.8140 O.co2 300  HEM300      0.0000
     38  O2D      -42.9390    6.4560  -22.7050 O.co2 300  HEM300      0.0000
     39  NA       -41.0260   11.5450  -29.0250 N.ar  300  HEM300      0.0000
     40  NB       -39.7030   14.0070  -29.4360 N.2   300  HEM300      0.0000
     41  NC       -38.5760   13.7410  -26.8100 N.ar  300  HEM300      0.0000
     42  ND       -39.7940   11.1300  -26.4850 N.2   300  HEM300      0.0000
     43 FE        -39.6610   12.5530  -27.9870 Fe    300  HEM300      0.0000
@<TRIPOS>BOND
     1    19    16    1
     2     9     7    1
     3    21    20    2
     4    16    15    1
     5    16    17    2
     6     2    15    1
     7     2     8    2
     8     7     8   ar
     9     7     6   ar
    10    20    17    1
    11    15    40    2
    12    17    18    1
    13     8    39   ar
    14    10     6    1
    15    10    11    1
    16     6     5   ar
    17    40    18    1
    18    40    43    1
    19    18     3    2
    20    13    12   ar
    21    11    12    1
    22    12    14   ar
    23    39     5   ar
    24    39    43    1
    25     5     1    2
    26     3    22    1
    27    43    41    1
    28    43    42    1
    29     1    32    1
    30    22    41   ar
    31    22    23   ar
    32    41    25   ar
    33    42    32    2
    34    42    29    1
    35    32    31    1
    36    23    26    1
    37    23    24   ar
    38    25    24   ar
    39    25     4    1
    40    29     4    2
    41    29    30    1
    42    31    34    1
    43    31    30    2
    44    24    27    1
    45    34    35    1
    46    37    36   ar
    47    35    36    1
    48    30    33    1
    49    36    38   ar
    50    27    28    2
