@<TRIPOS>MOLECULE
4g86_BNT_A_1.pdb
 14 14 0 0 0
SMALL
GASTEIGER

@<TRIPOS>ATOM
      1  CAA      -26.8040   21.1280   40.7130 C.3   301  BNT301      0.0048
      2  CAD      -25.8510   20.0140   40.9720 C.3   301  BNT301      0.0261
      3  CAC      -25.8360   19.0160   39.8640 C.3   301  BNT301      0.0048
      4  CAE      -24.4940   20.5480   41.2920 C.2   301  BNT301      0.0262
      5  CAF      -24.0140   20.3520   42.6850 C.2   301  BNT301      0.1981
      6  OAB      -24.7280   19.7690   43.4850 O.2   301  BNT301     -0.2864
      7  CAG      -22.6820   20.8530   43.1060 C.2   301  BNT301      0.0722
      8 BRAH      -22.0990   20.5550   44.9310 Br    301  BNT301     -0.0459
      9  CAL      -21.8870   21.5020   42.2080 C.2   301  BNT301      0.0269
     10  CAM      -20.5480   22.0070   42.6320 C.3   301  BNT301      0.0350
     11  CAK      -22.3620   21.7080   40.8070 C.2   301  BNT301      0.1982
     12  OAN      -21.6490   22.2930   40.0020 O.2   301  BNT301     -0.2864
     13  CAJ      -23.7040   21.2050   40.3840 C.2   301  BNT301      0.0722
     14 BRAI      -24.2970   21.4940   38.5600 Br    301  BNT301     -0.0459
@<TRIPOS>BOND
     1    14    13    1
     2     3     2    1
     3    12    11    2
     4    13    11    1
     5    13     4    2
     6     1     2    1
     7    11     9    1
     8     2     4    1
     9     4     5    1
    10     9    10    1
    11     9     7    2
    12     5     7    1
    13     5     6    2
    14     7     8    1
