@<TRIPOS>MOLECULE
4g89_SAH_A_1.pdb
 16 16 0 0 0
SMALL
GASTEIGER

@<TRIPOS>ATOM
      1  N          4.1260  -13.7830   27.8220 N.3   302  SAH302     -0.1208
      2  CA         3.9110  -13.0820   26.5460 C.3   302  SAH302      0.1952
      3  CB         2.8010  -13.6990   25.7200 C.3   302  SAH302      0.0422
      4  CG         3.5550  -14.5280   24.7450 C.3   302  SAH302      0.0597
      5  SD         4.1480  -15.7150   25.8920 S.3   302  SAH302     -0.1375
      6  C          3.3770  -11.7390   26.8020 C.2   302  SAH302      0.3819
      7  O          2.1530  -11.7120   26.7410 O.co2 302  SAH302     -0.2441
      8  OXT        4.0720  -10.7350   27.0130 O.co2 302  SAH302     -0.2441
      9  C5'        4.0710  -17.0420   24.7050 C.3   302  SAH302      0.0897
     10  C4'        5.0150  -18.0880   25.2340 C.3   302  SAH302      0.1589
     11  O4'        4.4300  -19.4090   25.2360 O.3   302  SAH302     -0.3499
     12  C3'        6.2470  -18.1530   24.3750 C.3   302  SAH302      0.2123
     13  O3'        7.3460  -18.0940   25.2920 O.3   302  SAH302     -0.2177
     14  C2'        5.9860  -19.4650   23.6400 C.3   302  SAH302      0.2139
     15  O2'        7.0930  -20.1040   23.1170 O.3   302  SAH302     -0.2176
     16  C1'        5.2510  -20.3670   24.5970 C.3   302  SAH302      0.1776
@<TRIPOS>BOND
     1    15    14    1
     2    14    12    1
     3    14    16    1
     4    12    10    1
     5    12    13    1
     6    16    11    1
     7     9    10    1
     8     9     5    1
     9     4     3    1
    10     4     5    1
    11    10    11    1
    12     3     2    1
    13     2     6    1
    14     2     1    1
    15     7     6   ar
    16     6     8   ar
