@<TRIPOS>MOLECULE
4g89_ADE_A_1.pdb
 10 11 0 0 0
SMALL
GASTEIGER

@<TRIPOS>ATOM
      1  N9         2.6770  -20.5500   23.3180 N.2   301  ADE301     -0.1914
      2  C8         1.5140  -20.9100   23.9480 C.3   301  ADE301      0.2618
      3  N7         0.4350  -20.6940   23.2340 N.2   301  ADE301     -0.2267
      4  C5         0.9210  -20.1500   22.0510 C.2   301  ADE301      0.2303
      5  C6         0.2840  -19.7110   20.8700 C.2   301  ADE301      0.4393
      6  N6        -1.0400  -19.7530   20.6710 N.pl3 301  ADE301      0.2185
      7  N1         1.0670  -19.2140   19.8850 N.2   301  ADE301     -0.0265
      8  C2         2.3930  -19.1760   20.0760 C.3   301  ADE301      0.4008
      9  N3         3.1010  -19.5450   21.1380 N.2   301  ADE301     -0.1640
     10  C4         2.3000  -20.0380   22.0980 C.1   301  ADE301      0.0579
@<TRIPOS>BOND
     1     7     8    1
     2     7     5    2
     3     8     9    1
     4     6     5    1
     5     5     4    1
     6     9    10    2
     7     4    10    1
     8     4     3    2
     9    10     1    2
    10     3     2    1
    11     1     2    1
