@<TRIPOS>MOLECULE
4g8a_LP5_C_1.pdb
 48 48 0 0 0
SMALL
GASTEIGER

@<TRIPOS>ATOM
      1  O48      -38.2080    6.5380  -40.7820 O.3   203  LP5203     -0.1145
      2  P45      -39.0320    6.1220  -41.9410 P.3   203  LP5203      0.5345
      3  O46      -38.3910    4.9050  -42.7920 O.2   203  LP5203     -0.2223
      4  O47      -40.5360    5.5690  -41.5630 O.3   203  LP5203     -0.1145
      5  O1       -39.2860    7.3940  -42.9360 O.3   203  LP5203     -0.2424
      6  C1       -38.7620    7.5360  -44.2940 C.3   203  LP5203      0.2686
      7  C2       -38.5160    8.9860  -44.5740 C.3   203  LP5203      0.1942
      8  N2       -37.6320    9.4950  -43.5450 N.am  203  LP5203     -0.1981
      9  C7       -36.6480   10.3220  -43.8410 C.2   203  LP5203      0.2442
     10  C8       -35.8670   10.7660  -42.6310 C.3   203  LP5203      0.1196
     11  C16      -34.5510   11.4060  -43.0200 C.3   203  LP5203      0.1611
     12  O44      -33.4990   10.4780  -42.7680 O.3   203  LP5203     -0.2226
     13  C17      -34.4210   12.6170  -42.1230 C.3   203  LP5203      0.0334
     14  C18      -33.0930   13.3150  -42.3460 C.3   203  LP5203      0.0026
     15  C19      -33.1270   14.0770  -43.6660 C.3   203  LP5203      0.0001
     16  C20      -34.1050   15.2250  -43.5670 C.3   203  LP5203      0.0000
     17  C21      -33.3080   16.4940  -43.5040 C.3   203  LP5203      0.0000
     18  C22      -33.8150   17.4290  -44.5870 C.3   203  LP5203      0.0000
     19  C23      -34.1740   18.7830  -43.9750 C.3   203  LP5203      0.0000
     20  C24      -32.9000   19.5760  -43.7030 C.3   203  LP5203      0.0000
     21  C25      -33.2370   20.8930  -42.9970 C.3   203  LP5203      0.0000
     22  C26      -33.5070   20.6350  -41.5130 C.3   203  LP5203      0.0000
     23  C27      -33.0120   21.7870  -40.6420 C.3   203  LP5203      0.0000
     24  O7       -36.3800   10.6980  -44.9770 O.2   203  LP5203     -0.2733
     25  C3       -39.8120    9.8250  -44.4810 C.3   203  LP5203      0.2262
     26  C4       -40.9370    9.2220  -45.2980 C.3   203  LP5203      0.2231
     27  C5       -41.0160    7.7130  -45.0910 C.3   203  LP5203      0.1845
     28  O5       -39.7240    7.1090  -45.2370 O.3   203  LP5203     -0.3258
     29  C6       -41.7490    7.1030  -46.2600 C.3   203  LP5203      0.2142
     30  O6       -40.7890    7.0080  -47.3260 O.3   203  LP5203     -0.2176
     31  O4       -42.1590    9.8620  -44.8890 O.3   203  LP5203     -0.2165
     32  O3       -39.6030   11.1270  -45.0360 O.3   203  LP5203     -0.4475
     33  C28      -39.0970   12.1500  -44.2910 C.2   203  LP5203      0.3196
     34  O42      -39.1210   12.2110  -43.0660 O.2   203  LP5203     -0.2500
     35  C29      -38.4190   13.2430  -45.1340 C.3   203  LP5203      0.1423
     36  C30      -38.1280   14.4920  -44.3150 C.3   203  LP5203      0.1631
     37  O43      -39.3490   14.9890  -43.7480 O.3   203  LP5203     -0.2225
     38  C31      -37.4780   15.5520  -45.2020 C.3   203  LP5203      0.0335
     39  C32      -38.5310   16.3010  -46.0150 C.3   203  LP5203      0.0026
     40  C33      -38.0740   16.4070  -47.4590 C.3   203  LP5203      0.0001
     41  C34      -38.1240   17.8650  -47.9140 C.3   203  LP5203      0.0000
     42  C35      -38.6790   17.9210  -49.3420 C.3   203  LP5203      0.0000
     43  C36      -39.0180   19.3740  -49.7010 C.3   203  LP5203      0.0000
     44  C37      -38.5600   19.6740  -51.1380 C.3   203  LP5203      0.0000
     45  C38      -37.2400   20.4490  -51.1220 C.3   203  LP5203      0.0000
     46  C39      -36.6120   20.3960  -52.5120 C.3   203  LP5203      0.0000
     47  C40      -35.1400   20.7930  -52.4210 C.3   203  LP5203      0.0000
     48  C41      -34.4630   20.5340  -53.7600 C.3   203  LP5203      0.0000
@<TRIPOS>BOND
     1    48    47    1
     2    46    47    1
     3    46    45    1
     4    44    45    1
     5    44    43    1
     6    43    42    1
     7    42    41    1
     8    41    40    1
     9    40    39    1
    10    30    29    1
    11    29    27    1
    12    39    38    1
    13    26    27    1
    14    26    31    1
    15    26    25    1
    16    28    27    1
    17    28     6    1
    18    38    36    1
    19    35    36    1
    20    35    33    1
    21    32    25    1
    22    32    33    1
    23    24     9    2
    24    18    19    1
    25    18    17    1
    26     7    25    1
    27     7     6    1
    28     7     8    1
    29    36    37    1
    30     6     5    1
    31    33    34    2
    32    19    20    1
    33     9     8   am
    34     9    10    1
    35    20    21    1
    36    15    16    1
    37    15    14    1
    38    16    17    1
    39    11    12    1
    40    11    10    1
    41    11    13    1
    42    21    22    1
    43     5     2    1
    44     3     2    2
    45    14    13    1
    46     2     4    1
    47     2     1    1
    48    22    23    1
