@<TRIPOS>MOLECULE
4g8a_LP4_C_1.pdb
 45 45 0 0 0
SMALL
GASTEIGER

@<TRIPOS>ATOM
      1  O48      -43.0870    4.9970  -53.7690 O.3   202  LP4202     -0.1145
      2  P45      -42.5550    6.4040  -53.7560 P.3   202  LP4202      0.5327
      3  O46      -41.1380    6.5950  -54.1480 O.3   202  LP4202     -0.1145
      4  O47      -43.4540    7.3320  -54.6180 O.2   202  LP4202     -0.2224
      5  O4       -42.7630    7.1540  -52.3610 O.3   202  LP4202     -0.2664
      6  C4       -41.9530    6.8160  -51.2360 C.3   202  LP4202      0.1973
      7  C5       -42.8990    6.4920  -50.1300 C.3   202  LP4202      0.1793
      8  O5       -42.1650    6.1660  -48.9590 O.3   202  LP4202     -0.3490
      9  C6       -43.6710    5.2510  -50.4730 C.3   202  LP4202      0.2141
     10  O6       -44.5950    5.0550  -49.4070 O.3   202  LP4202     -0.2176
     11  C3       -41.0070    7.9840  -50.8380 C.3   202  LP4202      0.2209
     12  O3       -39.8720    7.9870  -51.6990 O.3   202  LP4202     -0.4477
     13  C28      -39.7570    9.0630  -52.5080 C.2   202  LP4202      0.3196
     14  O42      -40.2650   10.1680  -52.2840 O.2   202  LP4202     -0.2500
     15  C29      -38.9370    8.7690  -53.7720 C.3   202  LP4202      0.1423
     16  C30      -37.8860    9.8270  -54.0970 C.3   202  LP4202      0.1631
     17  O43      -37.0080   10.0660  -52.9940 O.3   202  LP4202     -0.2225
     18  C31      -38.5470   11.1330  -54.5200 C.3   202  LP4202      0.0335
     19  C32      -37.4570   12.1210  -54.9530 C.3   202  LP4202      0.0026
     20  C33      -36.8540   11.6880  -56.2960 C.3   202  LP4202      0.0001
     21  C34      -36.0750   12.8580  -56.8930 C.3   202  LP4202      0.0000
     22  C35      -35.7870   12.5360  -58.3600 C.3   202  LP4202      0.0000
     23  C36      -35.0240   13.6760  -59.0660 C.3   202  LP4202      0.0000
     24  C37      -34.3550   13.1110  -60.3280 C.3   202  LP4202      0.0000
     25  C38      -33.9170   14.2290  -61.2800 C.3   202  LP4202      0.0000
     26  C39      -33.5420   13.6190  -62.6420 C.3   202  LP4202      0.0000
     27  C40      -32.4430   14.4530  -63.2920 C.3   202  LP4202      0.0000
     28  C41      -32.8330   14.7500  -64.7350 C.3   202  LP4202      0.0000
     29  C2       -40.4410    7.8200  -49.4270 C.3   202  LP4202      0.1671
     30  C1       -41.5510    7.3860  -48.4860 C.3   202  LP4202      0.1676
     31  N2       -39.9320    9.1070  -48.9380 N.am  202  LP4202     -0.2007
     32  C7       -38.6390    9.4410  -48.8040 C.2   202  LP4202      0.2441
     33  O7       -37.6910    8.7220  -49.0950 O.2   202  LP4202     -0.2733
     34  C8       -38.4090   10.8340  -48.2200 C.3   202  LP4202      0.1196
     35  C16      -37.6300   11.7180  -49.1920 C.3   202  LP4202      0.1611
     36  O44      -36.4180   12.0840  -48.5430 O.3   202  LP4202     -0.2226
     37  C17      -38.4000   12.9980  -49.5100 C.3   202  LP4202      0.0334
     38  C18      -38.6060   13.1530  -51.0180 C.3   202  LP4202      0.0026
     39  C19      -38.4340   14.6220  -51.4120 C.3   202  LP4202      0.0001
     40  C20      -39.1700   14.9610  -52.7170 C.3   202  LP4202      0.0000
     41  C21      -38.3680   16.0540  -53.4570 C.3   202  LP4202      0.0000
     42  C22      -39.1890   16.7240  -54.5790 C.3   202  LP4202      0.0000
     43  C23      -38.2720   17.7130  -55.3370 C.3   202  LP4202      0.0000
     44  C24      -39.0890   18.8730  -55.9520 C.3   202  LP4202      0.0000
     45  C25      -38.2020   20.1120  -56.2070 C.3   202  LP4202      0.0000
@<TRIPOS>BOND
     1    28    27    1
     2    27    26    1
     3    26    25    1
     4    25    24    1
     5    24    23    1
     6    23    22    1
     7    22    21    1
     8    21    20    1
     9    20    19    1
    10    45    44    1
    11    44    43    1
    12    43    42    1
    13    19    18    1
    14     4     2    2
    15    42    41    1
    16    18    16    1
    17     3     2    1
    18    16    15    1
    19    16    17    1
    20    15    13    1
    21     1     2    1
    22     2     5    1
    23    41    40    1
    24    40    39    1
    25    13    14    2
    26    13    12    1
    27     5     6    1
    28    12    11    1
    29    39    38    1
    30     6    11    1
    31     6     7    1
    32    38    37    1
    33    11    29    1
    34     9     7    1
    35     9    10    1
    36     7     8    1
    37    37    35    1
    38    29    31    1
    39    29    30    1
    40    35    36    1
    41    35    34    1
    42    33    32    2
    43     8    30    1
    44    31    32   am
    45    32    34    1
