@<TRIPOS>MOLECULE
4g8b_HL6_A_1.pdb
 14 14 0 0 0
SMALL
GASTEIGER

@<TRIPOS>ATOM
      1  N         39.1860   67.9980   17.7100 N.am  301  HL6301     -0.1956
      2  C1        37.9170   69.5610   19.1500 C.2   301  HL6301      0.3371
      3  O1        36.7520   69.2530   18.8850 O.2   301  HL6301     -0.2482
      4  C2        39.7300   70.9530   19.7550 C.3   301  HL6301      0.2109
      5  O2        38.3030   70.8360   19.7020 O.3   301  HL6301     -0.4473
      6  C3        40.2990   69.6870   19.0990 C.3   301  HL6301      0.0805
      7  O3        38.9110   66.2150   18.9780 O.2   301  HL6301     -0.2733
      8  C4        39.1330   68.7060   18.9750 C.3   301  HL6301      0.1971
      9  C5        39.0470   66.6910   17.8590 C.2   301  HL6301      0.2418
     10  C6        39.0560   65.8450   16.6070 C.3   301  HL6301      0.0868
     11  C7        39.8860   64.5840   16.8080 C.3   301  HL6301      0.0096
     12  C8        41.3650   64.8850   16.6190 C.3   301  HL6301      0.0005
     13  C9        42.0050   63.8570   15.6910 C.3   301  HL6301      0.0000
     14  C10       41.9620   62.4660   16.2850 C.3   301  HL6301      0.0000
@<TRIPOS>BOND
     1    13    14    1
     2    13    12    1
     3    10    11    1
     4    10     9    1
     5    12    11    1
     6     1     9   am
     7     1     8    1
     8     9     7    2
     9     3     2    2
    10     8     6    1
    11     8     2    1
    12     6     4    1
    13     2     5    1
    14     5     4    1
