@<TRIPOS>MOLECULE
4g8c_C6L_A_1.pdb
 15 14 0 0 0
SMALL
GASTEIGER

@<TRIPOS>ATOM
      1  O4       -12.1770    1.0420   22.5880 O.2   301  C6L301     -0.2733
      2  C5       -12.3720    1.6270   23.6430 C.2   301  C6L301      0.2418
      3  C6       -12.3250    0.8820   24.9580 C.3   301  C6L301      0.0868
      4  C7       -13.3050   -0.2870   24.9440 C.3   301  C6L301      0.0096
      5  C8       -14.7390    0.2050   24.7790 C.3   301  C6L301      0.0005
      6  C9       -15.7410   -0.9390   24.8750 C.3   301  C6L301      0.0000
      7  C10      -17.1610   -0.4170   24.8670 C.3   301  C6L301      0.0000
      8  N1       -12.6340    2.9330   23.7050 N.am  301  C6L301     -0.1955
      9  C3       -12.6970    3.7440   22.4960 C.3   301  C6L301      0.2003
     10  C4       -11.3900    4.4350   22.2080 C.2   301  C6L301      0.3843
     11  O2       -10.3280    3.9690   22.6850 O.co2 301  C6L301     -0.2437
     12  O1       -11.4140    5.4620   21.4960 O.co2 301  C6L301     -0.2437
     13  C2       -13.8020    4.7730   22.7320 C.3   301  C6L301      0.0688
     14  C1       -15.1770    4.1160   22.8230 C.3   301  C6L301      0.1845
     15  O3       -15.4130    3.6960   24.1710 O.3   301  C6L301     -0.2203
@<TRIPOS>BOND
     1    12    10   ar
     2    10     9    1
     3    10    11   ar
     4     9    13    1
     5     9     8    1
     6     1     2    2
     7    13    14    1
     8    14    15    1
     9     2     8   am
    10     2     3    1
    11     5     6    1
    12     5     4    1
    13     7     6    1
    14     4     3    1
