@<TRIPOS>MOLECULE
4g8h_LCF_A_1.pdb
 27 30 0 0 0
SMALL
GASTEIGER

@<TRIPOS>ATOM
      1  C1       -20.2880   14.2300   12.9360 C.ar  711  LCF711      0.0481
      2  C2       -17.8960   14.4650   13.8450 C.3   711  LCF711      0.1057
      3  C3       -17.5060   15.3110   15.0710 C.3   711  LCF711      0.0263
      4  C4       -18.7590   15.9860   15.6550 C.3   711  LCF711      0.0456
      5  C5       -19.8010   15.4700   14.7090 C.ar  711  LCF711      0.0368
      6  C6       -21.2680   15.6420   14.5720 C.ar  711  LCF711      0.0127
      7  C7       -21.5910   14.8100   13.3840 C.ar  711  LCF711      0.0133
      8  N        -19.3340   14.6780   13.7700 N.ar  711  LCF711     -0.3334
      9  C8       -20.0950   13.3380   11.7960 C.3   711  LCF711      0.1576
     10  C9       -19.8510   14.3160   10.6310 C.2   711  LCF711      0.3707
     11  O1       -20.5940   14.7710    9.7970 O.co2 711  LCF711     -0.2452
     12  O2       -18.6680   14.7870   10.4980 O.co2 711  LCF711     -0.2452
     13  C10      -16.4150   16.3330   14.8040 C.3   711  LCF711      0.0023
     14  C11      -16.9110   14.2340   15.9470 C.3   711  LCF711      0.0023
     15  C12      -21.9940   16.5620   15.5340 C.ar  711  LCF711      0.0011
     16  C13      -23.3440   16.6580   15.2030 C.ar  711  LCF711      0.0000
     17  C14      -24.1870   17.4670   15.9450 C.ar  711  LCF711      0.0000
     18  C15      -23.6800   18.2130   17.0030 C.ar  711  LCF711      0.0000
     19  C16      -22.3430   18.1340   17.2760 C.ar  711  LCF711      0.0000
     20  C17      -21.4890   17.3080   16.5910 C.ar  711  LCF711      0.0000
     21  C18      -22.8480   14.4640   12.6510 C.ar  711  LCF711      0.0012
     22  C19      -22.9910   14.7220   11.3050 C.ar  711  LCF711      0.0009
     23  C20      -24.1310   14.3580   10.6230 C.ar  711  LCF711      0.0114
     24  C21      -25.1390   13.6930   11.2990 C.ar  711  LCF711      0.0577
     25  C22      -25.0080   13.4170   12.6420 C.ar  711  LCF711      0.0114
     26  C23      -23.8600   13.7950   13.3090 C.ar  711  LCF711      0.0009
     27 CL1       -26.6310   13.1890   10.4680 Cl    711  LCF711     -0.0822
@<TRIPOS>BOND
     1    11    10   ar
     2    27    24    1
     3    12    10   ar
     4    23    24   ar
     5    23    22   ar
     6    10     9    1
     7    24    25   ar
     8    22    21   ar
     9     9     1    1
    10    25    26   ar
    11    21    26   ar
    12    21     7    1
    13     1     7   ar
    14     1     8   ar
    15     7     6   ar
    16     8     2    1
    17     8     5   ar
    18     2     3    1
    19     6     5   ar
    20     6    15    1
    21     5     4    1
    22    13     3    1
    23     3     4    1
    24     3    14    1
    25    16    15   ar
    26    16    17   ar
    27    15    20   ar
    28    17    18   ar
    29    20    19   ar
    30    18    19   ar
