@<TRIPOS>MOLECULE
4g8m_G8M_A_1.pdb
 12 12 0 0 0
SMALL
GASTEIGER

@<TRIPOS>ATOM
      1  CD         5.7850   25.8130   20.9120 C.2   301  G8M301      0.3644
      2  OE1        4.8530   25.1800   20.3670 O.co2 301  G8M301     -0.2457
      3  OE2        6.3420   25.3880   21.9490 O.co2 301  G8M301     -0.2457
      4  CG         6.2570   27.1350   20.2690 C.3   301  G8M301      0.1053
      5  C          7.6860   25.4090   17.6040 C.2   301  G8M301      0.3819
      6  OXT        6.4760   25.4020   17.3190 O.co2 301  G8M301     -0.2441
      7  O          8.5500   25.2250   16.7240 O.co2 301  G8M301     -0.2441
      8  CA         8.1300   25.6480   19.0650 C.3   301  G8M301      0.1948
      9  N          9.5980   25.4850   19.1450 N.3   301  G8M301     -0.1208
     10  CB         7.6510   27.0270   19.5990 C.3   301  G8M301      0.0394
     11  C6         8.2680   27.6350   20.8750 C.3   301  G8M301      0.0031
     12  C7         6.8680   28.1110   21.2990 C.3   301  G8M301      0.0114
@<TRIPOS>BOND
     1     7     5   ar
     2     6     5   ar
     3     5     8    1
     4     8     9    1
     5     8    10    1
     6    10     4    1
     7    10    11    1
     8     4     1    1
     9     4    12    1
    10     2     1   ar
    11    11    12    1
    12     1     3   ar
