@<TRIPOS>MOLECULE
4g8n_G8M_A_1.pdb
 12 12 0 0 0
SMALL
GASTEIGER

@<TRIPOS>ATOM
      1  CD         1.9860   27.3620   13.9090 C.2   301  G8M301      0.3644
      2  OE1        2.8600   26.5350   13.6120 O.co2 301  G8M301     -0.2457
      3  OE2        0.8650   27.3010   13.3840 O.co2 301  G8M301     -0.2457
      4  CG         2.2700   28.5120   14.9120 C.3   301  G8M301      0.1053
      5  C          1.6040   30.9970   12.5490 C.2   301  G8M301      0.3819
      6  OXT        1.7900   32.0730   11.9510 O.co2 301  G8M301     -0.2441
      7  O          0.4920   30.6910   12.9940 O.co2 301  G8M301     -0.2441
      8  CA         2.7960   30.0470   12.7640 C.3   301  G8M301      0.1948
      9  N          3.9840   30.6510   12.1250 N.3   301  G8M301     -0.1208
     10  CB         3.0240   29.7040   14.2630 C.3   301  G8M301      0.0394
     11  C6         4.3340   29.0240   14.7290 C.3   301  G8M301      0.0031
     12  C7         3.5160   28.2650   15.7860 C.3   301  G8M301      0.0114
@<TRIPOS>BOND
     1     6     5   ar
     2     9     8    1
     3     5     8    1
     4     5     7   ar
     5     8    10    1
     6     3     1   ar
     7     2     1   ar
     8     1     4    1
     9    10    11    1
    10    10     4    1
    11    11    12    1
    12     4    12    1
