@<TRIPOS>MOLECULE
4g8p_HEM_A_1.pdb
 43 50 0 0 0
SMALL
GASTEIGER

@<TRIPOS>ATOM
      1  CHA      -41.5440    9.4770  -27.6090 C.2   301  HEM301      0.0000
      2  CHB      -41.1780   12.9050  -31.2190 C.2   301  HEM301      0.0000
      3  CHC      -38.4120   15.6810  -28.4450 C.2   301  HEM301      0.0000
      4  CHD      -38.4680   12.1550  -24.9820 C.2   301  HEM301      0.0000
      5  C1A      -41.7280   10.2040  -28.8540 C.ar  301  HEM301      0.0000
      6  C2A      -42.5470    9.7150  -30.0050 C.ar  301  HEM301      0.0000
      7  C3A      -42.4330   10.6540  -31.0640 C.ar  301  HEM301      0.0000
      8  C4A      -41.5440   11.7140  -30.4640 C.ar  301  HEM301      0.0000
      9  CMA      -43.1440   10.5540  -32.4410 C.3   301  HEM301      0.0000
     10  CAA      -43.3390    8.4360  -30.0450 C.3   301  HEM301      0.0000
     11  CBA      -44.6220    8.6680  -29.2990 C.3   301  HEM301      0.0000
     12  CGA      -45.4700    7.4260  -29.0400 C.2   301  HEM301      0.0000
     13  O1A      -44.9380    6.3160  -29.1800 O.co2 301  HEM301      0.0000
     14  O2A      -46.6450    7.5920  -28.6290 O.co2 301  HEM301      0.0000
     15  C1B      -40.3750   13.9960  -30.7560 C.2   301  HEM301      0.0000
     16  C2B      -40.1560   15.1300  -31.6380 C.2   301  HEM301      0.0000
     17  C3B      -39.3220   15.9100  -30.7670 C.2   301  HEM301      0.0000
     18  C4B      -39.1240   15.1290  -29.5410 C.2   301  HEM301      0.0000
     19  CMB      -40.6110   15.3540  -33.0510 C.3   301  HEM301      0.0000
     20  CAB      -38.7780   17.2480  -30.9620 C.2   301  HEM301      0.0000
     21  CBB      -39.2940   18.0040  -31.9170 C.2   301  HEM301      0.0000
     22  C1C      -38.1790   14.9780  -27.2060 C.ar  301  HEM301      0.0000
     23  C2C      -37.3560   15.5810  -26.1440 C.ar  301  HEM301      0.0000
     24  C3C      -37.3990   14.4730  -25.1580 C.ar  301  HEM301      0.0000
     25  C4C      -38.1850   13.3530  -25.6730 C.ar  301  HEM301      0.0000
     26  CMC      -36.6890   16.9390  -26.1360 C.3   301  HEM301      0.0000
     27  CAC      -36.7190   14.3610  -23.8900 C.3   301  HEM301      0.0000
     28  CBC      -35.5540   14.8800  -23.8850 C.3   301  HEM301      0.0000
     29  C1D      -39.3350   11.1130  -25.3900 C.2   301  HEM301      0.0000
     30  C2D      -39.6060    9.9740  -24.4900 C.2   301  HEM301      0.0000
     31  C3D      -40.4720    9.1970  -25.2950 C.2   301  HEM301      0.0000
     32  C4D      -40.6240    9.9410  -26.5470 C.2   301  HEM301      0.0000
     33  CMD      -39.0630    9.6700  -23.1250 C.3   301  HEM301      0.0000
     34  CAD      -41.0780    7.9050  -24.9510 C.3   301  HEM301      0.0000
     35  CBD      -42.5030    8.0930  -24.5140 C.3   301  HEM301      0.0000
     36  CGD      -42.9230    6.7260  -24.0270 C.2   301  HEM301      0.0000
     37  O1D      -43.1540    5.9080  -24.9360 O.co2 301  HEM301      0.0000
     38  O2D      -43.0770    6.4910  -22.7820 O.co2 301  HEM301      0.0000
     39  NA       -41.1060   11.4530  -29.1320 N.ar  301  HEM301      0.0000
     40  NB       -39.8020   14.0080  -29.4930 N.2   301  HEM301      0.0000
     41  NC       -38.6510   13.6750  -26.9370 N.ar  301  HEM301      0.0000
     42  ND       -39.9750   11.1120  -26.5590 N.2   301  HEM301      0.0000
     43 FE        -39.8870   12.5760  -28.0330 Fe    301  HEM301      0.0000
@<TRIPOS>BOND
     1    19    16    1
     2     9     7    1
     3    21    20    2
     4    16    17    2
     5    16    15    1
     6     2    15    1
     7     2     8    2
     8     7     8   ar
     9     7     6   ar
    10    20    17    1
    11    17    18    1
    12    15    40    2
    13     8    39   ar
    14    10     6    1
    15    10    11    1
    16     6     5   ar
    17    18    40    1
    18    18     3    2
    19    40    43    1
    20    11    12    1
    21    13    12   ar
    22    39     5   ar
    23    39    43    1
    24    12    14   ar
    25     5     1    2
    26     3    22    1
    27    43    41    1
    28    43    42    1
    29     1    32    1
    30    22    41   ar
    31    22    23   ar
    32    41    25   ar
    33    42    32    2
    34    42    29    1
    35    32    31    1
    36    23    26    1
    37    23    24   ar
    38    25    24   ar
    39    25     4    1
    40    29     4    2
    41    29    30    1
    42    31    34    1
    43    31    30    2
    44    24    27    1
    45    34    35    1
    46    37    36   ar
    47    35    36    1
    48    30    33    1
    49    36    38   ar
    50    27    28    1
