@<TRIPOS>MOLECULE
4g8s_FMN_A_1.pdb
 31 33 0 0 0
SMALL
GASTEIGER

@<TRIPOS>ATOM
      1  N1        28.0300    0.3090   71.5390 N.2   300  FMN300     -0.2887
      2  C2        26.9400   -0.3760   72.0320 C.1   300  FMN300      0.3669
      3  O2        26.6040   -0.2230   73.2020 O.2   300  FMN300     -0.1744
      4  N3        26.2260   -1.2290   71.2140 N.2   300  FMN300     -0.2300
      5  C4        26.5950   -1.4110   69.8980 C.1   300  FMN300      0.2513
      6  O4        25.9460   -2.1660   69.1670 O.2   300  FMN300     -0.2057
      7  C4A       27.6930   -0.7300   69.3990 C.2   300  FMN300      0.2703
      8  N5        28.0690   -0.9070   68.0820 N.2   300  FMN300     -0.3882
      9  C5A       29.1510   -0.2090   67.5720 C.2   300  FMN300      0.1277
     10  C6        29.5280   -0.3690   66.2300 C.3   300  FMN300      0.0820
     11  C7        30.6160    0.3470   65.7160 C.2   300  FMN300     -0.0408
     12  C7M       31.0710    0.2120   64.2780 C.3   300  FMN300      0.0265
     13  C8        31.3100    1.2030   66.5570 C.2   300  FMN300     -0.0280
     14  C8M       32.4690    1.9850   66.0230 C.3   300  FMN300      0.0304
     15  C9        30.9380    1.3600   67.8820 C.2   300  FMN300      0.0123
     16  C9A       29.8600    0.6560   68.4030 C.2   300  FMN300      0.0793
     17  N10       29.4950    0.8220   69.7390 N.pl3 300  FMN300     -0.2545
     18  C10       28.4050    0.1320   70.2300 C.2   300  FMN300      0.2449
     19  C1'       30.2370    1.7680   70.6500 C.3   300  FMN300      0.1336
     20  C2'       31.5970    1.2000   71.1040 C.3   300  FMN300      0.2048
     21  O2'       31.4420    0.0930   71.9920 O.3   300  FMN300     -0.2185
     22  C3'       32.4430    2.3160   71.7360 C.3   300  FMN300      0.2165
     23  O3'       32.7030    3.2950   70.7640 O.3   300  FMN300     -0.2175
     24  C4'       33.7760    1.8230   72.3090 C.3   300  FMN300      0.2147
     25  O4'       33.5130    0.9100   73.3510 O.3   300  FMN300     -0.2176
     26  C5'       34.6500    2.9820   72.8220 C.3   300  FMN300      0.1892
     27  O5'       33.8950    3.7370   73.7330 O.3   300  FMN300     -0.2674
     28  P         33.8000    5.3320   73.5410 P.3   300  FMN300      0.5327
     29  O1P       32.9790    5.5350   72.2940 O.2   300  FMN300     -0.2224
     30  O2P       33.0810    5.9160   74.7300 O.3   300  FMN300     -0.1145
     31  O3P       35.2000    5.8860   73.3790 O.3   300  FMN300     -0.1145
@<TRIPOS>BOND
     1    12    11    1
     2    11    10    1
     3    11    13    2
     4    14    13    1
     5    10     9    1
     6    13    15    1
     7     9     8    2
     8     9    16    1
     9    15    16    2
    10     8     7    2
    11    16    17    1
    12     6     5    2
    13     7     5    1
    14     7    18    1
    15    17    18    1
    16    17    19    1
    17     5     4    2
    18    18     1    2
    19    19    20    1
    20    23    22    1
    21    20    22    1
    22    20    21    1
    23     4     2    2
    24     1     2    2
    25    22    24    1
    26     2     3    2
    27    29    28    2
    28    24    26    1
    29    24    25    1
    30    26    27    1
    31    31    28    1
    32    28    27    1
    33    28    30    1
