@<TRIPOS>MOLECULE
4g8u_HEM_A_1.pdb
 43 50 0 0 0
SMALL
GASTEIGER

@<TRIPOS>ATOM
      1  CHA      -88.9770   -8.8780  -87.2830 C.2   301  HEM301      0.0000
      2  CHB      -88.9740  -11.9410  -91.1070 C.2   301  HEM301      0.0000
      3  CHC      -91.8880  -14.9000  -88.7040 C.2   301  HEM301      0.0000
      4  CHD      -92.1460  -11.6410  -85.0740 C.2   301  HEM301      0.0000
      5  C1A      -88.6480   -9.4610  -88.5560 C.ar  301  HEM301      0.0000
      6  C2A      -87.7000   -8.8460  -89.5540 C.ar  301  HEM301      0.0000
      7  C3A      -87.7270   -9.7770  -90.6890 C.ar  301  HEM301      0.0000
      8  C4A      -88.6800  -10.8400  -90.2660 C.ar  301  HEM301      0.0000
      9  CMA      -86.9410   -9.6470  -92.0180 C.3   301  HEM301      0.0000
     10  CAA      -86.9160   -7.5190  -89.3440 C.2   301  HEM301      0.0000
     11  CBA      -87.7930   -6.2200  -89.3340 C.2   301  HEM301      0.0000
     12  CGA      -87.2090   -4.8620  -88.8320 C.2   301  HEM301      0.0000
     13  O1A      -87.9800   -3.8280  -88.8550 O.co2 301  HEM301      0.0000
     14  O2A      -86.0160   -4.7640  -88.4050 O.co2 301  HEM301      0.0000
     15  C1B      -89.8220  -13.0650  -90.7840 C.2   301  HEM301      0.0000
     16  C2B      -90.0180  -14.1280  -91.7830 C.2   301  HEM301      0.0000
     17  C3B      -90.9280  -14.9580  -91.0230 C.2   301  HEM301      0.0000
     18  C4B      -91.0890  -14.2980  -89.7440 C.2   301  HEM301      0.0000
     19  CMB      -89.4980  -14.2770  -93.1870 C.3   301  HEM301      0.0000
     20  CAB      -91.5690  -16.2540  -91.3110 C.2   301  HEM301      0.0000
     21  CBB      -91.4520  -16.8460  -92.4590 C.2   301  HEM301      0.0000
     22  C1C      -92.1490  -14.3240  -87.4500 C.ar  301  HEM301      0.0000
     23  C2C      -93.0860  -14.9770  -86.4960 C.ar  301  HEM301      0.0000
     24  C3C      -93.1290  -13.9490  -85.4920 C.ar  301  HEM301      0.0000
     25  C4C      -92.3490  -12.7800  -85.8890 C.ar  301  HEM301      0.0000
     26  CMC      -93.7640  -16.3380  -86.4910 C.3   301  HEM301      0.0000
     27  CAC      -93.8440  -13.9580  -84.2130 C.2   301  HEM301      0.0000
     28  CBC      -94.6450  -14.8910  -83.9200 C.2   301  HEM301      0.0000
     29  C1D      -91.2700  -10.5600  -85.3530 C.2   301  HEM301      0.0000
     30  C2D      -91.1200   -9.4660  -84.3870 C.2   301  HEM301      0.0000
     31  C3D      -90.1630   -8.6520  -85.1020 C.2   301  HEM301      0.0000
     32  C4D      -89.9410   -9.3880  -86.3290 C.2   301  HEM301      0.0000
     33  CMD      -91.7930   -9.2680  -83.0590 C.3   301  HEM301      0.0000
     34  CAD      -89.5080   -7.3550  -84.7140 C.3   301  HEM301      0.0000
     35  CBD      -88.2020   -7.6150  -83.9830 C.3   301  HEM301      0.0000
     36  CGD      -87.7120   -6.2710  -83.4820 C.2   301  HEM301      0.0000
     37  O1D      -87.5210   -5.3870  -84.3140 O.co2 301  HEM301      0.0000
     38  O2D      -87.5570   -6.0450  -82.2740 O.co2 301  HEM301      0.0000
     39  NA       -89.2300  -10.6890  -88.9620 N.ar  301  HEM301      0.0000
     40  NB       -90.4320  -13.1920  -89.6080 N.2   301  HEM301      0.0000
     41  NC       -91.7400  -13.0220  -87.0990 N.ar  301  HEM301      0.0000
     42  ND       -90.5690  -10.5330  -86.4330 N.2   301  HEM301      0.0000
     43 FE        -90.5060  -11.8660  -87.9990 Fe    301  HEM301      0.0000
@<TRIPOS>BOND
     1    19    16    1
     2    21    20    2
     3     9     7    1
     4    16    17    2
     5    16    15    1
     6    20    17    1
     7     2    15    1
     8     2     8    2
     9    17    18    1
    10    15    40    2
    11     7     8   ar
    12     7     6   ar
    13     8    39   ar
    14    18    40    1
    15    18     3    2
    16    40    43    1
    17     6    10    1
    18     6     5   ar
    19    10    11    2
    20    11    12    1
    21    39     5   ar
    22    39    43    1
    23    13    12   ar
    24    12    14   ar
    25     3    22    1
    26     5     1    2
    27    43    41    1
    28    43    42    1
    29    22    41   ar
    30    22    23   ar
    31     1    32    1
    32    41    25   ar
    33    23    26    1
    34    23    24   ar
    35    42    32    2
    36    42    29    1
    37    32    31    1
    38    25    24   ar
    39    25     4    1
    40    24    27    1
    41    29     4    2
    42    29    30    1
    43    31    34    1
    44    31    30    2
    45    34    35    1
    46    30    33    1
    47    37    36   ar
    48    27    28    2
    49    35    36    1
    50    36    38   ar
