@<TRIPOS>MOLECULE
4g8v_0EY_A_1.pdb
 23 25 0 0 0
SMALL
GASTEIGER

@<TRIPOS>ATOM
      1  C4        34.6030   -4.4220   12.3230 C.1   201  0EY201      0.2182
      2  C5        35.5870   -4.2550   13.2680 C.2   201  0EY201      0.1241
      3  C6        36.2630   -3.0500   13.2830 C.2   201  0EY201      0.0909
      4  C7        36.7840   -0.9060   12.5220 C.3   201  0EY201      0.1531
      5  C8        36.4320    0.5440   12.5310 C.2   201  0EY201      0.0962
      6  C9        36.4520    1.3550   13.6940 C.3   201  0EY201      0.1425
      7  N1        35.9330   -2.1000   12.4320 N.am  201  0EY201     -0.1976
      8  N3        34.3220   -3.4380   11.4420 N.2   201  0EY201     -0.2452
      9  O2        34.6700   -1.3430   10.6220 O.2   201  0EY201     -0.1919
     10  C2        34.9690   -2.2900   11.4680 C.1   201  0EY201      0.2829
     11  O4        33.9270   -5.5920   12.2890 O.2   201  0EY201     -0.2085
     12  N5        36.1760    1.4080   11.4760 N.2   201  0EY201     -0.1522
     13  N6        36.0090    2.6160   11.9600 N.pl3 201  0EY201     -0.0610
     14  N7        36.1190    2.6260   13.2560 N.3   201  0EY201     -0.1358
     15  C1'       36.0810    3.7010   14.1990 C.3   201  0EY201      0.2285
     16  O4'       35.9610    4.9830   13.6730 O.3   201  0EY201     -0.3342
     17  C4'       37.2350    5.3490   13.0770 C.3   201  0EY201      0.1826
     18  C5'       37.4370    6.8390   13.1620 C.3   201  0EY201      0.2142
     19  O5'       38.6590    7.2200   12.5470 O.3   201  0EY201     -0.2176
     20  C3'       38.2860    4.4850   13.7830 C.3   201  0EY201      0.2156
     21  O3'       39.0840    3.7420   12.8760 O.3   201  0EY201     -0.2176
     22  C2'       37.4880    3.6090   14.7660 C.3   201  0EY201      0.2287
     23  O2'       37.4960    4.1740   16.0690 O.3   201  0EY201     -0.2161
@<TRIPOS>BOND
     1     9    10    2
     2     8    10    2
     3     8     1    2
     4    10     7   am
     5    12    13    1
     6    12     5    2
     7    13    14    1
     8    11     1    2
     9     1     2    1
    10     7     4    1
    11     7     3    1
    12     4     5    1
    13     5     6    1
    14    19    18    1
    15    21    20    1
    16    17    18    1
    17    17    16    1
    18    17    20    1
    19    14     6    1
    20    14    15    1
    21     2     3    2
    22    16    15    1
    23    20    22    1
    24    15    22    1
    25    22    23    1
