@<TRIPOS>MOLECULE
4g8w_HEM_A_1.pdb
 43 50 0 0 0
SMALL
GASTEIGER

@<TRIPOS>ATOM
      1  CHA      -88.9890   -8.7860  -87.8080 C.2   301  HEM301      0.0000
      2  CHB      -88.9690  -11.8230  -91.7430 C.2   301  HEM301      0.0000
      3  CHC      -91.9330  -14.8850  -89.3960 C.2   301  HEM301      0.0000
      4  CHD      -92.1540  -11.6210  -85.6690 C.2   301  HEM301      0.0000
      5  C1A      -88.6680   -9.3630  -89.1060 C.ar  301  HEM301      0.0000
      6  C2A      -87.7020   -8.7150  -90.0680 C.ar  301  HEM301      0.0000
      7  C3A      -87.7070   -9.6430  -91.2220 C.ar  301  HEM301      0.0000
      8  C4A      -88.6880  -10.7210  -90.8670 C.ar  301  HEM301      0.0000
      9  CMA      -86.8990   -9.4880  -92.5030 C.3   301  HEM301      0.0000
     10  CAA      -86.8300   -7.4640  -89.9170 C.3   301  HEM301      0.0000
     11  CBA      -87.4540   -6.1050  -90.3320 C.3   301  HEM301      0.0000
     12  CGA      -87.0140   -4.9130  -89.4440 C.2   301  HEM301      0.0000
     13  O1A      -87.8230   -3.9320  -89.3180 O.co2 301  HEM301      0.0000
     14  O2A      -85.8790   -4.9300  -88.8610 O.co2 301  HEM301      0.0000
     15  C1B      -89.8250  -12.9670  -91.4420 C.2   301  HEM301      0.0000
     16  C2B      -90.0230  -14.0230  -92.4750 C.2   301  HEM301      0.0000
     17  C3B      -90.9270  -14.9050  -91.7350 C.2   301  HEM301      0.0000
     18  C4B      -91.1190  -14.2670  -90.4190 C.2   301  HEM301      0.0000
     19  CMB      -89.4350  -14.1010  -93.8470 C.3   301  HEM301      0.0000
     20  CAB      -91.5050  -16.2200  -92.0960 C.2   301  HEM301      0.0000
     21  CBB      -91.1850  -16.8280  -93.2190 C.2   301  HEM301      0.0000
     22  C1C      -92.2190  -14.2900  -88.1360 C.ar  301  HEM301      0.0000
     23  C2C      -93.1340  -14.9260  -87.1600 C.ar  301  HEM301      0.0000
     24  C3C      -93.1560  -13.8860  -86.1180 C.ar  301  HEM301      0.0000
     25  C4C      -92.3490  -12.7600  -86.5250 C.ar  301  HEM301      0.0000
     26  CMC      -93.8510  -16.2840  -87.2250 C.3   301  HEM301      0.0000
     27  CAC      -93.8910  -13.8770  -84.8470 C.2   301  HEM301      0.0000
     28  CBC      -94.7560  -14.8150  -84.5800 C.2   301  HEM301      0.0000
     29  C1D      -91.2940  -10.5530  -85.9340 C.2   301  HEM301      0.0000
     30  C2D      -91.1630   -9.4820  -84.9320 C.2   301  HEM301      0.0000
     31  C3D      -90.1920   -8.6300  -85.5900 C.2   301  HEM301      0.0000
     32  C4D      -89.9340   -9.3280  -86.8580 C.2   301  HEM301      0.0000
     33  CMD      -91.8110   -9.3200  -83.6060 C.3   301  HEM301      0.0000
     34  CAD      -89.6110   -7.3600  -85.0800 C.3   301  HEM301      0.0000
     35  CBD      -88.1780   -7.5650  -84.5820 C.3   301  HEM301      0.0000
     36  CGD      -87.7270   -6.2040  -84.1080 C.2   301  HEM301      0.0000
     37  O1D      -87.4480   -5.3400  -84.9830 O.co2 301  HEM301      0.0000
     38  O2D      -87.6750   -5.9830  -82.8690 O.co2 301  HEM301      0.0000
     39  NA       -89.2250  -10.6040  -89.5640 N.ar  301  HEM301      0.0000
     40  NB       -90.4540  -13.1320  -90.2550 N.2   301  HEM301      0.0000
     41  NC       -91.7420  -13.0110  -87.7540 N.ar  301  HEM301      0.0000
     42  ND       -90.5570  -10.4960  -87.0230 N.2   301  HEM301      0.0000
     43 FE        -90.4850  -11.8350  -88.6390 Fe    301  HEM301      0.0000
@<TRIPOS>BOND
     1    19    16    1
     2    21    20    2
     3     9     7    1
     4    16    17    2
     5    16    15    1
     6    20    17    1
     7     2    15    1
     8     2     8    2
     9    17    18    1
    10    15    40    2
    11     7     8   ar
    12     7     6   ar
    13     8    39   ar
    14    18    40    1
    15    18     3    2
    16    11    10    1
    17    11    12    1
    18    40    43    1
    19     6    10    1
    20     6     5   ar
    21    39     5   ar
    22    39    43    1
    23    12    13   ar
    24    12    14   ar
    25     3    22    1
    26     5     1    2
    27    43    41    1
    28    43    42    1
    29    22    41   ar
    30    22    23   ar
    31     1    32    1
    32    41    25   ar
    33    26    23    1
    34    23    24   ar
    35    42    32    2
    36    42    29    1
    37    32    31    1
    38    25    24   ar
    39    25     4    1
    40    24    27    1
    41    29     4    2
    42    29    30    1
    43    31    34    1
    44    31    30    2
    45    34    35    1
    46    37    36   ar
    47    30    33    1
    48    27    28    2
    49    35    36    1
    50    36    38   ar
