@<TRIPOS>MOLECULE
4g8y_0FT_A_1.pdb
 24 26 0 0 0
SMALL
GASTEIGER

@<TRIPOS>ATOM
      1  C4        35.4040    4.5910   23.8350 C.1   201  0FT201      0.2134
      2  C5        36.6060    4.4390   23.1710 C.2   201  0FT201      0.0890
      3  C6        37.3060    3.2710   23.3550 C.2   201  0FT201      0.0857
      4  C7        37.6160    1.1030   24.3390 C.3   201  0FT201      0.1531
      5  C8        37.3070   -0.3690   23.9450 C.2   201  0FT201      0.0962
      6  C9        37.5920   -1.0060   22.7200 C.3   201  0FT201      0.1425
      7  N1        36.7910    2.2760   24.1570 N.am  201  0FT201     -0.1979
      8  N3        34.9460    3.6090   24.6310 N.2   201  0FT201     -0.2456
      9  O2        35.1960    1.6150   25.5160 O.2   201  0FT201     -0.1919
     10  C2        35.6490    2.4670   24.8020 C.1   201  0FT201      0.2829
     11  O4        34.6810    5.7490   23.6720 O.2   201  0FT201     -0.2088
     12  C5A       37.1100    5.5170   22.2940 C.3   201  0FT201      0.0462
     13  N5        36.7750   -1.3770   24.7430 N.2   201  0FT201     -0.1522
     14  N6        36.7120   -2.5160   24.0700 N.pl3 201  0FT201     -0.0610
     15  N7        37.1480   -2.3370   22.8800 N.3   201  0FT201     -0.1358
     16  C1'       37.2920   -3.3180   21.8620 C.3   201  0FT201      0.2285
     17  O4'       37.1700   -4.6370   22.3370 O.3   201  0FT201     -0.3342
     18  C4'       38.4910   -5.1430   22.7210 C.3   201  0FT201      0.1826
     19  C5'       38.7920   -6.4210   21.9780 C.3   201  0FT201      0.2142
     20  O5'       40.1000   -6.3910   21.4180 O.3   201  0FT201     -0.2176
     21  C3'       39.4530   -3.9800   22.4550 C.3   201  0FT201      0.2156
     22  O3'       39.7710   -3.2370   23.6260 O.3   201  0FT201     -0.2176
     23  C2'       38.7240   -3.1650   21.3910 C.3   201  0FT201      0.2287
     24  O2'       38.8430   -3.7740   20.1120 O.3   201  0FT201     -0.2161
@<TRIPOS>BOND
     1    24    23    1
     2    23    16    1
     3    23    21    1
     4    20    19    1
     5    16    17    1
     6    16    15    1
     7    19    18    1
     8    12     2    1
     9    17    18    1
    10    21    18    1
    11    21    22    1
    12     6    15    1
    13     6     5    1
    14    15    14    1
    15     2     3    2
    16     2     1    1
    17     3     7    1
    18    11     1    2
    19     1     8    2
    20     5     4    1
    21     5    13    2
    22    14    13    1
    23     7     4    1
    24     7    10   am
    25     8    10    2
    26    10     9    2
