@<TRIPOS>MOLECULE
4g90_0G0_A_1.pdb
 24 26 0 0 0
SMALL
GASTEIGER

@<TRIPOS>ATOM
      1  C4        34.7790   -4.4180   12.4780 C.1   201  0G0201      0.2454
      2  C5        35.8220   -4.2520   13.3750 C.2   201  0G0201      0.2498
      3  C6        36.5390   -3.0690   13.3280 C.2   201  0G0201      0.1201
      4  C7        37.0400   -0.9790   12.4450 C.3   201  0G0201      0.1532
      5  C8        36.7230    0.4380   12.6640 C.2   201  0G0201      0.0962
      6  C9        36.8410    1.1730   13.9310 C.3   201  0G0201      0.1425
      7  N1        36.1880   -2.0880   12.4420 N.am  201  0G0201     -0.1953
      8  N3        34.4830   -3.4180   11.5870 N.2   201  0G0201     -0.2430
      9  O2        34.8580   -1.3830   10.7220 O.2   201  0G0201     -0.1919
     10  C2        35.1760   -2.2700   11.5450 C.1   201  0G0201      0.2830
     11  O4        34.0460   -5.6030   12.5030 O.2   201  0G0201     -0.2062
     12  F5A       36.1210   -5.1930   14.2360 F     201  0G0201     -0.1891
     13  N5        36.3940    1.3840   11.7060 N.2   201  0G0201     -0.1522
     14  N6        36.2550    2.5580   12.3010 N.pl3 201  0G0201     -0.0610
     15  N7        36.4910    2.4760   13.6070 N.3   201  0G0201     -0.1358
     16  C1'       36.4840    3.5500   14.5910 C.3   201  0G0201      0.2285
     17  O4'       36.2700    4.7600   13.9330 O.3   201  0G0201     -0.3342
     18  C4'       37.5410    5.2470   13.4370 C.3   201  0G0201      0.1826
     19  C5'       37.5050    6.7480   13.3070 C.3   201  0G0201      0.2142
     20  O5'       38.7990    7.2760   13.0500 O.3   201  0G0201     -0.2176
     21  C3'       38.5940    4.6810   14.3990 C.3   201  0G0201      0.2156
     22  O3'       39.7130    4.1280   13.7250 O.3   201  0G0201     -0.2176
     23  C2'       37.8380    3.6660   15.2830 C.3   201  0G0201      0.2287
     24  O2'       37.6350    4.1820   16.5900 O.3   201  0G0201     -0.2161
@<TRIPOS>BOND
     1     9    10    2
     2    10     8    2
     3    10     7   am
     4     8     1    2
     5    13    14    1
     6    13     5    2
     7    14    15    1
     8     7     4    1
     9     7     3    1
    10     4     5    1
    11     1    11    2
    12     1     2    1
    13     5     6    1
    14    20    19    1
    15    19    18    1
    16     3     2    2
    17     2    12    1
    18    18    17    1
    19    18    21    1
    20    15     6    1
    21    15    16    1
    22    22    21    1
    23    17    16    1
    24    21    23    1
    25    16    23    1
    26    23    24    1
