@<TRIPOS>MOLECULE
4g98_HEM_A_1.pdb
 43 50 0 0 0
SMALL
GASTEIGER

@<TRIPOS>ATOM
      1  CHA      -90.4680   -9.5740  -87.6570 C.2   301  HEM301      0.0000
      2  CHB      -90.7300  -12.9490  -91.3150 C.2   301  HEM301      0.0000
      3  CHC      -93.4930  -15.7970  -88.5220 C.2   301  HEM301      0.0000
      4  CHD      -93.4690  -12.2460  -85.1000 C.2   301  HEM301      0.0000
      5  C1A      -90.2750  -10.3390  -88.8870 C.ar  301  HEM301      0.0000
      6  C2A      -89.4160   -9.7730  -89.9640 C.ar  301  HEM301      0.0000
      7  C3A      -89.5010  -10.7420  -91.0510 C.ar  301  HEM301      0.0000
      8  C4A      -90.3890  -11.8090  -90.5190 C.ar  301  HEM301      0.0000
      9  CMA      -88.7870  -10.7050  -92.3910 C.3   301  HEM301      0.0000
     10  CAA      -88.6200   -8.4850  -89.9550 C.3   301  HEM301      0.0000
     11  CBA      -87.1330   -8.6970  -89.5910 C.3   301  HEM301      0.0000
     12  CGA      -86.3960   -7.4450  -89.1290 C.2   301  HEM301      0.0000
     13  O1A      -85.1590   -7.4760  -88.8510 O.co2 301  HEM301      0.0000
     14  O2A      -87.0400   -6.3880  -89.0020 O.co2 301  HEM301      0.0000
     15  C1B      -91.5310  -14.0480  -90.8280 C.2   301  HEM301      0.0000
     16  C2B      -91.7930  -15.2090  -91.7330 C.2   301  HEM301      0.0000
     17  C3B      -92.6450  -15.9860  -90.8510 C.2   301  HEM301      0.0000
     18  C4B      -92.7160  -15.2260  -89.6000 C.2   301  HEM301      0.0000
     19  CMB      -91.3460  -15.3970  -93.1690 C.3   301  HEM301      0.0000
     20  CAB      -93.2150  -17.3290  -91.0230 C.2   301  HEM301      0.0000
     21  CBB      -92.7450  -18.0790  -92.0030 C.2   301  HEM301      0.0000
     22  C1C      -93.7290  -15.1460  -87.3040 C.ar  301  HEM301      0.0000
     23  C2C      -94.6070  -15.6660  -86.1940 C.ar  301  HEM301      0.0000
     24  C3C      -94.5520  -14.5260  -85.2600 C.ar  301  HEM301      0.0000
     25  C4C      -93.7290  -13.4660  -85.8270 C.ar  301  HEM301      0.0000
     26  CMC      -95.3080  -16.9790  -86.0040 C.3   301  HEM301      0.0000
     27  CAC      -95.1900  -14.3380  -83.9550 C.2   301  HEM301      0.0000
     28  CBC      -96.1570  -15.1060  -83.5520 C.2   301  HEM301      0.0000
     29  C1D      -92.5860  -11.1720  -85.4660 C.2   301  HEM301      0.0000
     30  C2D      -92.4040  -10.0070  -84.5630 C.2   301  HEM301      0.0000
     31  C3D      -91.5210   -9.2150  -85.3660 C.2   301  HEM301      0.0000
     32  C4D      -91.3280  -10.0000  -86.5850 C.2   301  HEM301      0.0000
     33  CMD      -93.0210   -9.7260  -83.2200 C.3   301  HEM301      0.0000
     34  CAD      -90.9080   -7.9030  -85.0640 C.3   301  HEM301      0.0000
     35  CBD      -89.5150   -8.1300  -84.5000 C.3   301  HEM301      0.0000
     36  CGD      -89.0690   -6.7670  -84.0190 C.2   301  HEM301      0.0000
     37  O1D      -88.8480   -5.8750  -84.8650 O.co2 301  HEM301      0.0000
     38  O2D      -88.9530   -6.5460  -82.8000 O.co2 301  HEM301      0.0000
     39  NA       -90.9840  -11.5330  -89.2580 N.ar  301  HEM301      0.0000
     40  NB       -92.0690  -14.0460  -89.5910 N.2   301  HEM301      0.0000
     41  NC       -93.3320  -13.8030  -87.1450 N.ar  301  HEM301      0.0000
     42  ND       -91.9370  -11.1640  -86.6050 N.2   301  HEM301      0.0000
     43 FE        -92.0140  -12.6780  -87.9910 Fe    301  HEM301      0.0000
@<TRIPOS>BOND
     1    19    16    1
     2     9     7    1
     3    21    20    2
     4    16    17    2
     5    16    15    1
     6     2    15    1
     7     2     8    2
     8     7     8   ar
     9     7     6   ar
    10    20    17    1
    11    17    18    1
    12    15    40    2
    13     8    39   ar
    14     6    10    1
    15     6     5   ar
    16    10    11    1
    17    18    40    1
    18    18     3    2
    19    40    43    1
    20    11    12    1
    21    39     5   ar
    22    39    43    1
    23    12    14   ar
    24    12    13   ar
    25     5     1    2
    26     3    22    1
    27    43    41    1
    28    43    42    1
    29     1    32    1
    30    22    41   ar
    31    22    23   ar
    32    41    25   ar
    33    42    32    2
    34    42    29    1
    35    32    31    1
    36    23    26    1
    37    23    24   ar
    38    25    24   ar
    39    25     4    1
    40    29     4    2
    41    29    30    1
    42    31    34    1
    43    31    30    2
    44    24    27    1
    45    34    35    1
    46    37    36   ar
    47    30    33    1
    48    35    36    1
    49    36    38   ar
    50    27    28    2
