@<TRIPOS>MOLECULE
4g99_HEM_A_1.pdb
 43 50 0 0 0
SMALL
GASTEIGER

@<TRIPOS>ATOM
      1  CHA      -90.3630   -9.6320  -87.7150 C.2   301  HEM301      0.0000
      2  CHB      -90.7270  -12.9710  -91.4140 C.2   301  HEM301      0.0000
      3  CHC      -93.3970  -15.8360  -88.5470 C.2   301  HEM301      0.0000
      4  CHD      -93.4430  -12.1850  -85.1550 C.2   301  HEM301      0.0000
      5  C1A      -90.1970  -10.3780  -88.9550 C.ar  301  HEM301      0.0000
      6  C2A      -89.3910   -9.7990  -90.0630 C.ar  301  HEM301      0.0000
      7  C3A      -89.4870  -10.7740  -91.1400 C.ar  301  HEM301      0.0000
      8  C4A      -90.3640  -11.8350  -90.6100 C.ar  301  HEM301      0.0000
      9  CMA      -88.8380  -10.7350  -92.5040 C.3   301  HEM301      0.0000
     10  CAA      -88.5870   -8.5220  -90.0650 C.3   301  HEM301      0.0000
     11  CBA      -87.1370   -8.7200  -89.5820 C.3   301  HEM301      0.0000
     12  CGA      -86.4110   -7.4270  -89.2400 C.2   301  HEM301      0.0000
     13  O1A      -85.1820   -7.4560  -88.9570 O.co2 301  HEM301      0.0000
     14  O2A      -87.0550   -6.3530  -89.2220 O.co2 301  HEM301      0.0000
     15  C1B      -91.4940  -14.0590  -90.9000 C.2   301  HEM301      0.0000
     16  C2B      -91.7500  -15.2370  -91.7870 C.2   301  HEM301      0.0000
     17  C3B      -92.5650  -16.0300  -90.8920 C.2   301  HEM301      0.0000
     18  C4B      -92.6280  -15.2580  -89.6440 C.2   301  HEM301      0.0000
     19  CMB      -91.2970  -15.4650  -93.2160 C.3   301  HEM301      0.0000
     20  CAB      -93.1150  -17.3910  -91.0780 C.2   301  HEM301      0.0000
     21  CBB      -92.6860  -18.1160  -92.1010 C.2   301  HEM301      0.0000
     22  C1C      -93.6580  -15.1510  -87.3370 C.ar  301  HEM301      0.0000
     23  C2C      -94.5410  -15.6420  -86.2360 C.ar  301  HEM301      0.0000
     24  C3C      -94.5150  -14.4900  -85.3170 C.ar  301  HEM301      0.0000
     25  C4C      -93.6770  -13.4380  -85.8730 C.ar  301  HEM301      0.0000
     26  CMC      -95.2430  -16.9560  -86.0630 C.3   301  HEM301      0.0000
     27  CAC      -95.1890  -14.3100  -84.0140 C.2   301  HEM301      0.0000
     28  CBC      -96.1750  -15.0860  -83.6330 C.2   301  HEM301      0.0000
     29  C1D      -92.5570  -11.1200  -85.5170 C.2   301  HEM301      0.0000
     30  C2D      -92.3410   -9.9490  -84.6030 C.2   301  HEM301      0.0000
     31  C3D      -91.4150   -9.1880  -85.4180 C.2   301  HEM301      0.0000
     32  C4D      -91.2240  -10.0130  -86.6340 C.2   301  HEM301      0.0000
     33  CMD      -92.9850   -9.6220  -83.2680 C.3   301  HEM301      0.0000
     34  CAD      -90.7680   -7.8700  -85.1550 C.3   301  HEM301      0.0000
     35  CBD      -89.4410   -8.0970  -84.4660 C.3   301  HEM301      0.0000
     36  CGD      -88.9770   -6.7220  -84.0450 C.2   301  HEM301      0.0000
     37  O1D      -88.6710   -5.8990  -84.9270 O.co2 301  HEM301      0.0000
     38  O2D      -88.9040   -6.4360  -82.8400 O.co2 301  HEM301      0.0000
     39  NA       -90.9240  -11.5650  -89.3200 N.ar  301  HEM301      0.0000
     40  NB       -92.0120  -14.0480  -89.6550 N.2   301  HEM301      0.0000
     41  NC       -93.2720  -13.7960  -87.1900 N.ar  301  HEM301      0.0000
     42  ND       -91.8750  -11.1510  -86.6590 N.2   301  HEM301      0.0000
     43 FE        -91.9510  -12.6810  -88.0480 Fe    301  HEM301      0.0000
@<TRIPOS>BOND
     1    19    16    1
     2     9     7    1
     3    21    20    2
     4    16    15    1
     5    16    17    2
     6     2    15    1
     7     2     8    2
     8     7     8   ar
     9     7     6   ar
    10    20    17    1
    11    15    40    2
    12    17    18    1
    13     8    39   ar
    14    10     6    1
    15    10    11    1
    16     6     5   ar
    17    40    18    1
    18    40    43    1
    19    18     3    2
    20    11    12    1
    21    39     5   ar
    22    39    43    1
    23    12    14   ar
    24    12    13   ar
    25     5     1    2
    26     3    22    1
    27    43    41    1
    28    43    42    1
    29     1    32    1
    30    22    41   ar
    31    22    23   ar
    32    41    25   ar
    33    42    32    2
    34    42    29    1
    35    32    31    1
    36    23    26    1
    37    23    24   ar
    38    25    24   ar
    39    25     4    1
    40    29     4    2
    41    29    30    1
    42    31    34    1
    43    31    30    2
    44    24    27    1
    45    34    35    1
    46    37    36   ar
    47    30    33    1
    48    35    36    1
    49    36    38   ar
    50    27    28    2
