@<TRIPOS>MOLECULE
4g9c_0WP_A_1.pdb
 36 39 0 0 0
SMALL
GASTEIGER

@<TRIPOS>ATOM
      1  C1        40.4680  -26.5080   -2.9310 C.2   801  0WP801      0.2735
      2  C2        41.1710  -25.2370   -3.1680 C.ar  801  0WP801      0.1114
      3  O3        41.0490  -27.5820   -3.0940 O.2   801  0WP801     -0.2679
      4  C4        41.6220  -24.8870   -4.4320 C.ar  801  0WP801      0.1619
      5  C5        42.2900  -23.6640   -4.6400 C.ar  801  0WP801      0.1013
      6  C6        42.5000  -22.7970   -3.5660 C.ar  801  0WP801      0.0212
      7  C7        42.0460  -23.1520   -2.2910 C.ar  801  0WP801      0.0313
      8  C8        41.3770  -24.3800   -2.0990 C.ar  801  0WP801      0.1468
      9  F9        40.9310  -24.7290   -0.8670 F     801  0WP801     -0.2039
     10  F10       41.4150  -25.7260   -5.4660 F     801  0WP801     -0.2026
     11  N11       42.7360  -23.3050   -5.9410 N.am  801  0WP801     -0.1732
     12  N12       39.1890  -26.3770   -2.5310 N.am  801  0WP801     -0.1737
     13  C13       42.0750  -23.4640   -7.1060 C.2   801  0WP801      0.2690
     14  C14       42.6800  -23.0430   -8.1500 C.ar  801  0WP801      0.0551
     15  O15       40.9540  -23.9600   -7.2080 O.2   801  0WP801     -0.2680
     16  C16       44.0500  -22.7710   -8.2430 C.ar  801  0WP801      0.0046
     17  C17       44.5860  -22.3020   -9.4670 C.ar  801  0WP801     -0.0001
     18  C18       43.7360  -22.1150  -10.5800 C.ar  801  0WP801     -0.0033
     19  C19       42.3640  -22.3950  -10.4620 C.ar  801  0WP801     -0.0095
     20  C20       41.8500  -22.8550   -9.2520 C.ar  801  0WP801      0.0013
     21  C21       41.4260  -22.1980  -11.6540 C.3   801  0WP801      0.0981
     22  C22       41.1860  -23.5280  -12.3950 C.3   801  0WP801      0.0196
     23  C23       40.0790  -21.6310  -11.1860 C.3   801  0WP801      0.0196
     24  C24       38.2430  -27.3880   -2.2180 C.2   801  0WP801      0.0944
     25  C25       38.6350  -28.7260   -2.0100 C.2   801  0WP801      0.0330
     26  C26       37.6300  -29.6490   -1.7030 C.2   801  0WP801      0.1200
     27  C27       36.3390  -29.2220   -1.6190 C.1   801  0WP801      0.0613
     28  N28       35.8920  -27.9570   -1.8060 N.2   801  0WP801     -0.1894
     29  C29       36.8770  -27.0680   -2.1040 C.2   801  0WP801      0.1262
     30  C30       37.6470  -31.0100   -1.4430 C.2   801  0WP801      0.2541
     31  N31       36.4330  -31.4770   -1.1970 N.2   801  0WP801     -0.1007
     32  N32       35.6300  -30.3720   -1.3060 N.2   801  0WP801     -0.0905
     33  C33       42.0080  -21.2400  -12.6030 C.1   801  0WP801      0.0752
     34  N34       42.4640  -20.4840  -13.3480 N.1   801  0WP801     -0.1956
     35  O35       38.7550  -31.7950   -1.4370 O.2   801  0WP801     -0.4547
     36  C36       38.5860  -33.1820   -1.1530 C.3   801  0WP801      0.2543
@<TRIPOS>BOND
     1    34    33    3
     2    33    21    1
     3    22    21    1
     4    21    23    1
     5    21    19    1
     6    18    19   ar
     7    18    17   ar
     8    19    20   ar
     9    17    16   ar
    10    20    14   ar
    11    16    14   ar
    12    14    13    1
    13    15    13    2
    14    13    11   am
    15    11     5    1
    16    10     4    1
    17     5     4   ar
    18     5     6   ar
    19     4     2   ar
    20     6     7   ar
    21     2     1    1
    22     2     8   ar
    23     3     1    2
    24     1    12   am
    25    12    24    1
    26     7     8   ar
    27    24    29    2
    28    24    25    1
    29    29    28    1
    30     8     9    1
    31    25    26    2
    32    28    27    2
    33    26    27    1
    34    26    30    1
    35    27    32    2
    36    30    35    1
    37    30    31    2
    38    35    36    1
    39    32    31    1
