@<TRIPOS>MOLECULE
4g9e_C4L_A_1.pdb
 13 12 0 0 0
SMALL
GASTEIGER

@<TRIPOS>ATOM
      1  O1       -11.4480    5.9010   21.9230 O.co2 301  C4L301     -0.2437
      2  C4       -11.3640    4.7430   22.3980 C.2   301  C4L301      0.3843
      3  O2       -10.2790    4.2050   22.7130 O.co2 301  C4L301     -0.2437
      4  C3       -12.6240    3.9300   22.5830 C.3   301  C4L301      0.2003
      5  C2       -13.8530    4.8320   22.7540 C.3   301  C4L301      0.0688
      6  C1       -15.1520    4.0980   22.4620 C.3   301  C4L301      0.1845
      7  O3       -15.2720    3.8510   21.0520 O.3   301  C4L301     -0.2203
      8  N1       -12.5500    3.0440   23.7500 N.am  301  C4L301     -0.1955
      9  C5       -12.3740    1.7240   23.6390 C.2   301  C4L301      0.2418
     10  O4       -12.2770    1.1440   22.5650 O.2   301  C4L301     -0.2733
     11  C6       -12.3150    0.9350   24.9270 C.3   301  C4L301      0.0868
     12  C7       -13.2300   -0.2800   24.8170 C.3   301  C4L301      0.0096
     13  C8       -14.6980    0.1040   24.6800 C.3   301  C4L301      0.0005
@<TRIPOS>BOND
     1     7     6    1
     2     1     2   ar
     3     2     4    1
     4     2     3   ar
     5     6     5    1
     6    10     9    2
     7     4     5    1
     8     4     8    1
     9     9     8   am
    10     9    11    1
    11    13    12    1
    12    12    11    1
