@<TRIPOS>MOLECULE
4g9h_GSH_A_1.pdb
 20 19 0 0 0
SMALL
GASTEIGER

@<TRIPOS>ATOM
      1  N1        31.6300  101.4890   34.4880 N.3   301  GSH301     -0.1208
      2  CA1       33.0160  101.1260   34.7020 C.3   301  GSH301      0.1948
      3  C1        33.4930  100.3650   33.5110 C.2   301  GSH301      0.3819
      4  O11       32.6470   99.6710   32.8590 O.co2 301  GSH301     -0.2441
      5  O12       34.7200  100.4090   33.1770 O.co2 301  GSH301     -0.2441
      6  CB1       33.1110  100.1990   35.8980 C.3   301  GSH301      0.0402
      7  CG1       34.5930   99.9510   36.2090 C.3   301  GSH301      0.0889
      8  CD1       34.7330   99.3310   37.6120 C.2   301  GSH301      0.2418
      9  OE1       33.7390   98.9920   38.2510 O.2   301  GSH301     -0.2733
     10  N2        36.0720   99.1390   38.1740 N.am  301  GSH301     -0.1968
     11  CA2       36.2640   98.5540   39.4800 C.3   301  GSH301      0.1843
     12  C2        36.7750   99.6290   40.3860 C.2   301  GSH301      0.2627
     13  O2        37.7470  100.2920   40.0500 O.2   301  GSH301     -0.2714
     14  CB2       37.2520   97.4260   39.4610 C.3   301  GSH301      0.0997
     15  SG2       36.4730   95.9090   38.9120 S.3   301  GSH301     -0.0797
     16  N3        36.1080   99.8850   41.6560 N.am  301  GSH301     -0.1917
     17  CA3       36.6020  100.9270   42.5480 C.3   301  GSH301      0.2285
     18  C3        35.4780  101.8180   42.9950 C.2   301  GSH301      0.3865
     19  O31       34.2980  101.6050   42.5980 O.co2 301  GSH301     -0.2437
     20  O32       35.7230  102.7850   43.7740 O.co2 301  GSH301     -0.2437
@<TRIPOS>BOND
     1     4     3   ar
     2     5     3   ar
     3     3     2    1
     4     1     2    1
     5     2     6    1
     6     6     7    1
     7     7     8    1
     8     8    10   am
     9     8     9    2
    10    10    11    1
    11    15    14    1
    12    14    11    1
    13    11    12    1
    14    13    12    2
    15    12    16   am
    16    16    17    1
    17    17    18    1
    18    19    18   ar
    19    18    20   ar
