@<TRIPOS>MOLECULE
4g9p_CDI_A_1.pdb
 16 16 0 0 0
SMALL
GASTEIGER

@<TRIPOS>ATOM
      1  C4        -6.5600   13.1330   18.2110 C.3   502  CDI502      0.2120
      2  C3        -6.0850   12.6470   16.8480 C.3   502  CDI502      0.1597
      3  OB4       -7.0050   13.0790   15.8260 O.3   502  CDI502     -0.3135
      4  PB        -8.3350   12.4300   15.2000 P.3   502  CDI502      0.2188
      5  OB2       -8.8310   13.3300   14.1160 O.2   502  CDI502     -0.5170
      6  OB3       -9.2690   12.0210   16.2990 O.3   502  CDI502     -0.4371
      7  PA        -6.6210   10.7630   13.6090 P.3   502  CDI502      0.2189
      8  OA3       -5.3580   11.2140   14.4710 O.3   502  CDI502     -0.3111
      9  OA1       -6.6710   11.6910   12.4330 O.2   502  CDI502     -0.5170
     10  OA2       -6.5550    9.2800   13.3770 O.3   502  CDI502     -0.4371
     11  C1        -5.0070   10.6180   15.7350 C.3   502  CDI502      0.1844
     12  C2        -5.8840   11.1270   16.8710 C.3   502  CDI502      0.2093
     13  O1        -5.1770   10.8130   18.0820 O.3   502  CDI502     -0.2178
     14  C5        -4.7850   13.4060   16.5850 C.3   502  CDI502      0.0355
     15  O2        -7.8640   12.6430   18.5800 O.3   502  CDI502     -0.2177
     16  OB1       -7.8840   11.0020   14.5800 O.3   502  CDI502     -0.2703
@<TRIPOS>BOND
     1     9     7    2
     2    10     7    1
     3     7     8    1
     4     7    16    1
     5     5     4    2
     6     8    11    1
     7    16     4    1
     8     4     3    1
     9     4     6    1
    10    11    12    1
    11     3     2    1
    12    14     2    1
    13     2    12    1
    14     2     1    1
    15    12    13    1
    16     1    15    1
