@<TRIPOS>MOLECULE
4g9r_B1E_A_1.pdb
 34 37 0 0 0
SMALL
GASTEIGER

@<TRIPOS>ATOM
      1  C1        39.2540  -28.9180   11.4490 C.2   801  B1E801      0.0724
      2  C2        38.2950  -27.8840   11.3460 C.2   801  B1E801      0.0825
      3  C3        38.7120  -26.5770   11.0160 C.2   801  B1E801      0.0204
      4  C4        40.0820  -26.3180   10.7940 C.2   801  B1E801      0.0206
      5  C5        41.0450  -27.3470   10.8960 C.2   801  B1E801      0.0815
      6  C6        40.6260  -28.6540   11.2270 C.2   801  B1E801      0.0251
      7  C7        38.7830  -30.3040   11.8010 C.2   801  B1E801      0.2519
      8  N8        37.4270  -30.4350   11.9920 N.am  801  B1E801     -0.2534
      9  C9        36.5680  -29.3680   11.8700 C.3   801  B1E801      0.2222
     10  N10       36.9320  -28.1510   11.5690 N.2   801  B1E801     -0.2479
     11  O11       39.5920  -31.2340   11.9020 O.2   801  B1E801     -0.2698
     12  N12       42.3530  -27.0710   10.6850 N.2   801  B1E801     -0.2456
     13  C13       43.0290  -25.9090   10.5350 C.ar  801  B1E801      0.0786
     14  C14       43.1360  -24.9780   11.6010 C.ar  801  B1E801     -0.0041
     15  C15       43.8410  -23.7690   11.4200 C.ar  801  B1E801     -0.0014
     16  C16       44.4350  -23.4800   10.1730 C.ar  801  B1E801      0.0164
     17  C17       44.3340  -24.4020    9.1090 C.ar  801  B1E801      0.0752
     18  C18       43.6270  -25.6140    9.2870 C.ar  801  B1E801      0.0354
     19  C19       42.5070  -25.2410   12.9710 C.3   801  B1E801      0.0326
     20  N20       44.9430  -24.0590    7.8730 N.am  801  B1E801     -0.1754
     21  C21       44.4500  -24.1070    6.5980 C.2   801  B1E801      0.2690
     22  C22       45.3680  -23.6320    5.5120 C.ar  801  B1E801      0.0551
     23  O23       43.3190  -24.5100    6.3140 O.2   801  B1E801     -0.2680
     24  C24       44.8190  -23.1440    4.3070 C.ar  801  B1E801      0.0013
     25  C25       45.6630  -22.6830    3.2680 C.ar  801  B1E801     -0.0095
     26  C26       47.0670  -22.7170    3.4470 C.ar  801  B1E801     -0.0033
     27  C27       47.6210  -23.1990    4.6550 C.ar  801  B1E801     -0.0001
     28  C28       46.7710  -23.6570    5.6870 C.ar  801  B1E801      0.0046
     29  C29       45.0290  -22.1650    1.9650 C.3   801  B1E801      0.0981
     30  C30       43.8640  -23.0100    1.6530 C.1   801  B1E801      0.0752
     31  C31       44.4980  -20.7290    2.1090 C.3   801  B1E801      0.0196
     32  C32       45.9890  -22.2160    0.7590 C.3   801  B1E801      0.0196
     33  C33       36.8730  -31.7530   12.3350 C.3   801  B1E801      0.1171
     34  N34       42.9470  -23.6770    1.4070 N.1   801  B1E801     -0.1956
@<TRIPOS>BOND
     1    32    29    1
     2    34    30    3
     3    30    29    1
     4    29    31    1
     5    29    25    1
     6    25    26   ar
     7    25    24   ar
     8    26    27   ar
     9    24    22   ar
    10    27    28   ar
    11    22    28   ar
    12    22    21    1
    13    23    21    2
    14    21    20   am
    15    20    17    1
    16    17    18   ar
    17    17    16   ar
    18    18    13   ar
    19    16    15   ar
    20    13    12    1
    21    13    14   ar
    22    12     5    2
    23     4     5    1
    24     4     3    2
    25     5     6    1
    26     3     2    1
    27     6     1    2
    28     2     1    1
    29     2    10    2
    30    15    14   ar
    31     1     7    1
    32    10     9    1
    33    14    19    1
    34     7    11    2
    35     7     8   am
    36     9     8    1
    37     8    33    1
