@<TRIPOS>MOLECULE
4gae_FOB_A_1.pdb
 18 18 0 0 0
SMALL
GASTEIGER

@<TRIPOS>ATOM
      1  CH3       10.2210  -15.6220   17.4930 C.3   502  FOB502      0.0561
      2  O2         8.8060  -14.8900   14.0880 O.3   502  FOB502     -0.4197
      3  N1         9.6210  -15.4340   15.0980 N.am  502  FOB502     -0.2845
      4  C1         9.4150  -15.0900   16.3330 C.2   502  FOB502      0.0679
      5  O1         8.5270  -14.2810   16.5380 O.2   502  FOB502     -0.5413
      6  C2        10.6680  -16.3660   14.6950 C.3   502  FOB502      0.0985
      7  C3        11.5430  -15.3940   13.8800 C.3   502  FOB502      0.0337
      8  C4        13.0070  -15.7350   13.8860 C.3   502  FOB502      0.0761
      9  PA1       13.8630  -14.5810   12.9260 P.3   502  FOB502      0.1209
     10  OP1       14.1280  -13.3450   13.7160 O.3   502  FOB502     -0.3569
     11  OP2       12.9730  -14.3190   11.7400 O.2   502  FOB502     -0.4598
     12  OP3       15.1080  -15.3430   12.5680 O.3   502  FOB502     -0.3569
     13  CG        13.5650  -15.7730   15.3470 C.ar  502  FOB502     -0.0125
     14  CD1       14.2320  -16.9350   15.7900 C.ar  502  FOB502      0.0168
     15  CD2       13.4190  -14.6800   16.2560 C.ar  502  FOB502      0.0168
     16  CE1       14.7270  -16.9780   17.1020 C.ar  502  FOB502      0.0986
     17  CE2       13.9400  -14.7970   17.5540 C.ar  502  FOB502      0.0986
     18  NZ        14.5670  -15.9250   17.9290 N.ar  502  FOB502     -0.2423
@<TRIPOS>BOND
     1    11     9    2
     2    12     9    1
     3     9    10    1
     4     9     8    1
     5     7     8    1
     6     7     6    1
     7     8    13    1
     8     2     3    1
     9     6     3    1
    10     3     4   am
    11    13    14   ar
    12    13    15   ar
    13    14    16   ar
    14    15    17   ar
    15     4     5    2
    16     4     1    1
    17    16    18   ar
    18    17    18   ar
