@<TRIPOS>MOLECULE
4gae_FOQ_A_1.pdb
 18 18 0 0 0
SMALL
GASTEIGER

@<TRIPOS>ATOM
      1  CH3       10.1260  -15.7340   17.5170 C.3   503  FOQ503      0.0561
      2  O2         9.1360  -14.8970   13.9990 O.3   503  FOQ503     -0.4197
      3  N1         9.7730  -15.5330   15.0740 N.am  503  FOQ503     -0.2845
      4  C1         9.5170  -15.1200   16.2820 C.2   503  FOQ503      0.0679
      5  O1         8.7350  -14.1900   16.4010 O.2   503  FOQ503     -0.5413
      6  C2        10.6900  -16.6580   14.7980 C.3   503  FOQ503      0.0985
      7  C3        11.6870  -16.1240   13.7120 C.3   503  FOQ503      0.0337
      8  C4        12.6040  -15.0140   14.2180 C.3   503  FOQ503      0.0761
      9  PA1       13.7120  -14.4670   12.9960 P.3   503  FOQ503      0.1209
     10  OP1       14.4150  -13.2790   13.5540 O.3   503  FOQ503     -0.3569
     11  OP2       12.8430  -14.1200   11.8140 O.2   503  FOQ503     -0.4598
     12  OP3       14.6230  -15.6340   12.7380 O.3   503  FOQ503     -0.3569
     13  CG        13.3890  -15.4610   15.4960 C.ar  503  FOQ503     -0.0125
     14  CD1       14.1110  -16.6870   15.5490 C.ar  503  FOQ503      0.0168
     15  CD2       13.3790  -14.6260   16.6450 C.ar  503  FOQ503      0.0168
     16  CE1       14.7810  -17.0260   16.7310 C.ar  503  FOQ503      0.0986
     17  CE2       14.0730  -15.0330   17.7920 C.ar  503  FOQ503      0.0986
     18  NZ        14.7410  -16.2020   17.8000 N.ar  503  FOQ503     -0.2423
@<TRIPOS>BOND
     1    11     9    2
     2    12     9    1
     3     9    10    1
     4     9     8    1
     5     7     8    1
     6     7     6    1
     7     2     3    1
     8     8    13    1
     9     6     3    1
    10     3     4   am
    11    13    14   ar
    12    13    15   ar
    13    14    16   ar
    14     4     5    2
    15     4     1    1
    16    15    17   ar
    17    16    18   ar
    18    17    18   ar
