@<TRIPOS>MOLECULE
4gae_NDP_A_1.pdb
 48 52 0 0 0
SMALL
GASTEIGER

@<TRIPOS>ATOM
      1  PA         3.1240  -25.6800   13.9730 P.3   501  NDP501      0.2189
      2  O1A        3.4270  -26.4420   12.7380 O.2   501  NDP501     -0.5170
      3  O2A        4.0070  -26.0590   15.1080 O.3   501  NDP501     -0.4371
      4  O5B        1.6090  -25.8760   14.3980 O.3   501  NDP501     -0.3112
      5  C5B        0.5350  -25.5890   13.5350 C.3   501  NDP501      0.1813
      6  C4B       -0.7590  -25.8780   14.2840 C.3   501  NDP501      0.1820
      7  O4B       -1.8980  -25.5860   13.4760 O.3   501  NDP501     -0.3136
      8  C3B       -0.8990  -27.3300   14.7140 C.3   501  NDP501      0.2157
      9  O3B       -1.4350  -27.3940   16.0200 O.3   501  NDP501     -0.2175
     10  C2B       -1.8510  -27.9130   13.6850 C.3   501  NDP501      0.2314
     11  O2B       -2.5450  -29.0580   14.1440 O.3   501  NDP501     -0.2630
     12  C1B       -2.7350  -26.7140   13.4140 C.3   501  NDP501      0.3158
     13  N9A       -3.4450  -26.7550   12.1100 N.pl3 501  NDP501     -0.1439
     14  C8A       -2.9320  -26.8660   10.8320 C.3   501  NDP501      0.3377
     15  N7A       -3.9740  -26.8580    9.9650 N.2   501  NDP501     -0.2095
     16  C5A       -5.1270  -26.7430   10.6810 C.2   501  NDP501      0.2526
     17  C6A       -6.4890  -26.6840   10.3340 C.2   501  NDP501      0.4393
     18  N6A       -6.8500  -26.7440    9.0540 N.pl3 501  NDP501      0.2180
     19  N1A       -7.4650  -26.5590   11.3360 N.2   501  NDP501      0.0021
     20  C2A       -7.1080  -26.4940   12.6810 C.3   501  NDP501      0.5254
     21  N3A       -5.7640  -26.5560   13.0090 N.2   501  NDP501     -0.0055
     22  C4A       -4.8020  -26.6780   12.0320 C.2   501  NDP501      0.3518
     23  O3         3.2660  -24.1090   13.5930 O.3   501  NDP501     -0.2703
     24  PN         3.7930  -22.9210   14.5440 P.3   501  NDP501      0.2189
     25  O1N        5.2600  -22.8840   14.4440 O.2   501  NDP501     -0.5170
     26  O2N        3.1240  -23.1210   15.8620 O.3   501  NDP501     -0.4371
     27  O5D        3.2470  -21.6240   13.8020 O.3   501  NDP501     -0.3112
     28  C5D        1.8720  -21.2970   13.6840 C.3   501  NDP501      0.1813
     29  C4D        1.7740  -19.8540   13.1770 C.3   501  NDP501      0.1799
     30  O4D        2.3000  -18.9180   14.1280 O.3   501  NDP501     -0.3327
     31  C3D        2.5410  -19.6420   11.8770 C.3   501  NDP501      0.2158
     32  O3D        1.6710  -18.8960   11.0470 O.3   501  NDP501     -0.2175
     33  C2D        3.7890  -18.8720   12.2840 C.3   501  NDP501      0.2309
     34  O2D        4.2780  -18.0090   11.2830 O.3   501  NDP501     -0.2158
     35  C1D        3.3290  -18.1240   13.5270 C.3   501  NDP501      0.2263
     36  N1N        4.4220  -17.8970   14.4960 N.pl3 501  NDP501     -0.2787
     37  C2N        5.0120  -18.9750   15.1410 C.3   501  NDP501      0.1244
     38  C3N        6.0330  -18.7820   16.0560 C.2   501  NDP501      0.0544
     39  C7N        6.6460  -19.9530   16.7470 C.2   501  NDP501      0.2818
     40  O7N        7.5760  -19.6470   17.7100 O.2   501  NDP501     -0.2670
     41  N7N        6.2800  -21.2090   16.5050 N.am  501  NDP501     -0.0839
     42  C4N        6.5540  -17.3700   16.3990 C.2   501  NDP501      0.0033
     43  C5N        5.8410  -16.2790   15.6380 C.2   501  NDP501      0.0157
     44  C6N        4.8140  -16.5830   14.7260 C.2   501  NDP501      0.0633
     45  P2B       -1.9410  -30.5420   14.0060 P.3   501  NDP501      0.5328
     46  O1X       -0.9020  -30.7360   15.0880 O.3   501  NDP501     -0.1145
     47  O2X       -3.0760  -31.5020   14.2320 O.3   501  NDP501     -0.1145
     48  O3X       -1.2960  -30.7160   12.6550 O.2   501  NDP501     -0.2224
@<TRIPOS>BOND
     1    18    17    1
     2    15    16    2
     3    15    14    1
     4    17    16    1
     5    17    19    2
     6    16    22    1
     7    14    13    1
     8    32    31    1
     9    34    33    1
    10    19    20    1
    11    31    33    1
    12    31    29    1
    13    22    13    1
    14    22    21    2
    15    13    12    1
    16    33    35    1
    17    48    45    2
    18    20    21    1
    19     2     1    2
    20    29    28    1
    21    29    30    1
    22    12     7    1
    23    12    10    1
    24     7     6    1
    25    35    30    1
    26    35    36    1
    27     5     6    1
    28     5     4    1
    29    23     1    1
    30    23    24    1
    31    28    27    1
    32    10    11    1
    33    10     8    1
    34    27    24    1
    35     1     4    1
    36     1     3    1
    37    45    11    1
    38    45    47    1
    39    45    46    1
    40     6     8    1
    41    25    24    2
    42    36    44    1
    43    36    37    1
    44    24    26    1
    45     8     9    1
    46    44    43    2
    47    37    38    1
    48    43    42    1
    49    38    42    2
    50    38    39    1
    51    41    39   am
    52    39    40    2
