@<TRIPOS>MOLECULE
4gah_0ET_B_2.pdb
 16 15 0 0 0
SMALL
GASTEIGER

@<TRIPOS>ATOM
      1  S1        23.1970   40.8430   64.8260 S.3   602  0ET602     -0.1360
      2  C2        24.3050   39.9950   65.9060 C.3   602  0ET602      0.0781
      3  C3        25.5700   39.6400   65.1320 C.3   602  0ET602      0.1209
      4  N4        26.5790   40.5550   65.6410 N.3   602  0ET602     -0.1304
      5  CP        22.1480   41.3530   66.1630 C.3   602  0ET602      0.0904
      6  C1M       21.1840   42.4730   65.7330 C.3   602  0ET602      0.1631
      7  O1M       19.9840   41.9310   65.1550 O.3   602  0ET602     -0.2222
      8  C2M       21.8590   43.4140   64.7310 C.3   602  0ET602      0.0385
      9  C3M       22.0390   44.8190   65.2930 C.3   602  0ET602      0.0283
     10  C4M       20.8880   45.6600   64.7880 C.2   602  0ET602     -0.0306
     11  C5M       20.8600   46.9950   64.8430 C.2   602  0ET602     -0.0307
     12  C6M       21.9840   47.8230   65.4220 C.3   602  0ET602      0.0257
     13  C7M       21.5540   49.2880   65.5340 C.3   602  0ET602      0.0047
     14  C8M       22.7730   50.1780   65.7220 C.3   602  0ET602      0.0003
     15  C9M       22.4160   51.6360   66.0290 C.3   602  0ET602      0.0000
     16  CAM       23.1660   52.5550   65.0830 C.3   602  0ET602      0.0000
@<TRIPOS>BOND
     1     8     9    1
     2     8     6    1
     3    10    11    2
     4    10     9    1
     5     1     2    1
     6     1     5    1
     7    11    12    1
     8    16    15    1
     9     3     4    1
    10     3     2    1
    11     7     6    1
    12    12    13    1
    13    13    14    1
    14    14    15    1
    15     6     5    1
