@<TRIPOS>MOLECULE
4gal_BGC_B_1.pdb
 12 12 0 0 0
SMALL
GASTEIGER

@<TRIPOS>ATOM
      1  C2         1.7190   36.4190   37.2680 C.3   999  BGC999      0.2434
      2  C3         2.4210   37.7870   37.4460 C.3   999  BGC999      0.2199
      3  C4         2.8390   38.5060   36.1280 C.3   999  BGC999      0.2144
      4  C5         1.8580   38.2300   34.9880 C.3   999  BGC999      0.1836
      5  C6         2.3180   38.7550   33.6230 C.3   999  BGC999      0.2142
      6  C1         0.8790   36.3240   35.9840 C.3   999  BGC999      0.3024
      7  O1         0.5860   34.9950   35.7450 O.3   999  BGC999     -0.1869
      8  O2         0.8690   36.2140   38.3830 O.3   999  BGC999     -0.2148
      9  O3         3.5580   37.6170   38.2860 O.3   999  BGC999     -0.2174
     10  O4         2.8510   39.9250   36.3830 O.3   999  BGC999     -0.2176
     11  O5         1.6210   36.8160   34.8690 O.3   999  BGC999     -0.3236
     12  O6         3.2750   37.8880   33.0220 O.3   999  BGC999     -0.2176
@<TRIPOS>BOND
     1    12     5    1
     2     5     4    1
     3    11     4    1
     4    11     6    1
     5     4     3    1
     6     7     6    1
     7     6     1    1
     8     3    10    1
     9     3     2    1
    10     1     2    1
    11     1     8    1
    12     2     9    1
