@<TRIPOS>MOLECULE
4gal_GAL_B_1.pdb
 11 11 0 0 0
SMALL
GASTEIGER

@<TRIPOS>ATOM
      1  C1         4.0330   40.6080   36.1350 C.3   998  GAL998      0.1777
      2  C2         3.8450   42.0890   36.4910 C.3   998  GAL998      0.2141
      3  C3         5.1840   42.8510   36.3660 C.3   998  GAL998      0.2173
      4  C4         6.2970   42.1250   37.1620 C.3   998  GAL998      0.2142
      5  C5         6.3430   40.6460   36.7410 C.3   998  GAL998      0.1810
      6  C6         7.3640   39.8030   37.4770 C.3   998  GAL998      0.2141
      7  O2         2.8820   42.6640   35.6160 O.3   998  GAL998     -0.2176
      8  O3         5.0130   44.1650   36.8730 O.3   998  GAL998     -0.2175
      9  O4         6.0290   42.2250   38.5570 O.3   998  GAL998     -0.2176
     10  O5         5.0560   40.0260   36.9510 O.3   998  GAL998     -0.3481
     11  O6         7.4950   38.5220   36.8570 O.3   998  GAL998     -0.2176
@<TRIPOS>BOND
     1     7     2    1
     2     1     2    1
     3     1    10    1
     4     3     2    1
     5     3     8    1
     6     3     4    1
     7     5    10    1
     8     5     4    1
     9     5     6    1
    10    11     6    1
    11     4     9    1
