@<TRIPOS>MOLECULE
4gap_NAD_A_1.pdb
 44 48 0 0 0
SMALL
GASTEIGER

@<TRIPOS>ATOM
      1  PA        31.0700  -14.9490  -19.6640 P.3   602  NAD602      0.2189
      2  O1A       30.3540  -15.6440  -20.7890 O.2   602  NAD602     -0.5170
      3  O2A       30.6610  -13.5510  -19.2780 O.3   602  NAD602     -0.4371
      4  O5B       32.6380  -14.9230  -20.0010 O.3   602  NAD602     -0.3112
      5  C5B       33.1420  -15.7430  -21.0490 C.3   602  NAD602      0.1813
      6  C4B       34.6530  -15.5910  -21.0920 C.3   602  NAD602      0.1821
      7  O4B       35.1960  -16.2550  -22.2360 O.3   602  NAD602     -0.3135
      8  C3B       35.0580  -14.1310  -21.1900 C.3   602  NAD602      0.2184
      9  O3B       35.8450  -13.7740  -20.0510 O.3   602  NAD602     -0.2174
     10  C2B       35.8620  -14.0150  -22.4720 C.3   602  NAD602      0.2570
     11  O2B       37.0320  -13.2110  -22.2990 O.3   602  NAD602     -0.2130
     12  C1B       36.2270  -15.4500  -22.8080 C.3   602  NAD602      0.3186
     13  N9A       36.3130  -15.6560  -24.2690 N.pl3 602  NAD602     -0.1439
     14  C8A       35.5360  -15.0760  -25.2020 C.3   602  NAD602      0.3377
     15  N7A       35.8910  -15.4960  -26.4450 N.2   602  NAD602     -0.2095
     16  C5A       36.9140  -16.3580  -26.3030 C.2   602  NAD602      0.2526
     17  C6A       37.7610  -17.1620  -27.2060 C.2   602  NAD602      0.4393
     18  N6A       37.5700  -17.1220  -28.5450 N.pl3 602  NAD602      0.2180
     19  N1A       38.7180  -17.9330  -26.6460 N.2   602  NAD602      0.0021
     20  C2A       38.9190  -17.9820  -25.3120 C.3   602  NAD602      0.5254
     21  N3A       38.1840  -17.2720  -24.4380 N.2   602  NAD602     -0.0055
     22  C4A       37.1880  -16.4610  -24.8660 C.2   602  NAD602      0.3518
     23  O3        31.0050  -15.8950  -18.3580 O.3   602  NAD602     -0.2703
     24  PN        30.1150  -17.2430  -18.3310 P.3   602  NAD602      0.2189
     25  O1N       30.5170  -18.0720  -17.1320 O.3   602  NAD602     -0.4371
     26  O2N       30.1520  -17.8600  -19.7080 O.2   602  NAD602     -0.5170
     27  O5D       28.6240  -16.6850  -18.0610 O.3   602  NAD602     -0.3112
     28  C5D       27.9080  -17.1000  -16.9010 C.3   602  NAD602      0.1813
     29  C4D       27.3190  -15.8860  -16.1940 C.3   602  NAD602      0.1799
     30  O4D       26.9730  -16.2100  -14.8440 O.3   602  NAD602     -0.3327
     31  C3D       28.2950  -14.7170  -16.1190 C.3   602  NAD602      0.2158
     32  O3D       27.8170  -13.6170  -16.8990 O.3   602  NAD602     -0.2175
     33  C2D       28.3760  -14.3370  -14.6490 C.3   602  NAD602      0.2309
     34  O2D       28.3080  -12.9180  -14.4650 O.3   602  NAD602     -0.2158
     35  C1D       27.1810  -15.0490  -14.0390 C.3   602  NAD602      0.2263
     36  N1N       27.3640  -15.4220  -12.6350 N.pl3 602  NAD602     -0.2787
     37  C2N       26.7100  -14.7340  -11.6920 C.3   602  NAD602      0.1244
     38  C3N       26.8440  -15.0680  -10.3540 C.2   602  NAD602      0.0544
     39  C7N       26.0860  -14.2970   -9.3200 C.2   602  NAD602      0.2818
     40  O7N       25.4120  -14.9140   -8.5090 O.2   602  NAD602     -0.2670
     41  N7N       26.1410  -12.9690   -9.3300 N.am  602  NAD602     -0.0839
     42  C4N       27.6550  -16.1350   -9.9990 C.2   602  NAD602      0.0033
     43  C5N       28.3200  -16.8380  -10.9930 C.2   602  NAD602      0.0157
     44  C6N       28.1470  -16.4570  -12.3180 C.2   602  NAD602      0.0633
@<TRIPOS>BOND
     1    18    17    1
     2    17    19    2
     3    17    16    1
     4    19    20    1
     5    15    16    2
     6    15    14    1
     7    16    22    1
     8    20    21    1
     9    14    13    1
    10    22    21    2
    11    22    13    1
    12    13    12    1
    13    12    10    1
    14    12     7    1
    15    10    11    1
    16    10     8    1
    17     7     6    1
    18     8     6    1
    19     8     9    1
    20     6     5    1
    21     5     4    1
    22     2     1    2
    23     4     1    1
    24    26    24    2
    25     1     3    1
    26     1    23    1
    27    23    24    1
    28    24    27    1
    29    24    25    1
    30    27    28    1
    31    28    29    1
    32    32    31    1
    33    29    31    1
    34    29    30    1
    35    31    33    1
    36    30    35    1
    37    33    34    1
    38    33    35    1
    39    35    36    1
    40    36    44    1
    41    36    37    1
    42    44    43    2
    43    37    38    1
    44    43    42    1
    45    38    42    2
    46    38    39    1
    47    41    39   am
    48    39    40    2
