@<TRIPOS>MOLECULE
4gav_UQ2_A_1.pdb
 23 23 0 0 0
SMALL
GASTEIGER

@<TRIPOS>ATOM
      1  C1        -6.2440  -14.7870   67.8970 C.2   602  UQ2602      0.2285
      2  C2        -7.6350  -14.2760   68.0260 C.2   602  UQ2602      0.2140
      3  C3        -8.2990  -13.6030   66.8820 C.2   602  UQ2602      0.2140
      4  C4        -7.5570  -13.4430   65.6030 C.2   602  UQ2602      0.2282
      5  C5        -6.1640  -13.9530   65.4790 C.2   602  UQ2602      0.0198
      6  C6        -5.5060  -14.6230   66.6240 C.2   602  UQ2602      0.0235
      7  CM2       -8.6850  -13.2380   69.9370 C.3   602  UQ2602      0.2528
      8  CM3      -10.6960  -13.9790   66.7080 C.3   602  UQ2602      0.2528
      9  CM5       -5.4090  -13.8090   64.1870 C.3   602  UQ2602      0.0343
     10  C7        -4.1000  -15.1520   66.4700 C.3   602  UQ2602      0.0548
     11  C8        -4.0840  -16.1480   65.3300 C.2   602  UQ2602     -0.0298
     12  C9        -4.4680  -17.4100   65.5520 C.2   602  UQ2602     -0.0475
     13  C10       -4.9020  -17.7860   66.9350 C.3   602  UQ2602      0.0260
     14  C11       -4.4720  -18.4330   64.4360 C.3   602  UQ2602      0.0264
     15  C12       -5.0580  -19.7660   64.9040 C.3   602  UQ2602      0.0297
     16  C13       -3.9730  -20.8180   65.0080 C.2   602  UQ2602     -0.0342
     17  C14       -4.2530  -22.0720   65.3910 C.2   602  UQ2602     -0.0478
     18  C15       -3.1740  -23.1100   65.4930 C.3   602  UQ2602      0.0260
     19  C16       -5.6630  -22.4410   65.7160 C.3   602  UQ2602      0.0260
     20  O1        -5.6850  -15.3520   68.8550 O.2   602  UQ2602     -0.2835
     21  O2        -8.3220  -14.4090   69.2010 O.2   602  UQ2602     -0.4652
     22  O3        -9.5850  -13.1380   67.0160 O.2   602  UQ2602     -0.4652
     23  O4        -8.1010  -12.8840   64.6270 O.2   602  UQ2602     -0.2836
@<TRIPOS>BOND
     1     9     5    1
     2    14    15    1
     3    14    12    1
     4    23     4    2
     5    15    16    1
     6    16    17    2
     7    11    12    2
     8    11    10    1
     9    17    18    1
    10    17    19    1
    11     5     4    1
    12     5     6    2
    13    12    13    1
    14     4     3    1
    15    10     6    1
    16     6     1    1
    17     8    22    1
    18     3    22    1
    19     3     2    2
    20     1     2    1
    21     1    20    2
    22     2    21    1
    23    21     7    1
