@<TRIPOS>MOLECULE
4gb1_0LP_A_1.pdb
 29 30 0 0 0
SMALL
GASTEIGER

@<TRIPOS>ATOM
      1  CAA      -16.0090   26.1900    6.8980 C.3   501  0LP501      0.0964
      2  CAT      -16.5630   25.6610    8.2120 C.2   501  0LP501      0.2420
      3  OAB      -15.8530   25.7210    9.2200 O.2   501  0LP501     -0.2733
      4  NAR      -17.8270   25.1480    8.1380 N.am  501  0LP501     -0.2004
      5  CBB      -18.5650   24.5930    9.3050 C.3   501  0LP501      0.1719
      6  CAZ      -18.2110   23.0810    9.4370 C.3   501  0LP501      0.1972
      7  OAG      -16.8570   22.9660    9.9500 O.3   501  0LP501     -0.2165
      8  CBC      -20.1050   24.8360    9.1310 C.3   501  0LP501      0.2215
      9  CBA      -20.6730   26.1650    9.6440 C.3   501  0LP501      0.2261
     10  OAH      -19.6580   27.0490   10.1550 O.3   501  0LP501     -0.2164
     11  CAY      -21.6730   26.7970    8.6070 C.3   501  0LP501      0.2185
     12  OAF      -22.1680   25.9220    7.5580 O.3   501  0LP501     -0.2174
     13  CAP      -21.0590   28.0210    7.9560 C.3   501  0LP501      0.2175
     14  OAD      -21.9260   29.0800    8.3150 O.3   501  0LP501     -0.2175
     15  OAS      -20.9350   23.9490    9.8730 O.2   501  0LP501     -0.4686
     16  CAW      -20.5100   22.7690   10.4430 C.2   501  0LP501      0.2127
     17  CAU      -21.6050   22.2270   11.1790 C.2   501  0LP501      0.4205
     18  OAE      -21.4340   21.3280   12.0640 O.co2 501  0LP501     -0.2371
     19  OAC      -22.7780   22.6860   10.9140 O.co2 501  0LP501     -0.2371
     20  CAV      -19.1640   22.2850   10.1720 C.2   501  0LP501      0.0323
     21  CAQ      -18.7190   20.8370   10.4390 C.3   501  0LP501      0.0538
     22  CAI      -17.9180   20.5790   11.7150 C.2   501  0LP501     -0.0216
     23  CAJ      -16.6680   19.9720   11.5750 C.2   501  0LP501     -0.0042
     24  CAX      -15.8930   19.7390   12.8830 C.ar  501  0LP501     -0.0003
     25  CAN      -16.5350   19.1650   13.9970 C.ar  501  0LP501     -0.0000
     26  CAL      -15.8800   18.9220   15.2090 C.ar  501  0LP501     -0.0000
     27  CAK      -14.5370   19.2620   15.3310 C.ar  501  0LP501     -0.0000
     28  CAM      -13.8650   19.8310   14.2380 C.ar  501  0LP501     -0.0000
     29  CAO      -14.5380   20.0690   13.0210 C.ar  501  0LP501     -0.0000
@<TRIPOS>BOND
     1     1     2    1
     2    12    11    1
     3    13    14    1
     4    13    11    1
     5     4     2   am
     6     4     5    1
     7     2     3    2
     8    11     9    1
     9     8     5    1
    10     8     9    1
    11     8    15    1
    12     5     6    1
    13     6     7    1
    14     6    20    1
    15     9    10    1
    16    15    16    1
    17    20    21    1
    18    20    16    2
    19    21    22    1
    20    16    17    1
    21    19    17   ar
    22    17    18   ar
    23    23    22    2
    24    23    24    1
    25    24    29   ar
    26    24    25   ar
    27    29    28   ar
    28    25    26   ar
    29    28    27   ar
    30    26    27   ar
