@<TRIPOS>MOLECULE
4gb9_0WR_A_1.pdb
 39 44 0 0 0
SMALL
GASTEIGER

@<TRIPOS>ATOM
      1  C1         9.0550   -2.9520   16.6550 C.3   1201  0WR1201     0.0329
      2  N1        13.4260   -1.4250   18.9060 N.3   1201  0WR1201    -0.2656
      3  O1        15.1030   -8.2290   22.2000 O.3   1201  0WR1201    -0.3501
      4  C2         9.3100   -2.3920   18.0510 C.3   1201  0WR1201     0.1268
      5  N2        15.4750   -3.4400   19.7570 N.2   1201  0WR1201    -0.3817
      6  O2         9.2420   -3.4290   18.9540 O.3   1201  0WR1201    -0.2257
      7  C3         8.2310   -1.3550   18.3930 C.3   1201  0WR1201     0.0329
      8  N3        17.0700   -2.0030   19.1310 N.pl3 1201  0WR1201    -0.2358
      9  C4        10.7070   -1.6580   18.1060 C.3   1201  0WR1201     0.0308
     10  N4        18.9750   -3.7330   19.0560 N.2   1201  0WR1201    -0.3092
     11  C5        11.0570   -1.2920   19.5000 C.3   1201  0WR1201     0.0198
     12  N5        18.3460   -5.9430   19.6190 N.2   1201  0WR1201    -0.3096
     13  C6        12.3950   -0.6490   19.5700 C.3   1201  0WR1201     0.0726
     14  N6        16.1480   -6.5970   20.2440 N.pl3 1201  0WR1201    -0.2755
     15  C7        13.0680   -1.7800   17.5420 C.3   1201  0WR1201     0.0726
     16  C8        11.7260   -2.4380   17.4720 C.3   1201  0WR1201     0.0198
     17  C9        14.7540   -0.9400   19.4390 C.3   1201  0WR1201     0.1484
     18  C10       15.7670   -2.1020   19.4350 C.2   1201  0WR1201     0.1823
     19  C11       16.6720   -4.1820   19.6440 C.2   1201  0WR1201     0.2221
     20  C12       17.6660   -3.2940   19.2590 C.2   1201  0WR1201     0.2361
     21  C13       17.8240   -0.8550   18.7350 C.3   1201  0WR1201     0.1220
     22  C14       19.2790   -5.0240   19.2460 C.1   1201  0WR1201     0.2128
     23  C15       17.0550   -5.5630   19.8370 C.2   1201  0WR1201     0.2309
     24  C16       14.8200   -6.4150   20.6780 C.3   1201  0WR1201     0.1253
     25  C17       14.5950   -6.9320   22.0600 C.3   1201  0WR1201     0.1636
     26  C18       16.4820   -8.2780   21.9230 C.3   1201  0WR1201     0.1636
     27  C19       16.7280   -7.8550   20.5180 C.3   1201  0WR1201     0.1253
     28  N7        20.5970   -5.4580   19.0040 N.pl3 1201  0WR1201    -0.1659
     29  C20       21.2250   -6.5160   19.6440 C.3   1201  0WR1201     0.1666
     30  C21       20.8400   -7.3960   20.6420 C.2   1201  0WR1201     0.0016
     31  C22       21.7260   -8.3610   21.0720 C.2   1201  0WR1201    -0.0024
     32  C23       22.9920   -8.4550   20.5160 C.2   1201  0WR1201     0.0021
     33  C24       23.3910   -7.5900   19.5230 C.2   1201  0WR1201     0.0297
     34  C25       22.5070   -6.6040   19.0790 C.2   1201  0WR1201     0.1353
     35  N8        22.6010   -5.6290   18.1390 N.2   1201  0WR1201    -0.3745
     36  C26       21.4830   -4.9530   18.0860 C.cat 1201  0WR1201     0.2553
     37  N9        21.2400   -3.8880   17.2420 N.pl3 1201  0WR1201    -0.2673
     38  C27       20.1500   -4.1760   16.2970 C.3   1201  0WR1201     0.1159
     39  C28       22.4570   -3.4570   16.5420 C.3   1201  0WR1201     0.1159
@<TRIPOS>BOND
     1    38    37    1
     2    39    37    1
     3     1     4    1
     4    37    36    1
     5    16    15    1
     6    16     9    1
     7    15     2    1
     8     4     9    1
     9     4     7    1
    10     4     6    1
    11    36    35    2
    12    36    28    1
    13     9    11    1
    14    35    34    2
    15    21     8    1
    16     2    17    1
    17     2    13    1
    18    28    22    1
    19    28    29    1
    20    10    22    2
    21    10    20    2
    22    34    33    1
    23    34    29    1
    24     8    20    1
    25     8    18    1
    26    22    12    2
    27    20    19    1
    28    18    17    1
    29    18     5    2
    30    11    13    1
    31    33    32    2
    32    12    23    2
    33    29    30    1
    34    19     5    2
    35    19    23    1
    36    23    14    1
    37    14    27    1
    38    14    24    1
    39    32    31    1
    40    27    26    1
    41    30    31    2
    42    24    25    1
    43    26     3    1
    44    25     3    1
