@<TRIPOS>MOLECULE
4gbm_A3P_A_1.pdb
 27 29 0 0 0
SMALL
GASTEIGER

@<TRIPOS>ATOM
      1  P1        23.7280   11.9430   36.6410 P.3   406  A3P406      0.5327
      2  O1P       22.7810   12.9930   37.1640 O.3   406  A3P406     -0.1145
      3  O2P       23.9230   10.7850   37.5870 O.3   406  A3P406     -0.1145
      4  O3P       23.4500   11.5560   35.2160 O.2   406  A3P406     -0.2224
      5  P2        29.6920   15.4860   38.6180 P.3   406  A3P406      0.5327
      6  O4P       30.5130   16.4840   37.8650 O.2   406  A3P406     -0.2224
      7  O5P       28.5560   16.0530   39.4210 O.3   406  A3P406     -0.1145
      8  O6P       30.5290   14.4940   39.3810 O.3   406  A3P406     -0.1145
      9  O5'       28.9380   14.6340   37.4680 O.3   406  A3P406     -0.2675
     10  C5'       27.8890   13.7340   37.8400 C.3   406  A3P406      0.1859
     11  C4'       27.5690   12.9190   36.6110 C.3   406  A3P406      0.1796
     12  O4'       28.6560   12.0200   36.3590 O.3   406  A3P406     -0.3136
     13  C3'       26.3750   12.0060   36.8100 C.3   406  A3P406      0.1928
     14  O3'       25.1520   12.7290   36.6040 O.3   406  A3P406     -0.2673
     15  C2'       26.6500   10.9300   35.7660 C.3   406  A3P406      0.2543
     16  O2'       26.0930   11.2910   34.4990 O.3   406  A3P406     -0.2131
     17  C1'       28.1690   10.8960   35.6370 C.3   406  A3P406      0.3185
     18  N9        28.7110    9.6560   36.2490 N.pl3 406  A3P406     -0.1439
     19  C8        28.7950    9.3480   37.5600 C.3   406  A3P406      0.3377
     20  N7        29.3200    8.1070   37.7430 N.2   406  A3P406     -0.2095
     21  C5        29.5740    7.6110   36.5140 C.2   406  A3P406      0.2526
     22  C6        30.1340    6.3560   35.9580 C.2   406  A3P406      0.4393
     23  N6        30.5440    5.3680   36.7910 N.pl3 406  A3P406      0.2180
     24  N1        30.2220    6.2520   34.6050 N.2   406  A3P406      0.0021
     25  C2        29.8300    7.2410   33.7700 C.3   406  A3P406      0.5254
     26  N3        29.3190    8.4090   34.2130 N.2   406  A3P406     -0.0055
     27  C4        29.1820    8.6320   35.5400 C.2   406  A3P406      0.3518
@<TRIPOS>BOND
     1    25    26    1
     2    25    24    1
     3    26    27    2
     4    16    15    1
     5    24    22    2
     6     4     1    2
     7    27    18    1
     8    27    21    1
     9    17    15    1
    10    17    18    1
    11    17    12    1
    12    15    13    1
    13    22    21    1
    14    22    23    1
    15    18    19    1
    16    12    11    1
    17    21    20    2
    18    14     1    1
    19    14    13    1
    20    11    13    1
    21    11    10    1
    22     1     2    1
    23     1     3    1
    24     9    10    1
    25     9     5    1
    26    19    20    1
    27     6     5    2
    28     5     8    1
    29     5     7    1
