@<TRIPOS>MOLECULE
4gbr_CAU_A_1.pdb
 22 24 0 0 0
SMALL
GASTEIGER

@<TRIPOS>ATOM
      1  O17       10.0100   15.7020   46.5190 O.3   500  CAU500     -0.2176
      2  C16       11.1680   16.0610   47.1360 C.3   500  CAU500      0.2126
      3  C18       11.1870   15.3050   48.4660 C.3   500  CAU500      0.1253
      4  N19       10.3250   14.0920   48.5880 N.3   500  CAU500     -0.2167
      5  C20       10.1650   13.7590   49.9980 C.3   500  CAU500      0.0730
      6  C21       10.5370   12.3260   50.3400 C.3   500  CAU500      0.0188
      7  C22        8.8550   14.2060   50.5830 C.3   500  CAU500      0.0188
      8  C15       12.3290   15.8090   46.1500 C.3   500  CAU500      0.2395
      9  O14       13.5440   15.4440   46.7140 O.2   500  CAU500     -0.4729
     10  C13       14.7240   15.6330   46.0320 C.2   500  CAU500      0.1372
     11  C12       14.8430   15.2610   44.6690 C.2   500  CAU500      0.0325
     12  C11       16.0620   15.4600   43.9860 C.2   500  CAU500     -0.0156
     13  C10       17.1760   16.0300   44.6500 C.3   500  CAU500      0.0848
     14  C8        17.0540   16.3980   46.0080 C.2   500  CAU500      0.1126
     15  C9        15.8410   16.2000   46.6890 C.2   500  CAU500      0.0479
     16  N7        18.0290   16.9820   46.8740 N.2   500  CAU500     -0.4098
     17  C3        17.3940   17.1490   48.1340 C.2   500  CAU500      0.1165
     18  C4        16.0800   16.6980   48.0820 C.3   500  CAU500      0.1016
     19  C2        17.9360   17.6760   49.2870 C.2   500  CAU500      0.0282
     20  C1        17.0970   17.7390   50.4210 C.2   500  CAU500      0.0020
     21  C6        15.7520   17.2770   50.3700 C.2   500  CAU500     -0.0038
     22  C5        15.2230   16.7520   49.2070 C.2   500  CAU500     -0.0148
@<TRIPOS>BOND
     1    12    13    1
     2    12    11    2
     3    13    14    1
     4    11    10    1
     5    14    15    1
     6    14    16    2
     7    10    15    2
     8    10     9    1
     9     8     9    1
    10     8     2    1
    11     1     2    1
    12    15    18    1
    13    16    17    2
    14     2     3    1
    15    18    17    1
    16    18    22    1
    17    17    19    1
    18     3     4    1
    19     4     5    1
    20    22    21    2
    21    19    20    2
    22     5     6    1
    23     5     7    1
    24    21    20    1
