@<TRIPOS>MOLECULE
4gbu_FMN_A_1.pdb
 31 33 0 0 0
SMALL
GASTEIGER

@<TRIPOS>ATOM
      1  N1         3.3110  -35.5990  -10.5710 N.2   412  FMN412     -0.2887
      2  C2         2.5390  -34.9410   -9.6710 C.1   412  FMN412      0.3669
      3  O2         2.9550  -33.8700   -9.1600 O.2   412  FMN412     -0.1744
      4  N3         1.3180  -35.4050   -9.2850 N.2   412  FMN412     -0.2300
      5  C4         0.7570  -36.5220   -9.7840 C.1   412  FMN412      0.2513
      6  O4        -0.3400  -36.9450   -9.3540 O.2   412  FMN412     -0.2057
      7  C4A        1.5130  -37.2410  -10.8060 C.2   412  FMN412      0.2706
      8  N5         1.0320  -38.3690  -11.3590 N.2   412  FMN412     -0.3841
      9  C5A        1.7960  -39.0560  -12.2440 C.2   412  FMN412      0.1452
     10  C6         1.3230  -40.2230  -12.7910 C.2   412  FMN412      0.0252
     11  C7         2.0700  -40.9680  -13.6680 C.2   412  FMN412     -0.0375
     12  C7M        1.5370  -42.2620  -14.2220 C.3   412  FMN412      0.0268
     13  C8         3.3890  -40.5050  -14.0300 C.3   412  FMN412      0.0417
     14  C8M        4.2130  -41.2730  -15.0100 C.3   412  FMN412      0.0091
     15  C9         3.9090  -39.3480  -13.4760 C.2   412  FMN412     -0.0049
     16  C9A        3.1300  -38.6060  -12.5970 C.2   412  FMN412      0.0795
     17  N10        3.5970  -37.4330  -11.9920 N.pl3 412  FMN412     -0.2545
     18  C10        2.8350  -36.7290  -11.1110 C.2   412  FMN412      0.2449
     19  C1'        4.9810  -36.9960  -12.2290 C.3   412  FMN412      0.1336
     20  C2'        5.9160  -37.8210  -11.2790 C.3   412  FMN412      0.2048
     21  O2'        5.7240  -37.4820   -9.9040 O.3   412  FMN412     -0.2185
     22  C3'        7.4170  -37.6140  -11.5850 C.3   412  FMN412      0.2165
     23  O3'        7.7840  -36.2390  -11.3980 O.3   412  FMN412     -0.2175
     24  C4'        7.7990  -38.0330  -13.0180 C.3   412  FMN412      0.2147
     25  O4'        7.1620  -39.2750  -13.3250 O.3   412  FMN412     -0.2176
     26  C5'        9.3070  -38.1000  -13.1860 C.3   412  FMN412      0.1892
     27  O5'        9.9370  -39.0280  -12.2900 O.3   412  FMN412     -0.2674
     28  P         10.3140  -40.5220  -12.7790 P.3   412  FMN412      0.5327
     29  O1P        9.0100  -41.2240  -13.1190 O.3   412  FMN412     -0.1145
     30  O2P       11.2100  -40.3760  -13.9710 O.2   412  FMN412     -0.2224
     31  O3P       11.0070  -41.1210  -11.5810 O.3   412  FMN412     -0.1145
@<TRIPOS>BOND
     1    14    13    1
     2    12    11    1
     3    13    11    1
     4    13    15    1
     5    30    28    2
     6    11    10    2
     7    15    16    2
     8    25    24    1
     9    26    24    1
    10    26    27    1
    11    29    28    1
    12    24    22    1
    13    10     9    1
    14    28    27    1
    15    28    31    1
    16    16     9    1
    17    16    17    1
    18     9     8    2
    19    19    17    1
    20    19    20    1
    21    17    18    1
    22    22    23    1
    23    22    20    1
    24     8     7    2
    25    20    21    1
    26    18     7    1
    27    18     1    2
    28     7     5    1
    29     1     2    2
    30     5     6    2
    31     5     4    2
    32     2     4    2
    33     2     3    2
