@<TRIPOS>MOLECULE
4gbu_0WV_A_1.pdb
 11 11 0 0 0
SMALL
GASTEIGER

@<TRIPOS>ATOM
      1  C4        -1.9330  -36.2750  -13.1890 C.ar  402  0WV402     -0.0004
      2  C5        -2.1880  -35.4140  -12.0670 C.ar  402  0WV402     -0.0008
      3  C6        -1.0860  -34.5880  -11.7260 C.ar  402  0WV402      0.0414
      4  C7         1.6710  -35.4210  -14.1050 C.3   402  0WV402      0.0344
      5  C8        -3.4800  -35.3250  -11.2960 C.2   402  0WV402     -0.0217
      6  C9        -3.4690  -34.7470  -10.0670 C.2   402  0WV402     -0.0046
      7  C10       -4.7110  -36.0550  -11.7020 C.3   402  0WV402      0.0310
      8  C3        -0.6830  -36.2700  -13.8420 C.ar  402  0WV402     -0.0011
      9  C1         0.1330  -34.6360  -12.4060 C.ar  402  0WV402      0.1917
     10  O1         1.1170  -33.7900  -12.0160 O.3   402  0WV402     -0.2869
     11  C2         0.3320  -35.4580  -13.4430 C.ar  402  0WV402      0.0171
@<TRIPOS>BOND
     1     4    11    1
     2     8    11   ar
     3     8     1   ar
     4    11     9   ar
     5     1     2   ar
     6     9    10    1
     7     9     3   ar
     8     2     3   ar
     9     2     5    1
    10     7     5    1
    11     5     6    2
