@<TRIPOS>MOLECULE
4gc6_0OH_A_1.pdb
 23 26 0 0 0
SMALL
GASTEIGER

@<TRIPOS>ATOM
      1  OAT       20.5040   12.2630   56.2460 O.2   401  0OH401     -0.2224
      2  PBD       21.2080   11.8940   57.6010 P.3   401  0OH401      0.5326
      3  OAH       22.4950   12.6850   57.7500 O.3   401  0OH401     -0.1145
      4  OAC       21.3560   10.3940   57.6260 O.3   401  0OH401     -0.1145
      5  OAR       20.3470   12.3040   58.8340 O.3   401  0OH401     -0.2702
      6  CAL       20.7890   11.9090   60.0950 C.3   401  0OH401      0.1562
      7  CBB       19.8230   11.1620   60.9810 C.3   401  0OH401      0.0601
      8  CAZ       19.4750   11.8840   62.2730 C.3   401  0OH401      0.0478
      9  CAN       20.3360   10.6340   62.2950 C.3   401  0OH401      0.0092
     10  CAX       18.5260   10.6430   60.4290 C.3   401  0OH401      0.1583
     11  OAE       18.7020    9.3710   59.9940 O.3   401  0OH401     -0.2229
     12  CAM       17.5530   10.7190   61.5500 C.3   401  0OH401      0.0795
     13  CAY       17.9640   11.8720   62.3760 C.3   401  0OH401      0.1646
     14  N9        17.3860   13.1440   61.9230 N.pl3 401  0OH401     -0.1716
     15  C8        18.0260   14.0490   61.1580 C.3   401  0OH401      0.3357
     16  N7        17.2030   15.0840   60.9270 N.2   401  0OH401     -0.2096
     17  C5        16.0080   14.8750   61.5420 C.2   401  0OH401      0.2525
     18  C4        16.1300   13.6310   62.1790 C.2   401  0OH401      0.3499
     19  N3        15.0810   13.1410   62.8810 N.2   401  0OH401     -0.0055
     20  C2        13.9330   13.8360   62.9680 C.3   401  0OH401      0.5254
     21  N1        13.7880   15.0320   62.3660 N.2   401  0OH401      0.0021
     22  C6        14.7840   15.5750   61.6540 C.2   401  0OH401      0.4393
     23  N6        14.5870   16.8570   61.0210 N.pl3 401  0OH401      0.2180
@<TRIPOS>BOND
     1     1     2    2
     2     2     4    1
     3     2     3    1
     4     2     5    1
     5     5     6    1
     6    11    10    1
     7     6     7    1
     8    10     7    1
     9    10    12    1
    10    16    15    1
    11    16    17    2
    12     7     8    1
    13     7     9    1
    14    23    22    1
    15    15    14    1
    16    17    22    1
    17    17    18    1
    18    12    13    1
    19    22    21    2
    20    14    18    1
    21    14    13    1
    22    18    19    2
    23     8     9    1
    24     8    13    1
    25    21    20    1
    26    19    20    1
