@<TRIPOS>MOLECULE
4gc7_0OJ_A_1.pdb
 27 30 0 0 0
SMALL
GASTEIGER

@<TRIPOS>ATOM
      1  OAS       13.0360  -34.0490  151.0730 O.3   401  0OJ401     -0.1143
      2  PBE       13.3160  -34.1300  149.5210 P.3   401  0OJ401      0.5373
      3  OAI       14.7450  -33.6510  149.3410 O.3   401  0OJ401     -0.1143
      4  OAD       12.3690  -33.2190  148.7720 O.2   401  0OJ401     -0.2221
      5  OAT       13.2540  -35.5920  148.9040 O.3   401  0OJ401     -0.2261
      6  PBD       12.0410  -36.1040  148.0220 P.3   401  0OJ401      0.2230
      7  OAH       12.1080  -37.6110  147.9860 O.3   401  0OJ401     -0.4370
      8  OAC       12.1430  -35.5910  146.6010 O.2   401  0OJ401     -0.5169
      9  OAR       10.6650  -35.6280  148.6940 O.3   401  0OJ401     -0.3137
     10  CAL        9.6830  -34.8400  148.0400 C.3   401  0OJ401      0.1517
     11  CAY        8.4840  -35.5070  147.5990 C.3   401  0OJ401      0.0645
     12  CAZ        7.5950  -34.4820  146.8540 C.3   401  0OJ401      0.0479
     13  CAN        6.6030  -34.6120  145.7110 C.3   401  0OJ401      0.0468
     14  CAX        8.8960  -36.4770  146.5530 C.3   401  0OJ401      0.1584
     15  OAE        7.8950  -37.3520  146.3500 O.3   401  0OJ401     -0.2229
     16  CAM        9.1260  -35.6130  145.3550 C.3   401  0OJ401      0.0757
     17  CBB        8.0780  -34.5620  145.4160 C.3   401  0OJ401      0.1300
     18  N9         8.4270  -33.6020  144.3760 N.pl3 401  0OJ401     -0.1754
     19  C8         9.2940  -32.6030  144.6230 C.3   401  0OJ401      0.3356
     20  N7         9.4690  -31.8770  143.5040 N.2   401  0OJ401     -0.2096
     21  C5         8.7020  -32.4310  142.5340 C.2   401  0OJ401      0.2525
     22  C4         8.0440  -33.5380  143.0790 C.2   401  0OJ401      0.3498
     23  N3         7.2140  -34.2810  142.3070 N.2   401  0OJ401     -0.0056
     24  C2         7.0060  -33.9670  141.0150 C.3   401  0OJ401      0.5254
     25  N1         7.6130  -32.9110  140.4560 N.2   401  0OJ401      0.0021
     26  C6         8.4510  -32.1400  141.1830 C.2   401  0OJ401      0.4393
     27  N6         9.1100  -31.0010  140.5780 N.pl3 401  0OJ401      0.2180
@<TRIPOS>BOND
     1    25    24    1
     2    25    26    2
     3    27    26    1
     4    24    23    1
     5    26    21    1
     6    23    22    2
     7    21    22    1
     8    21    20    2
     9    22    18    1
    10    20    19    1
    11    18    19    1
    12    18    17    1
    13    16    17    1
    14    16    14    1
    15    17    13    1
    16    17    12    1
    17    13    12    1
    18    15    14    1
    19    14    11    1
    20     8     6    2
    21    12    11    1
    22    11    10    1
    23     7     6    1
    24     6     9    1
    25     6     5    1
    26    10     9    1
    27     4     2    2
    28     5     2    1
    29     3     2    1
    30     2     1    1
