@<TRIPOS>MOLECULE
4gch_DMC_G_1.pdb
 17 17 0 0 0
SMALL
GASTEIGER

@<TRIPOS>ATOM
      1  O         36.7650   76.1440   83.6440 O.2   246  DMC246     -0.2835
      2  C         37.2170   76.4890   84.7390 C.2   246  DMC246      0.2299
      3  CA        36.5190   76.4960   86.1410 C.2   246  DMC246      0.0204
      4  CB1       37.6810   77.0740   87.1790 C.2   246  DMC246      0.0019
      5  CB2       35.1940   75.9670   86.0640 C.3   246  DMC246      0.0345
      6  CG        37.4370   77.2280   88.8720 C.2   246  DMC246      0.0349
      7  CD1       38.4880   77.7180   89.6090 C.2   246  DMC246      0.1787
      8  CE1       38.3350   77.7870   90.9890 C.3   246  DMC246      0.1110
      9  CZ        37.1270   77.4090   91.6110 C.2   246  DMC246      0.0444
     10  CE2       36.1210   76.9090   90.8510 C.2   246  DMC246      0.0116
     11  CD2       36.2550   76.8050   89.5220 C.2   246  DMC246      0.0038
     12  OH        39.4430   78.0540   89.2870 O.2   246  DMC246     -0.2909
     13  N         36.9620   77.4920   92.8180 N.pl3 246  DMC246     -0.2506
     14  CH1       35.5670   77.3930   93.3740 C.1   246  DMC246      0.0175
     15  CH2       38.3490   78.5180   93.5110 C.3   246  DMC246      0.1047
     16  CM1       34.3270   77.1860   93.6240 C.1   246  DMC246      0.0075
     17  CM2       39.7120   79.1760   92.5860 C.3   246  DMC246      0.0244
@<TRIPOS>BOND
     1     1     2    2
     2     2     3    1
     3     5     3    1
     4     3     4    2
     5     4     6    1
     6     6    11    2
     7     6     7    1
     8    12     7    2
     9    11    10    1
    10     7     8    1
    11    10     9    2
    12     8     9    1
    13     9    13    1
    14    17    15    1
    15    13    14    1
    16    13    15    1
    17    14    16    3
