@<TRIPOS>MOLECULE
4gci_GSH_A_1.pdb
 20 19 0 0 0
SMALL
GASTEIGER

@<TRIPOS>ATOM
      1  N1       -11.3940   98.3830   65.6290 N.3   302  GSH302     -0.1208
      2  CA1      -11.4470   97.9830   67.0200 C.3   302  GSH302      0.1948
      3  C1       -10.2040   97.2140   67.3420 C.2   302  GSH302      0.3819
      4  O11       -9.7170   97.2140   68.5060 O.co2 302  GSH302     -0.2441
      5  O12       -9.6470   96.5400   66.4300 O.co2 302  GSH302     -0.2441
      6  CB1      -12.6780   97.1370   67.2330 C.3   302  GSH302      0.0402
      7  CG1      -12.7190   96.5560   68.6500 C.3   302  GSH302      0.0889
      8  CD1      -14.0980   95.9310   68.8750 C.2   302  GSH302      0.2418
      9  OE1      -14.7760   95.5540   67.9340 O.2   302  GSH302     -0.2733
     10  N2       -14.5910   95.7810   70.2360 N.am  302  GSH302     -0.1968
     11  CA2      -15.8970   95.2080   70.4770 C.3   302  GSH302      0.1843
     12  C2       -16.6610   96.2970   71.1810 C.2   302  GSH302      0.2627
     13  O2       -16.1280   96.9710   72.0580 O.2   302  GSH302     -0.2714
     14  CB2      -15.8120   94.0170   71.3760 C.3   302  GSH302      0.0997
     15  SG2      -15.1270   92.5580   70.5880 S.3   302  GSH302     -0.0797
     16  N3       -18.0300   96.6240   70.8400 N.am  302  GSH302     -0.1917
     17  CA3      -18.5930   97.7180   71.6230 C.3   302  GSH302      0.2285
     18  C3       -20.0070   98.0960   71.2900 C.2   302  GSH302      0.3865
     19  O31      -20.2330   99.0800   70.5350 O.co2 302  GSH302     -0.2437
     20  O32      -20.9710   97.4510   71.7940 O.co2 302  GSH302     -0.2437
@<TRIPOS>BOND
     1     1     2    1
     2     5     3   ar
     3     2     6    1
     4     2     3    1
     5     6     7    1
     6     3     4   ar
     7     9     8    2
     8     7     8    1
     9     8    10   am
    10    10    11    1
    11    11    12    1
    12    11    14    1
    13    19    18   ar
    14    15    14    1
    15    16    12   am
    16    16    17    1
    17    12    13    2
    18    18    17    1
    19    18    20   ar
