@<TRIPOS>MOLECULE
4gcj_X64_A_1.pdb
 28 30 0 0 0
SMALL
GASTEIGER

@<TRIPOS>ATOM
      1  N01      -51.2180  101.2970  -64.8540 N.2   305  X64305     -0.3642
      2  N02      -49.8080   99.5220  -65.2420 N.pl3 305  X64305     -0.1781
      3  N03      -52.8710  102.8060  -64.1830 N.pl3 305  X64305     -0.0965
      4  N04      -47.0450   93.7690  -62.9890 N.3   305  X64305      0.0392
      5  N05      -56.5950   99.3690  -62.4800 N.pl3 305  X64305      0.0578
      6  C06      -52.9070  100.5910  -63.3690 C.3   305  X64305      0.1865
      7  C07      -52.3620  101.6220  -64.1410 C.2   305  X64305      0.2162
      8  C08      -50.8790  100.0290  -64.6510 C.2   305  X64305      0.2328
      9  C09      -49.0490   98.4750  -64.8730 C.ar  305  X64305      0.0737
     10  C10      -54.0230  100.6840  -62.5330 C.2   305  X64305      0.1929
     11  C11      -54.3680   99.6530  -61.6320 C.ar  305  X64305      0.0585
     12  C12      -55.6720   99.0340  -61.6450 C.ar  305  X64305      0.1456
     13  C13      -55.9640   98.0270  -60.6990 C.ar  305  X64305      0.0242
     14  C14      -55.0040   97.6190  -59.7520 C.ar  305  X64305      0.0017
     15  C15      -53.7310   98.2070  -59.7320 C.ar  305  X64305      0.0002
     16  C16      -53.4120   99.2210  -60.6610 C.ar  305  X64305      0.0045
     17  C17      -49.1770   97.7870  -63.6320 C.ar  305  X64305      0.0180
     18  C18      -48.3310   96.7100  -63.3050 C.ar  305  X64305      0.0213
     19  C19      -47.3310   96.3020  -64.2150 C.ar  305  X64305      0.1251
     20  C20      -47.1820   96.9650  -65.4510 C.ar  305  X64305      0.0213
     21  C21      -48.0380   98.0450  -65.7790 C.ar  305  X64305      0.0180
     22  O22      -54.6770  101.7380  -62.4730 O.2   305  X64305     -0.2899
     23  O23      -45.2850   95.5630  -62.8670 O.2   305  X64305     -0.1503
     24  O24      -45.5850   94.4650  -64.9600 O.2   305  X64305     -0.1503
     25  O25      -57.8400   99.3560  -62.0910 O.2   305  X64305     -0.1261
     26  O26      -56.3120   99.7280  -63.7080 O.2   305  X64305     -0.1261
     27  S27      -51.9390   99.1570  -63.6060 S.3   305  X64305     -0.0494
     28  S28      -46.2390   94.9820  -63.7780 S.O2  305  X64305      0.0935
@<TRIPOS>BOND
     1    21    20   ar
     2    21     9   ar
     3    20    19   ar
     4     2     9    1
     5     2     8    1
     6    24    28    2
     7     9    17   ar
     8     1     8    2
     9     1     7    2
    10     8    27    1
    11    19    28    1
    12    19    18   ar
    13     3     7    1
    14     7     6    1
    15    28     4    1
    16    28    23    2
    17    26     5    2
    18    17    18   ar
    19    27     6    1
    20     6    10    1
    21    10    22    2
    22    10    11    1
    23     5    25    2
    24     5    12    1
    25    12    11   ar
    26    12    13   ar
    27    11    16   ar
    28    13    14   ar
    29    16    15   ar
    30    14    15   ar
