@<TRIPOS>MOLECULE
4gcp_AIC_A_1.pdb
 24 26 0 0 0
SMALL
GASTEIGER

@<TRIPOS>ATOM
      1  C8        36.3050  -31.3480  -18.0090 C.ar  401  AIC401     -0.0003
      2  C5        35.9080  -29.9410  -16.1020 C.ar  401  AIC401      0.0038
      3  C6        40.4130  -27.5530  -16.9980 C.3   401  AIC401      0.0681
      4  N1        36.4270  -27.0150  -16.6780 N.am  401  AIC401     -0.1937
      5  C2        41.6130  -25.3330  -17.4510 C.2   401  AIC401      0.3833
      6  N3        39.2110  -25.3890  -17.4370 N.am  401  AIC401     -0.2594
      7  C4        35.2350  -28.7570  -15.5030 C.3   401  AIC401      0.1915
      8  C1        41.8010  -27.9870  -16.5100 C.3   401  AIC401      0.0131
      9  C3        36.0610  -27.4900  -15.4870 C.2   401  AIC401      0.2635
     10  C7        35.6840  -30.2310  -17.4540 C.ar  401  AIC401     -0.0024
     11  C9        37.1360  -32.1710  -17.2330 C.ar  401  AIC401     -0.0000
     12  C10       37.3510  -31.8800  -15.8780 C.ar  401  AIC401     -0.0003
     13  C11       36.7350  -30.7650  -15.3130 C.ar  401  AIC401     -0.0024
     14  C12       40.4140  -26.2190  -17.7770 C.3   401  AIC401      0.1888
     15  C13       38.5620  -25.7610  -16.1480 C.3   401  AIC401      0.1529
     16  C14       37.1800  -25.7760  -16.8460 C.3   401  AIC401      0.1996
     17  C15       37.9860  -25.6460  -18.0940 C.2   401  AIC401      0.2491
     18  C16       39.8920  -28.6460  -17.9370 C.3   401  AIC401      0.0131
     19  N2        34.7680  -29.0610  -14.1710 N.3   401  AIC401     -0.1182
     20  O1        41.6490  -24.7260  -16.3470 O.co2 401  AIC401     -0.2438
     21  O2        42.5160  -25.2300  -18.2980 O.co2 401  AIC401     -0.2438
     22  O3        36.3450  -26.9310  -14.4330 O.2   401  AIC401     -0.2714
     23  O4        37.7240  -25.7260  -19.2920 O.2   401  AIC401     -0.2729
     24  S1        39.3420  -27.2810  -15.5870 S.3   401  AIC401     -0.1184
@<TRIPOS>BOND
     1    23    17    2
     2    21     5   ar
     3    17     6   am
     4    17    16    1
     5     1    10   ar
     6     1    11   ar
     7    18     3    1
     8    14     5    1
     9    14     6    1
    10    14     3    1
    11    10     2   ar
    12     5    20   ar
    13     6    15    1
    14    11    12   ar
    15     3     8    1
    16     3    24    1
    17    16     4    1
    18    16    15    1
    19     4     9   am
    20    15    24    1
    21     2     7    1
    22     2    13   ar
    23    12    13   ar
    24     7     9    1
    25     7    19    1
    26     9    22    2
