@<TRIPOS>MOLECULE
4gcq_0JM_A_1.pdb
 26 28 0 0 0
SMALL
GASTEIGER

@<TRIPOS>ATOM
      1  O5        14.6840    5.3970    3.0810 O.co2 401  0JM401     -0.2441
      2  C16       14.8150    5.4090    1.8270 C.2   401  0JM401      0.3799
      3  O1        15.7610    4.8230    1.2470 O.co2 401  0JM401     -0.2441
      4  C13       13.8320    6.1390    0.9340 C.3   401  0JM401      0.1736
      5  C12       13.0000    7.2630    1.6320 C.3   401  0JM401      0.0646
      6  C14       13.7100    7.9990    2.7750 C.3   401  0JM401      0.0128
      7  C15       11.6610    6.7550    2.1590 C.3   401  0JM401      0.0128
      8  S1        12.7120    8.4420    0.3520 S.3   401  0JM401     -0.1227
      9  N2        14.6370    6.6930   -0.1890 N.3   401  0JM401     -0.2284
     10  C11       14.2550    8.0910   -0.4760 C.3   401  0JM401      0.1324
     11  C10       14.3270    6.2710   -1.5690 C.3   401  0JM401      0.2359
     12  O4        15.4570    5.7600   -2.2700 O.3   401  0JM401     -0.2029
     13  C9        14.2050    7.7340   -1.9610 C.3   401  0JM401      0.1661
     14  N1        12.8900    7.9510   -2.5390 N.am  401  0JM401     -0.2000
     15  C8        12.4760    9.1340   -3.0180 C.2   401  0JM401      0.2562
     16  O6        13.1480   10.1610   -3.0210 O.2   401  0JM401     -0.2724
     17  C7        11.0650    9.1530   -3.5660 C.3   401  0JM401      0.2032
     18  C17       10.9770   10.0850   -4.7380 C.2   401  0JM401      0.3771
     19  O2         9.8700   10.6070   -5.0010 O.co2 401  0JM401     -0.2448
     20  O3        12.0210   10.3000   -5.4030 O.co2 401  0JM401     -0.2448
     21  C1        10.0720    9.4350   -2.4740 C.ar  401  0JM401     -0.0030
     22  C6        10.4700   10.0610   -1.2840 C.ar  401  0JM401     -0.0033
     23  C2         8.7450    9.0470   -2.6270 C.ar  401  0JM401     -0.0033
     24  C3         7.8400    9.2870   -1.6010 C.ar  401  0JM401     -0.0003
     25  C4         8.2500    9.9110   -0.4270 C.ar  401  0JM401     -0.0000
     26  C5         9.5740   10.3050   -0.2510 C.ar  401  0JM401     -0.0003
@<TRIPOS>BOND
     1    20    18   ar
     2    19    18   ar
     3    18    17    1
     4    17    15    1
     5    17    21    1
     6    16    15    2
     7    15    14   am
     8    23    21   ar
     9    23    24   ar
    10    14    13    1
    11    21    22   ar
    12    12    11    1
    13    13    11    1
    14    13    10    1
    15    24    25   ar
    16    11     9    1
    17    22    26   ar
    18    10     9    1
    19    10     8    1
    20    25    26   ar
    21     9     4    1
    22     8     5    1
    23     4     5    1
    24     4     2    1
    25     3     2   ar
    26     5     7    1
    27     5     6    1
    28     2     1   ar
