@<TRIPOS>MOLECULE
4gcs_1RG_A_1.pdb
 18 19 0 0 0
SMALL
GASTEIGER

@<TRIPOS>ATOM
      1  C         56.3640  -18.7490   29.4410 C.2   401  1RG401      0.2619
      2  N         54.3990  -17.8920   30.8550 N.3   401  1RG401     -0.2093
      3  O         56.0890  -19.8860   29.4110 O.2   401  1RG401     -0.2715
      4  CA        55.7680  -17.7200   30.4070 C.3   401  1RG401      0.1517
      5  CB        56.6440  -17.7460   31.6690 C.3   401  1RG401      0.0398
      6  CD        54.3250  -18.1530   32.2940 C.3   401  1RG401      0.1008
      7  CG        55.7810  -18.3730   32.7580 C.3   401  1RG401      0.0772
      8  SAK       56.1770  -20.1380   32.8670 S.3   401  1RG401     -0.0815
      9  NAX       57.2310  -18.1790   28.6350 N.am  401  1RG401     -0.1703
     10  CAY       58.1620  -18.6250   27.7340 C.2   401  1RG401      0.1072
     11  CAZ       58.3560  -18.8820   26.5720 C.1   401  1RG401     -0.0827
     12  CBA       58.5470  -19.1900   25.4210 C.2   401  1RG401      0.0973
     13  CBB       59.9150  -19.5150   25.5790 C.3   401  1RG401      0.0670
     14  CBC       60.3410  -19.3580   26.9110 C.2   401  1RG401     -0.0186
     15  CBD       59.4990  -18.9210   28.0180 C.2   401  1RG401      0.0202
     16  CBE       57.7900  -19.1930   24.1940 C.2   401  1RG401      0.3911
     17  OBF       56.7160  -19.8250   23.9770 O.co2 401  1RG401     -0.2402
     18  OBG       58.4670  -18.5170   23.4390 O.co2 401  1RG401     -0.2402
@<TRIPOS>BOND
     1    18    16   ar
     2    17    16   ar
     3    16    12    1
     4    12    13    1
     5    12    11    2
     6    13    14    1
     7    11    10    2
     8    14    15    2
     9    10    15    1
    10    10     9    1
    11     9     1   am
    12     3     1    2
    13     1     4    1
    14     4     2    1
    15     4     5    1
    16     2     6    1
    17     5     7    1
    18     6     7    1
    19     7     8    1
