@<TRIPOS>MOLECULE
4gcx_PRF_A_1.pdb
 13 14 0 0 0
SMALL
GASTEIGER

@<TRIPOS>ATOM
      1  N1        16.7730   17.0720   24.0040 N.2   401  PRF401     -0.2525
      2  C2        15.5100   16.6550   23.6940 C.1   401  PRF401      0.2602
      3  N3        15.1060   16.4040   22.4200 N.2   401  PRF401     -0.2733
      4  C4        15.9940   16.5690   21.4200 C.1   401  PRF401      0.0973
      5  C5        17.3560   17.0240   21.6700 C.3   401  PRF401      0.2372
      6  C6        17.7320   17.2770   23.0710 C.1   401  PRF401      0.2101
      7  O6        18.8900   17.6520   23.3620 O.2   401  PRF401     -0.2120
      8  C7        17.9850   17.0880   20.3410 C.2   401  PRF401      0.0258
      9  C10       19.4060   17.5020   20.0590 C.3   401  PRF401      0.1351
     10  N11       19.6960   17.3280   18.6490 N.3   401  PRF401     -0.1264
     11  C8        16.9960   16.6920   19.4400 C.2   401  PRF401      0.1053
     12  N9        15.8260   16.3890   20.0940 N.2   401  PRF401     -0.1847
     13  N2        14.6160   16.4920   24.6970 N.pl3 401  PRF401     -0.0221
@<TRIPOS>BOND
     1    10     9    1
     2    11    12    1
     3    11     8    2
     4     9     8    1
     5    12     4    2
     6     8     5    1
     7     4     5    1
     8     4     3    2
     9     5     6    1
    10     3     2    2
    11     6     7    2
    12     6     1    2
    13     2     1    2
    14     2    13    1
