@<TRIPOS>MOLECULE
4gd3_HEM_A_1.pdb
 43 50 0 0 0
SMALL
GASTEIGER

@<TRIPOS>ATOM
      1  CHA      -19.5150    3.5850  -55.4410 C.2   301  HEM301      0.0000
      2  CHB      -18.8900    2.3740  -60.0710 C.2   301  HEM301      0.0000
      3  CHC      -22.3920    5.3900  -61.4630 C.2   301  HEM301      0.0000
      4  CHD      -22.3330    7.2550  -57.0020 C.2   301  HEM301      0.0000
      5  C1A      -19.1240    2.9150  -56.5720 C.ar  301  HEM301      0.0000
      6  C2A      -18.3380    1.7060  -56.6200 C.ar  301  HEM301      0.0000
      7  C3A      -18.1530    1.3740  -57.8940 C.ar  301  HEM301      0.0000
      8  C4A      -18.8300    2.3620  -58.7020 C.ar  301  HEM301      0.0000
      9  CMA      -17.3760    0.1500  -58.4300 C.3   301  HEM301      0.0000
     10  CAA      -17.7770    0.9550  -55.4020 C.3   301  HEM301      0.0000
     11  CBA      -18.8700    0.3810  -54.5150 C.3   301  HEM301      0.0000
     12  CGA      -18.1760   -0.6100  -53.6120 C.2   301  HEM301      0.0000
     13  O1A      -17.3420   -1.4130  -54.1300 O.co2 301  HEM301      0.0000
     14  O2A      -18.4530   -0.5870  -52.3790 O.co2 301  HEM301      0.0000
     15  C1B      -19.7520    3.1120  -60.8380 C.2   301  HEM301      0.0000
     16  C2B      -19.7730    3.1100  -62.2810 C.2   301  HEM301      0.0000
     17  C3B      -20.7380    3.9430  -62.6900 C.2   301  HEM301      0.0000
     18  C4B      -21.3560    4.4940  -61.4990 C.2   301  HEM301      0.0000
     19  CMB      -18.8280    2.2670  -63.1640 C.3   301  HEM301      0.0000
     20  CAB      -21.1410    4.2690  -64.1510 C.2   301  HEM301      0.0000
     21  CBB      -21.6040    3.3240  -64.9770 C.2   301  HEM301      0.0000
     22  C1C      -22.6510    6.1960  -60.3880 C.ar  301  HEM301      0.0000
     23  C2C      -23.5290    7.3480  -60.4020 C.ar  301  HEM301      0.0000
     24  C3C      -23.5120    7.8670  -59.1580 C.ar  301  HEM301      0.0000
     25  C4C      -22.6160    7.0520  -58.3350 C.ar  301  HEM301      0.0000
     26  CMC      -24.3260    7.8510  -61.6360 C.3   301  HEM301      0.0000
     27  CAC      -24.3120    9.1120  -58.6790 C.2   301  HEM301      0.0000
     28  CBC      -23.7770   10.0260  -57.8550 C.2   301  HEM301      0.0000
     29  C1D      -21.6370    6.4370  -56.1450 C.2   301  HEM301      0.0000
     30  C2D      -21.5450    6.5920  -54.7010 C.2   301  HEM301      0.0000
     31  C3D      -20.6480    5.4450  -54.2050 C.2   301  HEM301      0.0000
     32  C4D      -20.3040    4.7100  -55.4090 C.2   301  HEM301      0.0000
     33  CMD      -22.2060    7.6800  -53.8280 C.3   301  HEM301      0.0000
     34  CAD      -20.2250    5.1480  -52.7410 C.3   301  HEM301      0.0000
     35  CBD      -19.0580    6.0480  -52.3050 C.3   301  HEM301      0.0000
     36  CGD      -18.6820    5.9210  -50.8300 C.2   301  HEM301      0.0000
     37  O1D      -18.7090    4.8060  -50.2330 O.co2 301  HEM301      0.0000
     38  O2D      -18.3270    6.9560  -50.2000 O.co2 301  HEM301      0.0000
     39  NA       -19.4170    3.2850  -57.8680 N.ar  301  HEM301      0.0000
     40  NB       -20.7280    3.9770  -60.3850 N.2   301  HEM301      0.0000
     41  NC       -22.1110    6.0380  -59.1210 N.ar  301  HEM301      0.0000
     42  ND       -20.9000    5.3250  -56.5240 N.2   301  HEM301      0.0000
     43 FE        -20.8210    4.6740  -58.5100 Fe    301  HEM301      0.0000
@<TRIPOS>BOND
     1    21    20    2
     2    20    17    1
     3    19    16    1
     4    17    16    2
     5    17    18    1
     6    16    15    1
     7    26    23    1
     8    18     3    2
     9    18    40    1
    10     3    22    1
    11    15    40    2
    12    15     2    1
    13    23    22   ar
    14    23    24   ar
    15    22    41   ar
    16    40    43    1
    17     2     8    2
    18    24    27    1
    19    24    25   ar
    20    41    43    1
    21    41    25   ar
    22     8     7   ar
    23     8    39   ar
    24    27    28    2
    25    43    39    1
    26    43    42    1
    27     9     7    1
    28    25     4    1
    29     7     6   ar
    30    39     5   ar
    31     4    29    2
    32     6     5   ar
    33     6    10    1
    34     5     1    2
    35    42    29    1
    36    42    32    2
    37    29    30    1
    38     1    32    1
    39    32    31    1
    40    10    11    1
    41    30    31    2
    42    30    33    1
    43    11    12    1
    44    31    34    1
    45    13    12   ar
    46    12    14   ar
    47    34    35    1
    48    35    36    1
    49    36    37   ar
    50    36    38   ar
