@<TRIPOS>MOLECULE
4gd4_0WS_A_1.pdb
 21 22 0 0 0
SMALL
GASTEIGER

@<TRIPOS>ATOM
      1  C5       -26.5500  -22.8950  -24.0270 C.2   504  0WS504     -0.0211
      2  C2       -25.8500  -20.8630  -22.9730 C.3   504  0WS504      0.0600
      3  C3       -27.0690  -20.8560  -22.2970 C.2   504  0WS504      0.1266
      4  C4       -27.6940  -22.8380  -23.2620 C.2   504  0WS504      0.0788
      5  C6       -27.4190  -19.7650  -21.3740 C.ar  504  0WS504      0.1189
      6  O        -24.1490  -22.9580  -25.4070 O.3   504  0WS504     -0.4773
      7  C1       -25.5960  -21.8970  -23.8710 C.2   504  0WS504      0.0497
      8  O1       -23.2950  -21.3760  -24.1030 O.2   504  0WS504     -0.2455
      9  C        -24.2550  -22.0220  -24.5070 C.2   504  0WS504      0.3336
     10  N        -27.9780  -21.8390  -22.4130 N.2   504  0WS504     -0.4136
     11  C8       -26.5750  -18.8060  -20.7930 C.ar  504  0WS504     -0.0143
     12  C7       -27.4090  -17.9280  -20.1520 C.ar  504  0WS504      0.0230
     13  N2       -28.6640  -18.3420  -20.3590 N.ar  504  0WS504     -0.2841
     14  N1       -28.6990  -19.4710  -21.1040 N.ar  504  0WS504     -0.1716
     15  H4       -26.4160  -23.7130  -24.7330 H     504  0WS504      0.0648
     16  H2       -25.1300  -20.0630  -22.8120 H     504  0WS504      0.0436
     17  H3       -28.4320  -23.6370  -23.2670 H     504  0WS504      0.0970
     18  H1       -23.2290  -22.9880  -25.7800 H     504  0WS504      0.2954
     19  H6       -25.4870  -18.7870  -20.8400 H     504  0WS504      0.0655
     20  H5       -27.1510  -17.0470  -19.5660 H     504  0WS504      0.0824
     21  H        -29.5350  -17.9300  -20.0420 H     504  0WS504      0.1882
@<TRIPOS>BOND
     1    18     6    1
     2     6     9    1
     3    15     1    1
     4     9     8    2
     5     9     7    1
     6     1     7    2
     7     1     4    1
     8     7     2    1
     9    17     4    1
    10     4    10    2
    11     2    16    1
    12     2     3    1
    13    10     3    2
    14     3     5    1
    15     5    14   ar
    16     5    11   ar
    17    14    13   ar
    18    19    11    1
    19    11    12   ar
    20    13    12   ar
    21    13    21    1
    22    12    20    1
