@<TRIPOS>MOLECULE
4gdc_NDP_A_1.pdb
 48 52 0 0 0
SMALL
GASTEIGER

@<TRIPOS>ATOM
      1  PA        62.6420   70.8660  163.5120 P.3   605  NDP605      0.2189
      2  O1A       62.2490   71.9460  164.5900 O.3   605  NDP605     -0.4371
      3  O2A       61.5790   70.2730  162.7270 O.2   605  NDP605     -0.5170
      4  O5B       63.2680   69.6000  163.9900 O.3   605  NDP605     -0.3112
      5  C5B       64.0370   68.7370  163.1700 C.3   605  NDP605      0.1813
      6  C4B       64.4650   67.4370  163.8820 C.3   605  NDP605      0.1820
      7  O4B       65.7790   67.5090  164.4240 O.3   605  NDP605     -0.3136
      8  C3B       63.5900   67.0090  165.0100 C.3   605  NDP605      0.2157
      9  O3B       63.5880   65.6340  165.1470 O.3   605  NDP605     -0.2175
     10  C2B       64.1920   67.6100  166.2100 C.3   605  NDP605      0.2314
     11  O2B       63.9720   66.8780  167.3590 O.3   605  NDP605     -0.2630
     12  C1B       65.6400   67.6530  165.8310 C.3   605  NDP605      0.3158
     13  N9A       66.3670   68.8170  166.3740 N.pl3 605  NDP605     -0.1439
     14  C8A       66.0080   70.1540  166.2830 C.3   605  NDP605      0.3377
     15  N7A       66.9230   70.9220  166.9040 N.2   605  NDP605     -0.2095
     16  C5A       67.9240   70.1000  167.4210 C.2   605  NDP605      0.2526
     17  C6A       69.0890   70.3230  168.1400 C.2   605  NDP605      0.4393
     18  N6A       69.4700   71.6730  168.4900 N.pl3 605  NDP605      0.2180
     19  N1A       69.8560   69.2920  168.5150 N.2   605  NDP605      0.0021
     20  C2A       69.5300   67.9990  168.1940 C.3   605  NDP605      0.5254
     21  N3A       68.3930   67.7460  167.4870 N.2   605  NDP605     -0.0055
     22  C4A       67.5900   68.7550  167.0980 C.2   605  NDP605      0.3518
     23  O3        63.4480   71.2510  162.3280 O.3   605  NDP605     -0.2703
     24  PN        64.1110   72.6940  162.1150 P.3   605  NDP605      0.2189
     25  O1N       63.2700   73.8030  162.6630 O.3   605  NDP605     -0.4371
     26  O2N       64.3260   72.9790  160.6620 O.2   605  NDP605     -0.5170
     27  O5D       65.4690   72.6390  162.9070 O.3   605  NDP605     -0.3112
     28  C5D       66.4400   71.6450  162.7560 C.3   605  NDP605      0.1813
     29  C4D       67.7140   72.3580  163.0790 C.3   605  NDP605      0.1799
     30  O4D       67.8560   73.3510  162.0840 O.3   605  NDP605     -0.3327
     31  C3D       67.6160   73.0390  164.4110 C.3   605  NDP605      0.2158
     32  O3D       68.6360   72.7310  165.3070 O.3   605  NDP605     -0.2175
     33  C2D       67.5530   74.4850  164.0470 C.3   605  NDP605      0.2309
     34  O2D       68.0690   75.3370  164.9850 O.3   605  NDP605     -0.2158
     35  C1D       68.3220   74.4810  162.7780 C.3   605  NDP605      0.2263
     36  N1N       68.2580   75.7610  162.0820 N.pl3 605  NDP605     -0.2787
     37  C2N       69.4030   76.5740  162.1240 C.3   605  NDP605      0.1244
     38  C3N       69.4010   77.8100  161.4660 C.2   605  NDP605      0.0544
     39  C7N       70.6410   78.6200  161.5650 C.2   605  NDP605      0.2818
     40  O7N       70.7870   79.6360  160.9110 O.2   605  NDP605     -0.2670
     41  N7N       71.6290   78.1690  162.4940 N.am  605  NDP605     -0.0839
     42  C4N       68.2580   78.2730  160.7650 C.2   605  NDP605      0.0033
     43  C5N       67.1080   77.4540  160.7360 C.2   605  NDP605      0.0157
     44  C6N       67.1010   76.2090  161.3840 C.2   605  NDP605      0.0633
     45  P2B       63.1330   67.4870  168.5520 P.3   605  NDP605      0.5328
     46  O1X       63.3270   66.7020  169.8220 O.3   605  NDP605     -0.1145
     47  O2X       63.5710   68.9180  168.7730 O.3   605  NDP605     -0.1145
     48  O3X       61.6820   67.5090  168.1260 O.2   605  NDP605     -0.2224
@<TRIPOS>BOND
     1    26    24    2
     2    43    42    1
     3    43    44    2
     4    42    38    2
     5    40    39    2
     6    44    36    1
     7    38    39    1
     8    38    37    1
     9    39    41   am
    10    36    37    1
    11    36    35    1
    12    30    35    1
    13    30    29    1
    14    24    23    1
    15    24    25    1
    16    24    27    1
    17    23     1    1
    18     3     1    2
    19    28    27    1
    20    28    29    1
    21    35    33    1
    22    29    31    1
    23     5     6    1
    24     5     4    1
    25     1     4    1
    26     1     2    1
    27     6     7    1
    28     6     8    1
    29    33    31    1
    30    33    34    1
    31    31    32    1
    32     7    12    1
    33     8     9    1
    34     8    10    1
    35    12    10    1
    36    12    13    1
    37    10    11    1
    38    14    13    1
    39    14    15    1
    40    13    22    1
    41    15    16    2
    42    22    16    1
    43    22    21    2
    44    11    45    1
    45    16    17    1
    46    21    20    1
    47    48    45    2
    48    17    18    1
    49    17    19    2
    50    20    19    1
    51    45    47    1
    52    45    46    1
