@<TRIPOS>MOLECULE
4gdd_NAI_A_1.pdb
 44 48 0 0 0
SMALL
GASTEIGER

@<TRIPOS>ATOM
      1  PA        62.4830   70.7990  162.8560 P.3   602  NAI602      0.2189
      2  O1A       62.1250   71.7170  164.0800 O.3   602  NAI602     -0.4371
      3  O2A       61.4130   70.1330  162.1220 O.2   602  NAI602     -0.5170
      4  O5B       63.4010   69.6590  163.1660 O.3   602  NAI602     -0.3112
      5  C5B       63.2570   68.3560  162.6390 C.3   602  NAI602      0.1813
      6  C4B       64.1280   67.3470  163.3950 C.3   602  NAI602      0.1821
      7  O4B       65.3960   67.8790  163.7500 O.3   602  NAI602     -0.3135
      8  C3B       63.5030   66.8620  164.6570 C.3   602  NAI602      0.2184
      9  O3B       63.8810   65.5630  164.9130 O.3   602  NAI602     -0.2174
     10  C2B       64.0650   67.7300  165.7000 C.3   602  NAI602      0.2570
     11  O2B       64.0910   67.1590  166.9480 O.3   602  NAI602     -0.2130
     12  C1B       65.4510   67.8580  165.1680 C.3   602  NAI602      0.3186
     13  N9A       66.2900   68.8940  165.8060 N.pl3 602  NAI602     -0.1439
     14  C8A       66.1460   70.2830  165.8270 C.3   602  NAI602      0.3377
     15  N7A       67.1590   70.8370  166.5340 N.2   602  NAI602     -0.2095
     16  C5A       68.0020   69.8150  166.9940 C.2   602  NAI602      0.2526
     17  C6A       69.1680   69.7440  167.7480 C.2   602  NAI602      0.4393
     18  N6A       69.7890   70.9360  168.2500 N.pl3 602  NAI602      0.2180
     19  N1A       69.7360   68.5630  168.0270 N.2   602  NAI602      0.0021
     20  C2A       69.2050   67.3870  167.5810 C.3   602  NAI602      0.5254
     21  N3A       68.0640   67.4070  166.8410 N.2   602  NAI602     -0.0055
     22  C4A       67.4600   68.5740  166.5430 C.2   602  NAI602      0.3518
     23  O3        63.0600   71.4010  161.6250 O.3   602  NAI602     -0.2703
     24  PN        63.8800   72.7740  161.5860 P.3   602  NAI602      0.2189
     25  O1N       63.0770   73.8950  162.1670 O.3   602  NAI602     -0.4371
     26  O2N       64.2540   73.1620  160.1860 O.2   602  NAI602     -0.5170
     27  O5D       65.1840   72.5090  162.4430 O.3   602  NAI602     -0.3112
     28  C5D       66.1890   71.6010  162.0860 C.3   602  NAI602      0.1813
     29  C4D       67.4800   72.3170  162.3770 C.3   602  NAI602      0.1799
     30  O4D       67.6530   73.3750  161.4410 O.3   602  NAI602     -0.3327
     31  C3D       67.4590   72.9060  163.7500 C.3   602  NAI602      0.2158
     32  O3D       68.5270   72.5020  164.5540 O.3   602  NAI602     -0.2175
     33  C2D       67.4200   74.3740  163.4770 C.3   602  NAI602      0.2309
     34  O2D       68.0050   75.1170  164.4660 O.3   602  NAI602     -0.2158
     35  C1D       68.1460   74.4620  162.1770 C.3   602  NAI602      0.2263
     36  N1N       68.0650   75.7580  161.5000 N.pl3 602  NAI602     -0.2787
     37  C2N       69.2240   76.5710  161.4360 C.3   602  NAI602      0.1244
     38  C3N       69.1920   77.8110  160.7700 C.2   602  NAI602      0.0544
     39  C7N       70.4260   78.6550  160.7400 C.2   602  NAI602      0.2818
     40  O7N       70.6470   79.4540  159.8430 O.2   602  NAI602     -0.2670
     41  N7N       71.3390   78.5160  161.8340 N.am  602  NAI602     -0.0839
     42  C4N       67.9890   78.2580  160.1660 C.2   602  NAI602      0.0033
     43  C5N       66.8310   77.4430  160.2310 C.2   602  NAI602      0.0157
     44  C6N       66.8600   76.2040  160.8860 C.2   602  NAI602      0.0633
@<TRIPOS>BOND
     1    40    39    2
     2    42    43    1
     3    42    38    2
     4    26    24    2
     5    43    44    2
     6    39    38    1
     7    39    41   am
     8    38    37    1
     9    44    36    1
    10    37    36    1
    11    30    35    1
    12    30    29    1
    13    36    35    1
    14    24    23    1
    15    24    25    1
    16    24    27    1
    17    23     1    1
    18    28    29    1
    19    28    27    1
    20     3     1    2
    21    35    33    1
    22    29    31    1
    23     5     4    1
    24     5     6    1
    25     1     4    1
    26     1     2    1
    27     6     7    1
    28     6     8    1
    29    33    31    1
    30    33    34    1
    31     7    12    1
    32    31    32    1
    33     8     9    1
    34     8    10    1
    35    12    10    1
    36    12    13    1
    37    10    11    1
    38    13    14    1
    39    13    22    1
    40    14    15    1
    41    15    16    2
    42    22    21    2
    43    22    16    1
    44    21    20    1
    45    16    17    1
    46    20    19    1
    47    17    19    2
    48    17    18    1
