@<TRIPOS>MOLECULE
4gdi_FUC_A_1.pdb
 10 10 0 0 0
SMALL
GASTEIGER

@<TRIPOS>ATOM
      1  C1        24.7190   47.0190  119.0690 C.3   504  FUC504      0.1776
      2  C2        25.2050   45.7140  118.4530 C.3   504  FUC504      0.2141
      3  C3        24.0510   45.0870  117.6820 C.3   504  FUC504      0.2172
      4  C4        23.6260   46.0770  116.6080 C.3   504  FUC504      0.2116
      5  C5        23.2160   47.4000  117.2550 C.3   504  FUC504      0.1483
      6  C6        22.8480   48.4380  116.1930 C.3   504  FUC504      0.0349
      7  O2        25.6100   44.8560  119.4900 O.3   504  FUC504     -0.2176
      8  O3        24.4390   43.8680  117.0970 O.3   504  FUC504     -0.2175
      9  O4        24.7230   46.2940  115.7480 O.3   504  FUC504     -0.2177
     10  O5        24.2820   47.8960  118.0480 O.3   504  FUC504     -0.3508
@<TRIPOS>BOND
     1     9     4    1
     2     6     5    1
     3     4     5    1
     4     4     3    1
     5     8     3    1
     6     5    10    1
     7     3     2    1
     8    10     1    1
     9     2     1    1
    10     2     7    1
