@<TRIPOS>MOLECULE
4gdj_FUC_A_1.pdb
 10 10 0 0 0
SMALL
GASTEIGER

@<TRIPOS>ATOM
      1  C1        27.4050   12.5160   65.1000 C.3   503  FUC503      0.1776
      2  C2        27.7020   11.6630   63.8840 C.3   503  FUC503      0.2141
      3  C3        27.4330   10.2020   64.2290 C.3   503  FUC503      0.2172
      4  C4        26.0020   10.0550   64.7170 C.3   503  FUC503      0.2116
      5  C5        25.7040   11.0750   65.8060 C.3   503  FUC503      0.1483
      6  C6        24.2590   11.0100   66.2830 C.3   503  FUC503      0.0349
      7  O2        29.0600   11.8150   63.6120 O.3   503  FUC503     -0.2176
      8  O3        27.5760    9.3600   63.1040 O.3   503  FUC503     -0.2175
      9  O4        25.1630   10.2250   63.6000 O.3   503  FUC503     -0.2177
     10  O5        26.0270   12.3900   65.3780 O.3   503  FUC503     -0.3508
@<TRIPOS>BOND
     1     8     3    1
     2     9     4    1
     3     7     2    1
     4     2     3    1
     5     2     1    1
     6     3     4    1
     7     4     5    1
     8     1    10    1
     9    10     5    1
    10     5     6    1
