@<TRIPOS>MOLECULE
4gdp_PG4_A_1.pdb
 13 12 0 0 0
SMALL
GASTEIGER

@<TRIPOS>ATOM
      1  O1       -14.9030   -0.4510   22.3010 O.3   802  PG4802     -0.2176
      2  C1       -14.9440   -1.6290   21.5890 C.3   802  PG4802      0.2140
      3  C2       -13.6530   -2.3310   21.3240 C.3   802  PG4802      0.1778
      4  O2       -13.6580   -3.7120   21.3010 O.3   802  PG4802     -0.3470
      5  C3       -13.3600   -4.3710   20.1280 C.3   802  PG4802      0.1894
      6  C4       -11.9700   -4.8900   19.9590 C.3   802  PG4802      0.2376
      7  O3       -11.0760   -4.1310   19.2350 O.2   802  PG4802     -0.4666
      8  C5        -9.8180   -4.6380   18.9990 C.2   802  PG4802      0.2124
      9  C6        -9.0820   -5.1990   20.1680 C.2   802  PG4802      0.2124
     10  O4        -7.7210   -5.3730   20.0580 O.2   802  PG4802     -0.4665
     11  C7        -6.9810   -5.6220   21.1930 C.3   802  PG4802      0.2411
     12  C8        -7.5790   -6.5240   22.2240 C.3   802  PG4802      0.2292
     13  O5        -7.6150   -6.0500   23.5160 O.3   802  PG4802     -0.2162
@<TRIPOS>BOND
     1     8     7    1
     2     8     9    2
     3     7     6    1
     4     6     5    1
     5    10     9    1
     6    10    11    1
     7     5     4    1
     8    11    12    1
     9     4     3    1
    10     3     2    1
    11     2     1    1
    12    12    13    1
