@<TRIPOS>MOLECULE
4gdy_0X1_A_1.pdb
 37 41 0 0 0
SMALL
GASTEIGER

@<TRIPOS>ATOM
      1  C1       -16.1600   22.3100   16.7670 C.ar  501  0X1501      0.0410
      2  C2       -16.5880   22.0060   18.0450 C.ar  501  0X1501      0.1455
      3  C3       -18.7150   21.3060   17.1840 C.ar  501  0X1501      0.0447
      4  C4       -14.9450   25.6740    8.9590 C.ar  501  0X1501      0.0965
      5  C5       -15.7910   23.9510   10.3560 C.ar  501  0X1501      0.0394
      6  C6       -17.0190   22.1200   15.7040 C.ar  501  0X1501      0.0428
      7  C7       -14.8220   24.9110   10.1050 C.ar  501  0X1501      0.0278
      8  C8       -18.2970   21.6310   15.9060 C.ar  501  0X1501      0.1557
      9  C9       -17.8560   21.4950   18.2470 C.ar  501  0X1501      0.0410
     10  C10      -16.7980   23.8120    9.4190 C.ar  501  0X1501      0.2065
     11  C11      -16.8390   24.6250    8.3080 C.ar  501  0X1501      0.0978
     12  C12      -18.7300   21.8010   13.5040 C.2   501  0X1501      0.3850
     13  C13      -15.7240   23.0920   11.5930 C.3   501  0X1501      0.1418
     14  C14      -16.5840   22.4720   14.3660 C.2   501  0X1501      0.0273
     15  C15      -17.3720   22.3440   13.2890 C.2   501  0X1501      0.1522
     16  C16      -17.9530   24.4910    7.3240 C.3   501  0X1501      0.0555
     17  C17      -13.6450   25.1170   11.0090 C.3   501  0X1501      0.1816
     18  N18      -15.9340   25.5770    8.0640 N.ar  501  0X1501     -0.2452
     19  N19      -17.0580   22.6700   11.9970 N.pl3 501  0X1501     -0.2257
     20  N20      -19.1240   21.4720   14.7640 N.am  501  0X1501     -0.0673
     21  O21      -10.5850   23.6050    9.9270 O.2   501  0X1501     -0.2224
     22  O22      -11.1820   22.8000   12.2270 O.3   501  0X1501     -0.1145
     23  O23      -10.9350   25.2910   11.7370 O.3   501  0X1501     -0.1145
     24  O24      -17.7960   22.8760    9.6070 O.3   501  0X1501     -0.2856
     25  C25      -20.4250   21.0350   14.6810 C.1   501  0X1501      0.3528
     26  O26      -12.8520   23.9450   10.8570 O.3   501  0X1501     -0.2653
     27  P27      -11.2620   23.9170   11.2160 P.3   501  0X1501      0.5329
     28  O28      -15.7510   22.1720   19.1470 O.3   501  0X1501     -0.4535
     29  C29      -15.5210   23.4910   19.5070 C.ar  501  0X1501      0.1453
     30  C30      -14.4510   23.7670   20.3370 C.ar  501  0X1501      0.0375
     31  C31      -14.1750   25.0690   20.7080 C.ar  501  0X1501      0.0031
     32  C32      -14.9740   26.0930   20.2480 C.ar  501  0X1501      0.0002
     33  C33      -16.0570   25.8130   19.4370 C.ar  501  0X1501      0.0031
     34  C34      -16.3390   24.5120   19.0680 C.ar  501  0X1501      0.0375
     35  N35      -20.7040   21.1130   13.3320 N.2   501  0X1501      0.0795
     36  O36      -21.1960   20.6610   15.5590 O.2   501  0X1501     -0.1767
     37  N37      -19.6510   21.5990   12.6210 N.2   501  0X1501      0.0967
@<TRIPOS>BOND
     1    16    11    1
     2    18    11   ar
     3    18     4   ar
     4    11    10   ar
     5     4     7   ar
     6    10    24    1
     7    10     5   ar
     8    21    27    2
     9     7     5   ar
    10     7    17    1
    11     5    13    1
    12    26    17    1
    13    26    27    1
    14    27    23    1
    15    27    22    1
    16    13    19    1
    17    19    15    1
    18    37    35    1
    19    37    12    2
    20    15    12    1
    21    15    14    2
    22    35    25    2
    23    12    20    1
    24    14     6    1
    25    25    20   am
    26    25    36    2
    27    20     8    1
    28     6     8   ar
    29     6     1   ar
    30     8     3   ar
    31     1     2   ar
    32     3     9   ar
    33     2     9   ar
    34     2    28    1
    35    34    33   ar
    36    34    29   ar
    37    28    29    1
    38    33    32   ar
    39    29    30   ar
    40    32    31   ar
    41    30    31   ar
