@<TRIPOS>MOLECULE
4ge1_TSS_A_1.pdb
 12 13 0 0 0
SMALL
GASTEIGER

@<TRIPOS>ATOM
      1  N1         4.8580    6.1310   46.6830 N.3   201  TSS201     -0.1310
      2  CA         6.1600    5.5690   46.4170 C.3   201  TSS201      0.1140
      3  CB         6.8970    4.9790   47.5780 C.3   201  TSS201      0.0485
      4  CG         6.1010    4.2420   48.6080 C.2   201  TSS201     -0.0004
      5  CD1        5.8520    4.6530   49.9100 C.2   201  TSS201      0.0946
      6  NE1        5.1120    3.7150   50.5370 N.2   201  TSS201     -0.2442
      7  CE2        4.8490    2.6800   49.6630 C.2   201  TSS201      0.0804
      8  CD2        5.4520    2.9770   48.4670 C.2   201  TSS201      0.0113
      9  CZ2        4.1120    1.4740   49.8170 C.2   201  TSS201      0.0148
     10  CH2        4.0110    0.5800   48.7550 C.2   201  TSS201     -0.0199
     11  CZ3        4.6260    0.8820   47.5380 C.3   201  TSS201      0.0521
     12  CE3        5.3450    2.0730   47.3850 C.2   201  TSS201     -0.0202
@<TRIPOS>BOND
     1     2     1    1
     2     2     3    1
     3    12    11    1
     4    12     8    2
     5    11    10    1
     6     3     4    1
     7     8     4    1
     8     8     7    1
     9     4     5    2
    10    10     9    2
    11     7     9    1
    12     7     6    2
    13     5     6    1
