@<TRIPOS>MOLECULE
4ge2_75A_A_1.pdb
 39 40 0 0 0
SMALL
GASTEIGER

@<TRIPOS>ATOM
      1  C23       19.1090    1.1630   -2.6650 C.2   601  75A601      0.2423
      2  O7        18.9790    2.1720   -2.0020 O.2   601  75A601     -0.2733
      3  C24       20.3570    0.6900   -2.9460 C.3   601  75A601      0.0964
      4  N1        17.9300    0.6040   -3.0810 N.am  601  75A601     -0.1974
      5  C9        16.9980   -0.2650   -2.3390 C.3   601  75A601      0.1770
      6  C10       17.2450   -1.7380   -2.7090 C.2   601  75A601      0.2619
      7  O4        17.3460   -2.5910   -1.8560 O.2   601  75A601     -0.2715
      8  C8        15.5570    0.2830   -2.6260 C.3   601  75A601      0.0574
      9  C5        14.5310   -0.2520   -1.6250 C.ar  601  75A601     -0.0200
     10  C6        14.4670    0.2450   -0.3400 C.ar  601  75A601     -0.0043
     11  C4        13.6420   -1.2520   -1.9760 C.ar  601  75A601     -0.0043
     12  C7        13.5490   -0.2420    0.5660 C.ar  601  75A601      0.0011
     13  C3        12.7210   -1.7420   -1.0720 C.ar  601  75A601      0.0011
     14  C2        12.6530   -1.2500    0.2210 C.ar  601  75A601      0.0444
     15  C1        11.6480   -1.7960    1.2390 C.3   601  75A601      0.3249
     16  F1        11.9700   -1.4070    2.5070 F     601  75A601     -0.1920
     17  F2        11.6190   -3.1710    1.2690 F     601  75A601     -0.1920
     18  P1         9.8910   -1.2380    0.9470 P.3   601  75A601      0.1831
     19  O2         9.6550    0.1510    1.4200 O.3   601  75A601     -0.3533
     20  O1         9.5410   -1.3070   -0.6190 O.2   601  75A601     -0.4543
     21  O3         8.9370   -2.2470    1.7700 O.3   601  75A601     -0.3533
     22  N2        17.3570   -2.0100   -4.0620 N.am  601  75A601     -0.1963
     23  N4        15.2290   -2.2530   -9.1770 N.am  601  75A601     -0.2017
     24  C11       16.5730   -3.0430   -4.7710 C.3   601  75A601      0.1745
     25  C12       17.2670   -4.4210   -4.7360 C.2   601  75A601      0.2806
     26  C13       16.3640   -2.5710   -6.2320 C.3   601  75A601      0.0330
     27  C14       14.9520   -2.8100   -6.8060 C.3   601  75A601      0.0257
     28  C15       15.0270   -3.3660   -8.2470 C.3   601  75A601      0.1155
     29  C16       16.1500   -2.0990  -10.1850 C.2   601  75A601      0.2648
     30  C17       15.9750   -1.4880  -11.3990 C.ar  601  75A601      0.0555
     31  C18       16.0330   -0.0980  -11.4600 C.ar  601  75A601      0.0046
     32  C19       15.8630    0.5880  -12.6470 C.ar  601  75A601      0.0006
     33  C20       15.6270   -0.1030  -13.8150 C.ar  601  75A601      0.0058
     34  C21       15.5660   -1.4800  -13.7770 C.ar  601  75A601      0.0302
     35  C22       15.7390   -2.1540  -12.5890 C.ar  601  75A601      0.0103
     36  O5        16.7390   -5.4280   -4.3340 O.2   601  75A601     -0.2698
     37  O6        17.2460   -2.5740   -9.9320 O.2   601  75A601     -0.2684
     38  I         15.1970   -2.5900  -15.6030 I     601  75A601     -0.0425
     39  N3        18.5510   -4.4560   -5.1940 N.am  601  75A601     -0.0863
@<TRIPOS>BOND
     1    38    34    1
     2    33    34   ar
     3    33    32   ar
     4    34    35   ar
     5    32    31   ar
     6    35    30   ar
     7    31    30   ar
     8    30    29    1
     9    29    37    2
    10    29    23   am
    11    23    28    1
    12    28    27    1
    13    27    26    1
    14    26    24    1
    15    39    25   am
    16    24    25    1
    17    24    22    1
    18    25    36    2
    19    22     6   am
    20     4     1   am
    21     4     5    1
    22     3     1    1
    23     6     5    1
    24     6     7    2
    25     1     2    2
    26     8     5    1
    27     8     9    1
    28    11     9   ar
    29    11    13   ar
    30     9    10   ar
    31    13    14   ar
    32    20    18    2
    33    10    12   ar
    34    14    12   ar
    35    14    15    1
    36    18    15    1
    37    18    19    1
    38    18    21    1
    39    15    17    1
    40    15    16    1
