@<TRIPOS>MOLECULE
4ge4_0KE_A_1.pdb
 30 32 0 0 0
SMALL
GASTEIGER

@<TRIPOS>ATOM
      1  C14       24.8930   -0.7420  -19.6270 C.ar  501  0KE501      0.0047
      2  C13       24.5150   -1.1520  -20.8920 C.ar  501  0KE501      0.0370
      3  C15       25.2060   -3.3820  -20.3790 C.ar  501  0KE501      0.0577
      4  C21       28.4960    1.4160  -12.0650 C.ar  501  0KE501      0.0968
      5  C1        25.4130   -1.6530  -18.7250 C.ar  501  0KE501      0.0212
      6  C22       27.7340    1.1350  -13.1800 C.ar  501  0KE501      0.0316
      7  C17       27.4990   -0.1930  -13.5020 C.ar  501  0KE501      0.0591
      8  C16       25.5800   -2.9570  -19.1240 C.ar  501  0KE501      0.1088
      9  C12       24.6640   -2.4780  -21.2620 C.ar  501  0KE501      0.1403
     10  C18       28.0630   -1.1570  -12.6770 C.ar  501  0KE501      0.2103
     11  C19       28.8350   -0.7780  -11.5970 C.ar  501  0KE501      0.0981
     12  C2        25.8110   -1.2710  -17.3740 C.ar  501  0KE501      0.0256
     13  C3        26.3510   -2.1440  -16.5010 C.ar  501  0KE501      0.1403
     14  C4        26.5420   -3.5670  -16.9320 C.ar  501  0KE501      0.3136
     15  C24       29.4550   -1.8160  -10.7230 C.3   501  0KE501      0.0555
     16  C10       23.8570   -1.9500  -23.3550 C.3   501  0KE501      0.2525
     17  C11       26.6460   -0.5040  -14.6990 C.2   501  0KE501      0.1020
     18  C25       27.2010    2.2760  -13.9900 C.3   501  0KE501      0.1819
     19  N20       29.0530    0.5030  -11.2640 N.ar  501  0KE501     -0.2452
     20  N5        26.1350   -3.8550  -18.2200 N.ar  501  0KE501     -0.0901
     21  N8        26.7580   -1.8550  -15.2110 N.2   501  0KE501     -0.2388
     22  O29       24.5670    3.8360  -12.7350 O.3   501  0KE501     -0.1145
     23  O30       25.7640    4.6360  -14.7960 O.3   501  0KE501     -0.1145
     24  O7        27.0360   -4.4060  -16.1800 O.2   501  0KE501     -0.2622
     25  O28       23.7880    3.1250  -15.0650 O.2   501  0KE501     -0.2224
     26  O23       27.8720   -2.5130  -12.8900 O.3   501  0KE501     -0.2853
     27  O6        26.3020   -5.1910  -18.6620 O.3   501  0KE501     -0.1602
     28  O9        24.3040   -2.9980  -22.5030 O.3   501  0KE501     -0.4714
     29  O26       25.7860    2.1810  -14.0940 O.3   501  0KE501     -0.2653
     30  P27       24.9090    3.5520  -14.1730 P.3   501  0KE501      0.5329
@<TRIPOS>BOND
     1    16    28    1
     2    28     9    1
     3     9     2   ar
     4     9     3   ar
     5     2     1   ar
     6     3     8   ar
     7     1     5   ar
     8     8     5   ar
     9     8    20   ar
    10     5    12   ar
    11    27    20    1
    12    20    14   ar
    13    12    13   ar
    14    14    13   ar
    15    14    24    2
    16    13    21    1
    17    21    17    2
    18    25    30    2
    19    23    30    1
    20    17     7    1
    21    30    29    1
    22    30    22    1
    23    29    18    1
    24    18     6    1
    25     7     6   ar
    26     7    10   ar
    27     6     4   ar
    28    26    10    1
    29    10    11   ar
    30     4    19   ar
    31    11    19   ar
    32    11    15    1
