@<TRIPOS>MOLECULE
4ge5_A89_A_1.pdb
 46 48 0 0 0
SMALL
GASTEIGER

@<TRIPOS>ATOM
      1  C23       18.5240    1.8260   -2.3120 C.2   601  A89601      0.2652
      2  C24       19.2000    2.5500   -3.2400 C.ar  601  A89601      0.0548
      3  C25       20.0730    1.9660   -4.1360 C.ar  601  A89601      0.0008
      4  C26       20.7550    2.6920   -5.0890 C.ar  601  A89601     -0.0155
      5  C27       20.5400    4.0740   -5.1330 C.ar  601  A89601      0.0306
      6  C28       19.6720    4.6710   -4.2450 C.ar  601  A89601      0.0065
      7  C29       19.0090    3.9180   -3.3090 C.ar  601  A89601      0.0050
      8  C30       21.6940    1.9540   -6.0320 C.3   601  A89601      0.0315
      9  O7        18.9150    1.7740   -1.1620 O.2   601  A89601     -0.2684
     10 BR         21.3920    5.2210   -6.3840 Br    601  A89601     -0.0493
     11  N1        17.3860    1.1140   -2.5830 N.am  601  A89601     -0.1937
     12  C9        16.5160    0.3280   -1.6980 C.3   601  A89601      0.1773
     13  C10       16.6570   -1.1580   -2.0550 C.2   601  A89601      0.2620
     14  O4        16.7910   -2.0050   -1.2000 O.2   601  A89601     -0.2715
     15  C8        15.0880    0.9430   -1.8630 C.3   601  A89601      0.0574
     16  C5        14.0480    0.2160   -1.0330 C.ar  601  A89601     -0.0200
     17  C6        13.8620    0.5180    0.3020 C.ar  601  A89601     -0.0043
     18  C4        13.2610   -0.7750   -1.5960 C.ar  601  A89601     -0.0043
     19  C7        12.9200   -0.1560    1.0460 C.ar  601  A89601      0.0011
     20  C3        12.3270   -1.4420   -0.8510 C.ar  601  A89601      0.0011
     21  C2        12.1350   -1.1520    0.4810 C.ar  601  A89601      0.0444
     22  C1        11.1050   -1.9050    1.3020 C.3   601  A89601      0.3249
     23  F1        11.4950   -2.0160    2.6020 F     601  A89601     -0.1920
     24  F2        10.9080   -3.1780    0.8360 F     601  A89601     -0.1920
     25  P1         9.4400   -1.0870    1.3280 P.3   601  A89601      0.1831
     26  O2         9.4850    0.2290    2.0250 O.3   601  A89601     -0.3533
     27  O1         8.9500   -0.8800   -0.2030 O.2   601  A89601     -0.4543
     28  O3         8.4440   -2.0740    2.1090 O.3   601  A89601     -0.3533
     29  N2        16.6120   -1.4370   -3.4020 N.am  601  A89601     -0.1963
     30  N4        15.0720   -2.1660   -8.3280 N.am  601  A89601     -0.2017
     31  C11       16.0140   -2.6460   -4.0090 C.3   601  A89601      0.1745
     32  C12       16.9830   -3.8400   -3.9330 C.2   601  A89601      0.2806
     33  C13       15.6980   -2.2860   -5.4810 C.3   601  A89601      0.0330
     34  C14       14.3730   -2.8310   -6.0450 C.3   601  A89601      0.0257
     35  C15       14.5280   -3.2730   -7.5220 C.3   601  A89601      0.1155
     36  C16       15.9370   -2.2060   -9.4000 C.2   601  A89601      0.2648
     37  C17       15.8240   -1.5740  -10.6150 C.ar  601  A89601      0.0555
     38  C18       16.0090   -0.1960  -10.6740 C.ar  601  A89601      0.0046
     39  C19       15.9090    0.5110  -11.8560 C.ar  601  A89601      0.0006
     40  C20       15.6200   -0.1470  -13.0290 C.ar  601  A89601      0.0058
     41  C21       15.4330   -1.5130  -12.9960 C.ar  601  A89601      0.0302
     42  C22       15.5360   -2.2070  -11.8090 C.ar  601  A89601      0.0103
     43  O5        16.7090   -4.9070   -3.4370 O.2   601  A89601     -0.2698
     44  O6        16.9170   -2.9000   -9.2040 O.2   601  A89601     -0.2684
     45  I         14.9800   -2.5760  -14.8200 I     601  A89601     -0.0425
     46  N3        18.2210   -3.6310   -4.4620 N.am  601  A89601     -0.0863
@<TRIPOS>BOND
     1    45    41    1
     2    40    41   ar
     3    40    39   ar
     4    41    42   ar
     5    39    38   ar
     6    42    37   ar
     7    38    37   ar
     8    37    36    1
     9    36    44    2
    10    36    30   am
    11    30    35    1
    12    35    34    1
    13    10     5    1
    14    34    33    1
    15     8     4    1
    16    33    31    1
    17     5     4   ar
    18     5     6   ar
    19     4     3   ar
    20    46    32   am
    21     6     7   ar
    22     3     2   ar
    23    31    32    1
    24    31    29    1
    25    32    43    2
    26    29    13   am
    27     7     2   ar
    28     2     1    1
    29    11     1   am
    30    11    12    1
    31     1     9    2
    32    13    12    1
    33    13    14    2
    34    15    12    1
    35    15    16    1
    36    18    16   ar
    37    18    20   ar
    38    16    17   ar
    39    20    21   ar
    40    27    25    2
    41    17    19   ar
    42    21    19   ar
    43    21    22    1
    44    24    22    1
    45    22    25    1
    46    22    23    1
    47    25    26    1
    48    25    28    1
