@<TRIPOS>MOLECULE
4ge7_0K5_A_1.pdb
 35 38 0 0 0
SMALL
GASTEIGER

@<TRIPOS>ATOM
      1  C35        3.8910    0.8100  -53.0980 C.ar  501  0K5501      0.0375
      2  C33        2.3100   -0.5850  -51.9100 C.ar  501  0K5501      0.0002
      3  C34        2.6060    0.3020  -52.9420 C.ar  501  0K5501      0.0031
      4  C32        3.2940   -0.9750  -51.0110 C.ar  501  0K5501      0.0031
      5  C4         2.5650   10.9950  -51.8900 C.ar  501  0K5501      0.0965
      6  C7         3.4140    9.8890  -51.8260 C.ar  501  0K5501      0.0278
      7  C6         6.1570    4.3170  -53.8140 C.ar  501  0K5501      0.0238
      8  C9         7.0170    1.7150  -54.4010 C.ar  501  0K5501      0.0391
      9  C13        5.3300    8.5900  -52.9200 C.3   501  0K5501      0.1417
     10  C8         6.6670    4.0640  -55.0490 C.ar  501  0K5501      0.1059
     11  C16        3.5200   12.8110  -54.9260 C.3   501  0K5501      0.0555
     12  C3         7.1300    2.7540  -55.3370 C.ar  501  0K5501      0.0239
     13  C31        4.5650   -0.4380  -51.1560 C.ar  501  0K5501      0.0375
     14  C1         6.0520    3.2840  -52.8600 C.ar  501  0K5501      0.0391
     15  C5         4.3630    9.7530  -52.8570 C.ar  501  0K5501      0.0394
     16  C30        4.8770    0.4440  -52.1910 C.ar  501  0K5501      0.1453
     17  C2         6.4340    1.9680  -53.1560 C.ar  501  0K5501      0.1454
     18  C10        4.3820   10.7330  -53.8660 C.ar  501  0K5501      0.2065
     19  C11        3.4610   11.7840  -53.8260 C.ar  501  0K5501      0.0978
     20  C14        5.7450    5.6830  -53.5140 C.ar  501  0K5501      0.0227
     21  C15        5.7210    6.6310  -54.4600 C.ar  501  0K5501      0.1248
     22  C12        6.2360    6.3610  -55.8020 C.ar  501  0K5501      0.3108
     23  C17        3.1890    8.9320  -50.6640 C.3   501  0K5501      0.1816
     24  N18        2.5550   11.9270  -52.8510 N.ar  501  0K5501     -0.2452
     25  N20        6.7230    5.0670  -55.9980 N.ar  501  0K5501     -0.0904
     26  N19        5.1390    7.9060  -54.1970 N.pl3 501  0K5501     -0.2279
     27  O22        4.7140    9.7170  -47.5340 O.3   501  0K5501     -0.1145
     28  O24        5.4980    7.4700  -48.2890 O.2   501  0K5501     -0.2224
     29  O23        6.2430    7.1990  -56.6830 O.2   501  0K5501     -0.2624
     30  O21        2.9810    7.8950  -47.9600 O.3   501  0K5501     -0.1145
     31  O25        5.2740   10.6650  -54.9050 O.3   501  0K5501     -0.2856
     32  O26        7.2650    4.8350  -57.2920 O.3   501  0K5501     -0.1602
     33  O29        6.1480    0.9500  -52.2940 O.3   501  0K5501     -0.4535
     34  O27        4.3270    8.9680  -49.8290 O.3   501  0K5501     -0.2653
     35  P28        4.3520    8.4800  -48.3170 P.3   501  0K5501      0.5329
@<TRIPOS>BOND
     1    32    25    1
     2    29    22    2
     3    25    22   ar
     4    25    10   ar
     5    22    21   ar
     6    12    10   ar
     7    12     8   ar
     8    10     7   ar
     9    11    19    1
    10    31    18    1
    11    21    26    1
    12    21    20   ar
    13     8    17   ar
    14    26     9    1
    15    18    19   ar
    16    18    15   ar
    17    19    24   ar
    18     7    20   ar
    19     7    14   ar
    20    17    14   ar
    21    17    33    1
    22     1     3   ar
    23     1    16   ar
    24     3     2   ar
    25     9    15    1
    26    15     6   ar
    27    24     5   ar
    28    33    16    1
    29    16    13   ar
    30     2     4   ar
    31     5     6   ar
    32     6    23    1
    33    13     4   ar
    34    23    34    1
    35    34    35    1
    36    35    28    2
    37    35    30    1
    38    35    27    1
