@<TRIPOS>MOLECULE
4ge8_FMN_A_1.pdb
 31 33 0 0 0
SMALL
GASTEIGER

@<TRIPOS>ATOM
      1  N1         3.2840  -35.5980   -9.8460 N.2   411  FMN411     -0.2887
      2  C2         2.5480  -34.8700   -8.9870 C.1   411  FMN411      0.3669
      3  O2         2.9950  -33.8180   -8.5400 O.2   411  FMN411     -0.1744
      4  N3         1.3360  -35.3070   -8.5810 N.2   411  FMN411     -0.2300
      5  C4         0.8010  -36.4540   -9.0590 C.1   411  FMN411      0.2513
      6  O4        -0.3060  -36.8340   -8.6180 O.2   411  FMN411     -0.2057
      7  C4A        1.5260  -37.2190   -9.9920 C.2   411  FMN411      0.2706
      8  N5         1.0660  -38.3730  -10.5430 N.2   411  FMN411     -0.3841
      9  C5A        1.8370  -39.0930  -11.3840 C.2   411  FMN411      0.1452
     10  C6         1.3510  -40.3040  -11.9230 C.2   411  FMN411      0.0252
     11  C7         2.1110  -41.0770  -12.7950 C.2   411  FMN411     -0.0375
     12  C7M        1.5850  -42.3650  -13.3470 C.3   411  FMN411      0.0268
     13  C8         3.3720  -40.6230  -13.1540 C.3   411  FMN411      0.0417
     14  C8M        4.2220  -41.3950  -14.1130 C.3   411  FMN411      0.0091
     15  C9         3.8690  -39.4250  -12.6220 C.2   411  FMN411     -0.0049
     16  C9A        3.1000  -38.6450  -11.7480 C.2   411  FMN411      0.0795
     17  N10        3.5920  -37.4680  -11.2170 N.pl3 411  FMN411     -0.2545
     18  C10        2.8150  -36.7430  -10.3560 C.2   411  FMN411      0.2449
     19  C1'        4.9560  -37.0270  -11.5080 C.3   411  FMN411      0.1336
     20  C2'        5.8790  -37.8000  -10.5190 C.3   411  FMN411      0.2048
     21  O2'        5.7260  -37.4490   -9.1600 O.3   411  FMN411     -0.2185
     22  C3'        7.3670  -37.6690  -10.8170 C.3   411  FMN411      0.2165
     23  O3'        7.7800  -36.3460  -10.6810 O.3   411  FMN411     -0.2175
     24  C4'        7.7390  -38.1510  -12.2130 C.3   411  FMN411      0.2147
     25  O4'        7.1410  -39.3690  -12.5130 O.3   411  FMN411     -0.2176
     26  C5'        9.2380  -38.2300  -12.4740 C.3   411  FMN411      0.1892
     27  O5'        9.9160  -39.1060  -11.6300 O.3   411  FMN411     -0.2674
     28  P         10.3680  -40.5890  -12.0740 P.3   411  FMN411      0.5327
     29  O1P        9.1140  -41.3840  -12.4160 O.3   411  FMN411     -0.1145
     30  O2P       11.2740  -40.5150  -13.2560 O.2   411  FMN411     -0.2224
     31  O3P       11.1030  -41.1490  -10.8810 O.3   411  FMN411     -0.1145
@<TRIPOS>BOND
     1    14    13    1
     2    12    11    1
     3    30    28    2
     4    13    11    1
     5    13    15    1
     6    11    10    2
     7    15    16    2
     8    25    24    1
     9    26    24    1
    10    26    27    1
    11    29    28    1
    12    24    22    1
    13    28    27    1
    14    28    31    1
    15    10     9    1
    16    16     9    1
    17    16    17    1
    18    19    17    1
    19    19    20    1
    20     9     8    2
    21    17    18    1
    22    22    23    1
    23    22    20    1
    24     8     7    2
    25    20    21    1
    26    18     7    1
    27    18     1    2
    28     7     5    1
    29     1     2    2
    30     5     6    2
    31     5     4    2
    32     2     4    2
    33     2     3    2
