@<TRIPOS>MOLECULE
4ge8_0WU_A_1.pdb
 11 11 0 0 0
SMALL
GASTEIGER

@<TRIPOS>ATOM
      1  C4        -1.7030  -36.3590  -12.8450 C.3   414  0WU414      0.0303
      2  C5        -1.7570  -35.9150  -11.4140 C.3   414  0WU414      0.0303
      3  C6        -1.0000  -34.6550  -11.1990 C.3   414  0WU414      0.0731
      4  C7         2.0350  -35.5700  -13.5390 C.3   414  0WU414      0.0337
      5  C8        -3.1550  -35.6280  -10.9570 C.2   414  0WU414     -0.0435
      6  C9        -4.2100  -36.0230  -11.7170 C.2   414  0WU414     -0.0091
      7  C10       -3.3490  -35.4520   -9.4910 C.3   414  0WU414      0.0264
      8  C3        -0.3030  -36.4430  -13.3900 C.2   414  0WU414     -0.0272
      9  C1         0.3360  -34.6430  -11.8720 C.2   414  0WU414      0.1691
     10  O1         1.1380  -33.8440  -11.4740 O.2   414  0WU414     -0.2917
     11  C2         0.6570  -35.5820  -12.9510 C.2   414  0WU414      0.0086
@<TRIPOS>BOND
     1     4    11    1
     2     8    11    2
     3     8     1    1
     4    11     9    1
     5     1     2    1
     6     9    10    2
     7     9     3    1
     8     6     5    2
     9     2     3    1
    10     2     5    1
    11     5     7    1
