@<TRIPOS>MOLECULE
4ge9_0L0_A_1.pdb
 37 40 0 0 0
SMALL
GASTEIGER

@<TRIPOS>ATOM
      1  N44       15.8610  -11.5000  -52.0570 N.ar  4000  0L04000    -0.0903
      2  C33       12.9730   -7.4560  -52.0080 C.3   4000  0L04000     0.1417
      3  C7         9.1680   -7.6290  -48.5840 C.3   4000  0L04000     0.0555
      4  C6        12.4270   -5.5740  -50.4260 C.ar  4000  0L04000     0.0278
      5  C13       20.9220   -8.2750  -51.7910 C.ar  4000  0L04000    -0.0039
      6  C8        13.5840   -4.7560  -50.9640 C.3   4000  0L04000     0.1816
      7  C16       23.2040   -6.8960  -52.6060 C.ar  4000  0L04000    -0.0003
      8  C19       20.4200  -12.6840  -54.1590 C.3   4000  0L04000     0.2525
      9  C26       16.9290  -10.7900  -52.6000 C.ar  4000  0L04000     0.1087
     10  C1        12.1350   -6.8590  -50.9020 C.ar  4000  0L04000     0.0394
     11  C2        11.0580   -7.5800  -50.3120 C.ar  4000  0L04000     0.2065
     12  C3        10.3320   -6.9540  -49.2670 C.ar  4000  0L04000     0.0978
     13  N4        10.6600   -5.7450  -48.8570 N.ar  4000  0L04000    -0.2452
     14  C5        11.6510   -5.0460  -49.3990 C.ar  4000  0L04000     0.0965
     15  O9        13.8200  -11.5430  -51.2560 O.2   4000  0L04000    -0.2624
     16  N10       13.2380   -8.8750  -51.7440 N.pl3 4000  0L04000    -0.2279
     17  C11       20.2120   -8.5250  -54.2220 C.3   4000  0L04000     0.0557
     18  C12       21.1750   -8.0530  -53.1550 C.ar  4000  0L04000    -0.0177
     19  C14       21.8380   -7.8320  -50.8370 C.ar  4000  0L04000    -0.0003
     20  C15       22.9970   -7.1430  -51.2530 C.ar  4000  0L04000    -0.0000
     21  C17       22.3250   -7.3730  -53.5640 C.ar  4000  0L04000    -0.0039
     22  O18       20.3830  -11.3380  -53.6520 O.3   4000  0L04000    -0.4717
     23  C22       19.1820  -10.7180  -53.4560 C.ar  4000  0L04000     0.1366
     24  C23       19.0500   -9.3350  -53.6890 C.ar  4000  0L04000     0.0163
     25  C24       17.8650   -8.6920  -53.4470 C.ar  4000  0L04000     0.0006
     26  C25       18.1260  -11.4320  -52.8870 C.ar  4000  0L04000     0.0574
     27  C27       16.7870   -9.3950  -52.8940 C.ar  4000  0L04000     0.0206
     28  C28       15.5070   -8.7150  -52.6150 C.ar  4000  0L04000     0.0226
     29  C29       14.4850   -9.4550  -52.0490 C.ar  4000  0L04000     0.1248
     30  C30       14.6950  -10.8850  -51.7630 C.ar  4000  0L04000     0.3108
     31  O31       15.9990  -12.8730  -51.7500 O.3   4000  0L04000    -0.1602
     32  O45       10.7620   -8.8650  -50.7290 O.3   4000  0L04000    -0.2856
     33  P46       13.9960   -3.1970  -53.1070 P.3   4000  0L04000     0.5329
     34  O47       13.3110   -4.4160  -52.3280 O.3   4000  0L04000    -0.2653
     35  O48       14.6960   -3.7810  -54.3610 O.2   4000  0L04000    -0.2224
     36  O49       12.9140   -2.1400  -53.4810 O.3   4000  0L04000    -0.1145
     37  O50       15.0830   -2.5160  -52.2310 O.3   4000  0L04000    -0.1145
@<TRIPOS>BOND
     1    35    33    2
     2    17    24    1
     3    17    18    1
     4     8    22    1
     5    24    23   ar
     6    24    25   ar
     7    22    23    1
     8    21    18   ar
     9    21     7   ar
    10    36    33    1
    11    23    26   ar
    12    25    27   ar
    13    18     5   ar
    14    33    34    1
    15    33    37    1
    16    27    28   ar
    17    27     9   ar
    18    26     9   ar
    19    28    29   ar
    20     7    20   ar
    21     9     1   ar
    22    34     6    1
    23     1    30   ar
    24     1    31    1
    25    29    30   ar
    26    29    16    1
    27     2    16    1
    28     2    10    1
    29     5    19   ar
    30    30    15    2
    31    20    19   ar
    32     6     4    1
    33    10     4   ar
    34    10    11   ar
    35    32    11    1
    36     4    14   ar
    37    11    12   ar
    38    14    13   ar
    39    12    13   ar
    40    12     3    1
