@<TRIPOS>MOLECULE
4ged_HEM_A_1.pdb
 43 50 0 0 0
SMALL
GASTEIGER

@<TRIPOS>ATOM
      1  CHA      -39.3950   16.1250   13.4130 C.2   401  HEM401      0.0000
      2  CHB      -38.3140   19.8930   16.0800 C.2   401  HEM401      0.0000
      3  CHC      -40.7690   18.0520   19.7790 C.2   401  HEM401      0.0000
      4  CHD      -41.8980   14.2950   17.0470 C.2   401  HEM401      0.0000
      5  C1A      -38.9310   17.3570   13.7900 C.ar  401  HEM401      0.0000
      6  C2A      -38.2210   18.2220   12.9420 C.ar  401  HEM401      0.0000
      7  C3A      -37.9090   19.2850   13.6840 C.ar  401  HEM401      0.0000
      8  C4A      -38.4230   19.0880   15.0290 C.ar  401  HEM401      0.0000
      9  CMA      -37.1330   20.5280   13.2260 C.3   401  HEM401      0.0000
     10  CAA      -37.8720   18.0190   11.4990 C.3   401  HEM401      0.0000
     11  CBA      -39.0900   18.1750   10.6360 C.3   401  HEM401      0.0000
     12  CGA      -38.8350   17.9500    9.1500 C.2   401  HEM401      0.0000
     13  O1A      -37.8880   18.5490    8.5920 O.co2 401  HEM401      0.0000
     14  O2A      -39.4450   17.0730    8.6050 O.co2 401  HEM401      0.0000
     15  C1B      -38.8380   19.7130   17.3740 C.2   401  HEM401      0.0000
     16  C2B      -38.6550   20.6470   18.4540 C.2   401  HEM401      0.0000
     17  C3B      -39.3810   20.0650   19.5440 C.2   401  HEM401      0.0000
     18  C4B      -39.9310   18.8830   19.0450 C.2   401  HEM401      0.0000
     19  CMB      -37.8830   21.9160   18.4090 C.3   401  HEM401      0.0000
     20  CAB      -39.4890   20.6560   20.8440 C.2   401  HEM401      0.0000
     21  CBB      -38.4450   20.9900   21.5760 C.2   401  HEM401      0.0000
     22  C1C      -41.3470   16.8960   19.3070 C.ar  401  HEM401      0.0000
     23  C2C      -42.2710   16.1060   20.1080 C.ar  401  HEM401      0.0000
     24  C3C      -42.6380   14.9890   19.3370 C.ar  401  HEM401      0.0000
     25  C4C      -41.8680   15.1850   18.0550 C.ar  401  HEM401      0.0000
     26  CMC      -42.7360   16.4550   21.5070 C.3   401  HEM401      0.0000
     27  CAC      -43.4900   13.9890   19.6590 C.2   401  HEM401      0.0000
     28  CBC      -44.1780   13.5710   20.6630 C.2   401  HEM401      0.0000
     29  C1D      -41.2360   14.4230   15.8400 C.2   401  HEM401      0.0000
     30  C2D      -41.2630   13.3780   14.7630 C.2   401  HEM401      0.0000
     31  C3D      -40.5350   13.9120   13.7420 C.2   401  HEM401      0.0000
     32  C4D      -40.0980   15.2460   14.1800 C.2   401  HEM401      0.0000
     33  CMD      -41.9600   12.0390   14.8810 C.3   401  HEM401      0.0000
     34  CAD      -40.1960   13.2480   12.4250 C.3   401  HEM401      0.0000
     35  CBD      -41.2380   13.3560   11.3560 C.3   401  HEM401      0.0000
     36  CGD      -40.8270   12.6870   10.1000 C.2   401  HEM401      0.0000
     37  O1D      -41.4230   12.9670    9.0230 O.co2 401  HEM401      0.0000
     38  O2D      -39.9310   11.8160   10.1190 O.co2 401  HEM401      0.0000
     39  NA       -39.0740   17.8810   15.0790 N.ar  401  HEM401      0.0000
     40  NB       -39.5670   18.6490   17.6990 N.2   401  HEM401      0.0000
     41  NC       -41.1560   16.3160   18.0690 N.ar  401  HEM401      0.0000
     42  ND       -40.4970   15.4780   15.4630 N.2   401  HEM401      0.0000
     43 FE        -40.0490   17.0620   16.5910 Fe    401  HEM401      0.0000
@<TRIPOS>BOND
     1    13    12   ar
     2    14    12   ar
     3    37    36   ar
     4    12    11    1
     5    36    38   ar
     6    36    35    1
     7    11    10    1
     8    35    34    1
     9    10     6    1
    10    34    31    1
    11     6     7   ar
    12     6     5   ar
    13     9     7    1
    14     1     5    2
    15     1    32    1
    16     7     8   ar
    17    31    32    1
    18    31    30    2
    19     5    39   ar
    20    32    42    2
    21    30    33    1
    22    30    29    1
    23     8    39   ar
    24     8     2    2
    25    39    43    1
    26    42    29    1
    27    42    43    1
    28    29     4    2
    29     2    15    1
    30    43    40    1
    31    43    41    1
    32     4    25    1
    33    15    40    2
    34    15    16    1
    35    40    18    1
    36    25    41   ar
    37    25    24   ar
    38    41    22   ar
    39    19    16    1
    40    16    17    2
    41    18    17    1
    42    18     3    2
    43    22     3    1
    44    22    23   ar
    45    24    27    1
    46    24    23   ar
    47    17    20    1
    48    27    28    2
    49    23    26    1
    50    20    21    2
