@<TRIPOS>MOLECULE
4ged_HEC_B_1.pdb
 43 50 0 0 0
SMALL
GASTEIGER

@<TRIPOS>ATOM
      1 FE        -28.3400   -6.0010   14.0710 Fe    201  HEC201      0.0000
      2  CHA      -25.8050   -7.8440   15.4740 C.2   201  HEC201      0.0000
      3  CHB      -29.7950   -8.8610   12.9190 C.2   201  HEC201      0.0000
      4  CHC      -30.9530   -4.1760   12.7790 C.2   201  HEC201      0.0000
      5  CHD      -26.8400   -3.1400   15.0600 C.2   201  HEC201      0.0000
      6  NA       -27.8890   -7.9390   14.1820 N.ar  201  HEC201      0.0000
      7  C1A      -26.8180   -8.5330   14.7960 C.ar  201  HEC201      0.0000
      8  C2A      -26.8540   -9.9520   14.6780 C.ar  201  HEC201      0.0000
      9  C3A      -27.9460  -10.2630   13.9630 C.ar  201  HEC201      0.0000
     10  C4A      -28.6130   -8.9910   13.6470 C.ar  201  HEC201      0.0000
     11  CMA      -28.4620  -11.6160   13.5370 C.3   201  HEC201      0.0000
     12  CAA      -25.8450  -10.9410   15.2650 C.3   201  HEC201      0.0000
     13  CBA      -24.6320  -11.0290   14.3530 C.3   201  HEC201      0.0000
     14  CGA      -23.5430  -11.9600   14.8330 C.2   201  HEC201      0.0000
     15  O1A      -23.6380  -12.5830   15.9110 O.co2 201  HEC201      0.0000
     16  O2A      -22.5180  -12.0540   14.0780 O.co2 201  HEC201      0.0000
     17  NB       -29.9990   -6.4430   13.0640 N.2   201  HEC201      0.0000
     18  C1B      -30.4460   -7.7080   12.6470 C.2   201  HEC201      0.0000
     19  C2B      -31.6550   -7.5930   11.9210 C.2   201  HEC201      0.0000
     20  C3B      -32.0010   -6.3050   11.8970 C.2   201  HEC201      0.0000
     21  C4B      -30.9610   -5.5630   12.6030 C.2   201  HEC201      0.0000
     22  CMB      -32.3660   -8.7850   11.3100 C.3   201  HEC201      0.0000
     23  CAB      -33.2250   -5.6160   11.2610 C.3   201  HEC201      0.0000
     24  CBB      -34.5060   -6.5130   11.2500 C.3   201  HEC201      0.0000
     25  NC       -28.8240   -4.0420   13.9420 N.ar  201  HEC201      0.0000
     26  C1C      -29.9220   -3.4820   13.3940 C.ar  201  HEC201      0.0000
     27  C2C      -29.8790   -2.0550   13.4940 C.ar  201  HEC201      0.0000
     28  C3C      -28.7050   -1.7650   14.1000 C.ar  201  HEC201      0.0000
     29  C4C      -28.0590   -3.0060   14.4040 C.ar  201  HEC201      0.0000
     30  CMC      -30.9550   -1.1120   12.9990 C.3   201  HEC201      0.0000
     31  CAC      -28.0650   -0.4310   14.4200 C.3   201  HEC201      0.0000
     32  CBC      -28.9560    0.5160   15.2690 C.3   201  HEC201      0.0000
     33  ND       -26.6550   -5.5850   15.0680 N.2   201  HEC201      0.0000
     34  C1D      -26.2300   -4.3010   15.3760 C.2   201  HEC201      0.0000
     35  C2D      -24.9760   -4.4640   16.1230 C.2   201  HEC201      0.0000
     36  C3D      -24.6840   -5.7480   16.2690 C.2   201  HEC201      0.0000
     37  C4D      -25.7550   -6.4700   15.5680 C.2   201  HEC201      0.0000
     38  CMD      -24.1950   -3.2130   16.6450 C.3   201  HEC201      0.0000
     39  CAD      -23.5380   -6.2590   17.0180 C.3   201  HEC201      0.0000
     40  CBD      -24.0780   -6.3200   18.4770 C.3   201  HEC201      0.0000
     41  CGD      -23.1390   -6.6980   19.5940 C.2   201  HEC201      0.0000
     42  O1D      -21.9170   -6.8700   19.4320 O.co2 201  HEC201      0.0000
     43  O2D      -23.6860   -6.7100   20.7370 O.co2 201  HEC201      0.0000
@<TRIPOS>BOND
     1    24    23    1
     2    23    20    1
     3    22    19    1
     4    20    19    2
     5    20    21    1
     6    19    18    1
     7    21     4    2
     8    21    17    1
     9    18     3    1
    10    18    17    2
    11     4    26    1
    12     3    10    2
    13    30    27    1
    14    17     1    1
    15    26    27   ar
    16    26    25   ar
    17    27    28   ar
    18    11     9    1
    19    10     9   ar
    20    10     6   ar
    21    25     1    1
    22    25    29   ar
    23     9     8   ar
    24     1     6    1
    25     1    33    1
    26    16    14   ar
    27    28    29   ar
    28    28    31    1
    29     6     7   ar
    30    13    14    1
    31    13    12    1
    32    29     5    1
    33    31    32    1
    34     8     7   ar
    35     8    12    1
    36     7     2    2
    37    14    15   ar
    38     5    34    2
    39    33    34    1
    40    33    37    2
    41    34    35    1
    42     2    37    1
    43    37    36    1
    44    35    36    2
    45    35    38    1
    46    36    39    1
    47    39    40    1
    48    40    41    1
    49    42    41   ar
    50    41    43   ar
