@<TRIPOS>MOLECULE
4gee_0WT_A_1.pdb
 26 30 0 0 0
SMALL
GASTEIGER

@<TRIPOS>ATOM
      1 CL1       -10.3710   -2.0490  -11.4090 Cl    301  0WT301     -0.0790
      2  C4       -11.4910   -3.1800  -12.3090 C.2   301  0WT301      0.0990
      3  C5       -12.9090   -3.2900  -11.9550 C.2   301  0WT301      0.1327
      4  C10      -13.6410   -2.5060  -10.8950 C.3   301  0WT301      0.0609
      5  C11      -14.6970   -3.3410  -10.2080 C.3   301  0WT301      0.0079
      6  N1       -13.4020   -4.2310  -12.7880 N.2   301  0WT301     -0.3426
      7  C3       -11.1360   -4.1050  -13.3930 C.2   301  0WT301      0.1439
      8  C6        -9.9790   -4.5580  -14.2320 C.2   301  0WT301      0.2110
      9  N13       -8.6640   -4.0660  -14.2150 N.pl3 301  0WT301     -0.2821
     10  C17       -7.6130   -4.7130  -14.9910 C.3   301  0WT301      0.0947
     11  C16       -6.6870   -3.5410  -15.3160 C.3   301  0WT301      0.0406
     12  C18       -7.4250   -2.3720  -15.9580 C.3   301  0WT301      0.0952
     13  N19       -6.4740   -1.5320  -16.6730 N.3   301  0WT301     -0.1328
     14  C15       -7.1170   -2.3550  -14.4630 C.3   301  0WT301      0.0406
     15  C14       -8.2950   -2.8000  -13.5970 C.3   301  0WT301      0.0947
     16  N7       -10.2500   -5.5150  -15.1360 N.2   301  0WT301     -0.2942
     17  C8       -11.4810   -6.0580  -15.3030 C.1   301  0WT301      0.3261
     18  N9       -12.5540   -5.6850  -14.5780 N.2   301  0WT301     -0.2437
     19  C2       -12.4630   -4.7380  -13.6190 C.1   301  0WT301      0.1566
     20  O20      -11.6700   -7.0320  -16.2380 O.3   301  0WT301     -0.3713
     21  C21      -10.6500   -7.5430  -17.0000 C.ar  301  0WT301      0.1994
     22  C26      -10.4470   -8.9170  -17.0230 C.ar  301  0WT301      0.1408
     23  N25       -9.4510   -9.4100  -17.7820 N.ar  301  0WT301     -0.2192
     24  C24       -8.6790   -8.5910  -18.5130 C.ar  301  0WT301      0.1991
     25  N23       -8.8620   -7.2630  -18.5220 N.ar  301  0WT301     -0.2192
     26  C22       -9.8390   -6.7130  -17.7790 C.ar  301  0WT301      0.1408
@<TRIPOS>BOND
     1    25    24   ar
     2    25    26   ar
     3    24    23   ar
     4    23    22   ar
     5    26    21   ar
     6    22    21   ar
     7    21    20    1
     8    13    12    1
     9    20    17    1
    10    12    11    1
    11    12    14    1
    12    11    10    1
    13    11    14    1
    14    17    16    2
    15    17    18    2
    16    16     8    2
    17    10     9    1
    18    18    19    2
    19    14    15    1
    20     8     9    1
    21     8     7    1
    22     9    15    1
    23    19     7    1
    24    19     6    2
    25     7     2    2
    26     6     3    2
    27     2     3    1
    28     2     1    1
    29     3     4    1
    30     4     5    1
