@<TRIPOS>MOLECULE
4gef_DLZ_C_1.pdb
 23 24 0 0 0
SMALL
GASTEIGER

@<TRIPOS>ATOM
      1  C7         2.6630   10.3290   74.2440 C.3   204  DLZ204      0.0288
      2  C7A        4.1570   10.6610   74.1660 C.3   204  DLZ204      0.1233
      3  C5A        5.1860    9.8240   74.9130 C.2   204  DLZ204      0.1061
      4  C6         4.8460    8.6080   75.7790 C.3   204  DLZ204      0.0633
      5  N5         6.4970   10.1600   74.8060 N.2   204  DLZ204     -0.3925
      6  C4A        6.9050   11.2480   74.0680 C.2   204  DLZ204      0.2697
      7  C4         8.3750   11.6580   73.9840 C.1   204  DLZ204      0.2513
      8  O4         9.3180   10.9870   74.5860 O.2   204  DLZ204     -0.2057
      9  N3         8.6390   12.7790   73.2110 N.2   204  DLZ204     -0.2300
     10  C2         7.6650   13.5180   72.5610 C.1   204  DLZ204      0.3669
     11  O2         8.0660   14.4560   71.9050 O.2   204  DLZ204     -0.1744
     12  N1         6.3320   13.2020   72.5840 N.2   204  DLZ204     -0.2890
     13  C8         5.8830   12.0960   73.3140 C.2   204  DLZ204      0.2413
     14  N8         4.5700   11.7260   73.4160 N.pl3 204  DLZ204     -0.2730
     15  C1'        3.5640   12.5370   72.7500 C.3   204  DLZ204      0.1291
     16  C2'        3.1860   12.0880   71.3240 C.3   204  DLZ204      0.2044
     17  O2'        4.3060   12.4240   70.4850 O.3   204  DLZ204     -0.2185
     18  C3'        1.7650   12.6490   70.9270 C.3   204  DLZ204      0.2166
     19  O3'        1.5260   14.0140   71.3890 O.3   204  DLZ204     -0.2175
     20  C4'        0.5680   11.9310   71.5800 C.3   204  DLZ204      0.2175
     21  O4'        0.6180   10.4800   71.5640 O.3   204  DLZ204     -0.2175
     22  C5'       -0.7090   12.5110   70.9690 C.3   204  DLZ204      0.2175
     23  O5'       -0.7610   12.3450   69.5270 O.3   204  DLZ204     -0.2175
@<TRIPOS>BOND
     1    23    22    1
     2    17    16    1
     3    18    16    1
     4    18    19    1
     5    18    20    1
     6    22    20    1
     7    16    15    1
     8    21    20    1
     9    11    10    2
    10    10    12    2
    11    10     9    2
    12    12    13    2
    13    15    14    1
    14     9     7    2
    15    13    14    1
    16    13     6    1
    17    14     2    1
    18     7     6    1
    19     7     8    2
    20     6     5    2
    21     2     1    1
    22     2     3    1
    23     5     3    2
    24     3     4    1
