@<TRIPOS>MOLECULE
4gek_GEK_A_1.pdb
 30 32 0 0 0
SMALL
GASTEIGER

@<TRIPOS>ATOM
      1  C        -16.6980  -11.6160  -26.1080 C.2   302  GEK302      0.3819
      2  N        -18.1450  -13.5140  -26.8690 N.3   302  GEK302     -0.1208
      3  O        -16.7090  -10.4760  -25.5610 O.co2 302  GEK302     -0.2441
      4  N1       -27.7030  -18.2510  -26.5550 N.2   302  GEK302      0.0021
      5  C2       -27.2110  -16.9910  -26.9780 C.3   302  GEK302      0.5254
      6  N3       -26.3850  -16.2840  -26.0900 N.2   302  GEK302     -0.0055
      7  C4       -26.1460  -16.8300  -24.8750 C.2   302  GEK302      0.3518
      8  C5       -26.6570  -18.0570  -24.4600 C.2   302  GEK302      0.2526
      9  C6       -27.4630  -18.7550  -25.3470 C.2   302  GEK302      0.4393
     10  N6       -27.9940  -20.0390  -25.0300 N.pl3 302  GEK302      0.2180
     11  N7       -26.2840  -18.3210  -23.1900 N.2   302  GEK302     -0.2095
     12  C8       -25.5170  -17.2740  -22.7400 C.3   302  GEK302      0.3377
     13  N9       -25.4390  -16.3450  -23.7910 N.pl3 302  GEK302     -0.1439
     14  CA       -18.0200  -12.3300  -25.9350 C.3   302  GEK302      0.1952
     15  CB       -18.1420  -12.7390  -24.4670 C.3   302  GEK302      0.0414
     16  SD       -20.0200  -13.5270  -22.5530 S.3   302  GEK302     -0.1660
     17  CE       -18.6830  -14.1440  -21.5660 C.3   302  GEK302      0.1625
     18  CG       -19.3180  -13.7090  -24.2390 C.3   302  GEK302      0.0508
     19  CZ       -18.9870  -14.1180  -20.1040 C.2   302  GEK302      0.3749
     20  C1'      -24.5940  -15.1190  -23.8370 C.3   302  GEK302      0.3185
     21  C2'      -24.7390  -14.2170  -22.6540 C.3   302  GEK302      0.2569
     22  O2'      -25.8990  -13.4760  -22.7810 O.3   302  GEK302     -0.2130
     23  C3'      -23.4080  -13.4340  -22.7400 C.3   302  GEK302      0.2168
     24  O3'      -23.5780  -12.1950  -23.3960 O.3   302  GEK302     -0.2175
     25  C4'      -22.4880  -14.4150  -23.4820 C.3   302  GEK302      0.1622
     26  O4'      -23.2500  -15.5890  -23.7720 O.3   302  GEK302     -0.3153
     27  C5'      -21.2780  -14.8430  -22.6520 C.3   302  GEK302      0.0810
     28  OXT      -15.8680  -12.2060  -26.7320 O.co2 302  GEK302     -0.2441
     29  OZ1      -19.9770  -13.4100  -19.6530 O.co2 302  GEK302     -0.2447
     30  OZ2      -18.0900  -14.6810  -19.3330 O.co2 302  GEK302     -0.2447
@<TRIPOS>BOND
     1     5     4    1
     2     5     6    1
     3     2    14    1
     4    28     1   ar
     5     4     9    2
     6     1    14    1
     7     1     3   ar
     8     6     7    2
     9    14    15    1
    10     9    10    1
    11     9     8    1
    12     7     8    1
    13     7    13    1
    14    15    18    1
    15     8    11    2
    16    18    16    1
    17    20    13    1
    18    20    26    1
    19    20    21    1
    20    13    12    1
    21    26    25    1
    22    25    23    1
    23    25    27    1
    24    24    23    1
    25    11    12    1
    26    22    21    1
    27    23    21    1
    28    27    16    1
    29    16    17    1
    30    17    19    1
    31    19    29   ar
    32    19    30   ar
