@<TRIPOS>MOLECULE
4ger_LYS_A_1.pdb
 10 9 0 0 0
SMALL
GASTEIGER

@<TRIPOS>ATOM
      1  N         -0.6030   23.8920   48.3180 N.3   406  LYS406     -0.1208
      2  CA        -0.8210   25.1600   47.5740 C.3   406  LYS406      0.1943
      3  C         -0.4250   25.1060   46.0950 C.2   406  LYS406      0.3819
      4  O          0.2770   24.1820   45.6730 O.co2 406  LYS406     -0.2441
      5  CB        -0.2430   26.4320   48.2590 C.3   406  LYS406      0.0307
      6  CG         1.1800   26.3130   48.7860 C.3   406  LYS406      0.0036
      7  CD         1.9680   27.5220   48.3150 C.3   406  LYS406      0.0206
      8  CE         3.4140   27.1970   48.5890 C.3   406  LYS406      0.1093
      9  NZ         4.3930   28.2320   48.1710 N.3   406  LYS406     -0.1314
     10  OXT       -0.9060   25.9520   45.2890 O.co2 406  LYS406     -0.2441
@<TRIPOS>BOND
     1    10     3   ar
     2     4     3   ar
     3     3     2    1
     4     2     5    1
     5     2     1    1
     6     9     8    1
     7     5     6    1
     8     7     8    1
     9     7     6    1
