@<TRIPOS>MOLECULE
4gev_UMC_A_1.pdb
 32 33 0 0 0
SMALL
GASTEIGER

@<TRIPOS>ATOM
      1  P        111.0300   23.6700   31.3070 P.3   701  UMC701      0.5320
      2  N1       108.5550   19.9260   26.6330 N.am  701  UMC701     -0.2540
      3  C2       107.7490   19.8500   25.5760 C.2   701  UMC701      0.3107
      4  O2       107.9220   20.5740   24.5900 O.2   701  UMC701     -0.2521
      5  N3       106.7460   18.9570   25.6110 N.am  701  UMC701     -0.2399
      6  C4       106.5890   18.0260   26.5670 C.2   701  UMC701      0.2222
      7  O4       105.6680   17.2020   26.4850 O.2   701  UMC701     -0.2753
      8  C5       107.5650   17.9510   27.7140 C.3   701  UMC701      0.0449
      9  C6       108.3340   19.2480   27.9110 C.3   701  UMC701      0.0572
     10  C1'      109.7530   20.7760   26.5820 C.3   701  UMC701      0.1317
     11  O1P      110.3080   22.8610   32.3780 O.3   701  UMC701     -0.1145
     12  C2'      109.5300   22.2630   26.8540 C.3   701  UMC701      0.0190
     13  O2P      112.2460   24.4150   31.8100 O.3   701  UMC701     -0.1145
     14  C3'      110.9190   22.6930   27.3020 C.3   701  UMC701      0.0875
     15  O3'      111.8000   22.8560   26.1830 O.3   701  UMC701     -0.3890
     16  O3P      110.1240   24.5170   30.4620 O.2   701  UMC701     -0.2224
     17  C4'      111.3690   21.5090   28.1350 C.3   701  UMC701      0.1106
     18  O4'      110.7140   20.3740   27.5620 O.3   701  UMC701     -0.3505
     19  C5'      110.9060   21.6450   29.5760 C.3   701  UMC701      0.0879
     20  O5'      111.7010   22.5900   30.3000 O.3   701  UMC701     -0.2809
     21  H6       109.2970   19.0320   28.3800 H     701  UMC701      0.0525
     22  H2'      109.2240   22.7920   25.9490 H     701  UMC701      0.0332
     23  H5'      109.8620   21.9640   29.5920 H     701  UMC701      0.0592
     24 H2'A      108.7930   22.4170   27.6440 H     701  UMC701      0.0332
     25 H5'A      110.9650   20.6720   30.0680 H     701  UMC701      0.0592
     26  H1'      110.2060   20.6850   25.5840 H     701  UMC701      0.0811
     27  H3'      110.8640   23.6010   27.9190 H     701  UMC701      0.0621
     28 HO3'      111.4670   23.5610   25.6110 H     701  UMC701      0.2099
     29  H4'      112.4630   21.4050   28.0910 H     701  UMC701      0.0646
     30  H5       108.2720   17.1390   27.5290 H     701  UMC701      0.0377
     31  H5A      107.0220   17.7130   28.6310 H     701  UMC701      0.0377
     32  HN3      106.0980   18.9400   24.8400 H     701  UMC701      0.1591
@<TRIPOS>BOND
     1     4     3    2
     2    32     5    1
     3     3     5   am
     4     3     2   am
     5    26    10    1
     6     5     6   am
     7    28    15    1
     8    22    12    1
     9    15    14    1
    10     7     6    2
    11     6     8    1
    12    10     2    1
    13    10    12    1
    14    10    18    1
    15     2     9    1
    16    12    14    1
    17    12    24    1
    18    14    27    1
    19    14    17    1
    20    30     8    1
    21    18    17    1
    22     8     9    1
    23     8    31    1
    24     9    21    1
    25    29    17    1
    26    17    19    1
    27    19    23    1
    28    19    25    1
    29    19    20    1
    30    20     1    1
    31    16     1    2
    32     1    13    1
    33     1    11    1
