@<TRIPOS>MOLECULE
4gey_BGC_A_1.pdb
 12 12 0 0 0
SMALL
GASTEIGER

@<TRIPOS>ATOM
      1  C2        29.2280   38.8630   71.3150 C.3   501  BGC501      0.2434
      2  C3        28.7700   38.6310   70.0140 C.3   501  BGC501      0.2199
      3  C4        27.4610   37.9820   69.9980 C.3   501  BGC501      0.2144
      4  C5        26.3800   38.7560   70.8130 C.3   501  BGC501      0.1836
      5  C6        25.2220   38.0800   71.0230 C.3   501  BGC501      0.2142
      6  C1        28.3460   39.7230   72.0600 C.3   501  BGC501      0.3024
      7  O1        28.8680   39.8870   73.3300 O.3   501  BGC501     -0.1869
      8  O2        30.5580   39.4740   71.2440 O.3   501  BGC501     -0.2148
      9  O3        29.7660   37.8150   69.3070 O.3   501  BGC501     -0.2174
     10  O4        27.0650   37.8070   68.6670 O.3   501  BGC501     -0.2176
     11  O5        27.0330   39.1140   72.1450 O.3   501  BGC501     -0.3236
     12  O6        25.1620   37.1060   72.0110 O.3   501  BGC501     -0.2176
@<TRIPOS>BOND
     1    10     3    1
     2     9     2    1
     3     3     2    1
     4     3     4    1
     5     2     1    1
     6     4     5    1
     7     4    11    1
     8     5    12    1
     9     8     1    1
    10     1     6    1
    11     6    11    1
    12     6     7    1
