@<TRIPOS>MOLECULE
4gey_C8E_A_1.pdb
 12 11 0 0 0
SMALL
GASTEIGER

@<TRIPOS>ATOM
      1  C1         5.5380   42.0940   60.4230 C.3   502  C8E502      0.0000
      2  C2         5.9410   40.6360   60.5270 C.3   502  C8E502      0.0000
      3  C3         5.4250   39.9010   59.2970 C.3   502  C8E502      0.0000
      4  C4         4.5160   38.7390   59.6780 C.3   502  C8E502      0.0000
      5  C5         4.9590   37.4430   59.0130 C.3   502  C8E502      0.0001
      6  C6         4.9770   36.3130   60.0390 C.3   502  C8E502      0.0026
      7  C7         3.9050   35.2760   59.7340 C.3   502  C8E502      0.0321
      8  C8         4.0320   34.0230   60.5950 C.3   502  C8E502      0.1423
      9  O9         4.3690   32.9190   59.7740 O.3   502  C8E502     -0.3510
     10  C10        3.8830   31.6850   60.2770 C.3   502  C8E502      0.1776
     11  C11        4.3930   30.5000   59.4550 C.3   502  C8E502      0.2140
     12  O12        3.5420   29.3810   59.6280 O.3   502  C8E502     -0.2176
@<TRIPOS>BOND
     1     5     4    1
     2     5     6    1
     3     3     4    1
     4     3     2    1
     5    11    12    1
     6    11    10    1
     7     7     6    1
     8     7     8    1
     9     9    10    1
    10     9     8    1
    11     1     2    1
