@<TRIPOS>MOLECULE
4gey_DMU_A_1.pdb
 30 31 0 0 0
SMALL
GASTEIGER

@<TRIPOS>ATOM
      1  C1        32.4000   65.4680   67.9620 C.3   510  DMU510      0.2405
      2  C2        31.7890   66.4030   68.8540 C.3   510  DMU510      0.2167
      3  C3        32.2040   67.8020   68.6380 C.3   510  DMU510      0.1804
      4  C4        32.1520   68.2440   67.1600 C.3   510  DMU510      0.1803
      5  O5        32.4940   67.0700   66.2040 O.3   510  DMU510     -0.3257
      6  C6        32.0690   65.7410   66.5840 C.3   510  DMU510      0.2698
      7  O7        31.3550   68.7150   69.3610 O.3   510  DMU510     -0.3257
      8  O16       32.6860   64.7950   65.7030 O.3   510  DMU510     -0.3237
      9  C18       32.3020   64.7550   64.3340 C.3   510  DMU510      0.1708
     10  C19       33.2810   64.1140   63.3110 C.2   510  DMU510      0.0015
     11  C22       32.6930   63.3890   62.0480 C.2   510  DMU510     -0.0235
     12  C25       33.6570   62.6150   61.1410 C.3   510  DMU510      0.0514
     13  C28       33.1450   61.3660   60.4320 C.2   510  DMU510     -0.0260
     14  C31       34.1110   60.4570   59.6780 C.2   510  DMU510     -0.0300
     15  C34       33.5920   59.1950   59.0270 C.3   510  DMU510      0.0304
     16  O49       31.9740   64.1070   68.3550 O.3   510  DMU510     -0.2149
     17  O55       31.9910   65.9610   70.2430 O.3   510  DMU510     -0.2175
     18  C57       32.9760   69.2910   66.9200 C.3   510  DMU510      0.2141
     19  O61       32.6800   70.0540   65.7980 O.3   510  DMU510     -0.2176
     20  C5        31.0730   70.3830   70.9730 C.3   510  DMU510      0.2406
     21  C7        31.3510   71.6180   70.3240 C.3   510  DMU510      0.2198
     22  C8        32.7180   72.0980   70.5890 C.3   510  DMU510      0.2144
     23  C9        33.8300   71.1140   70.0920 C.3   510  DMU510      0.1835
     24  O1        33.2900   69.6680   70.1020 O.3   510  DMU510     -0.3256
     25  C10       31.9300   69.3050   70.4820 C.3   510  DMU510      0.2695
     26  O2        32.9000   73.3450   69.9880 O.3   510  DMU510     -0.2176
     27  O3        29.6490   70.0100   70.8320 O.3   510  DMU510     -0.2149
     28  O4        30.3830   72.5840   70.7980 O.3   510  DMU510     -0.2174
     29  C11       34.9230   71.1520   70.8380 C.3   510  DMU510      0.2142
     30  O6        35.4950   72.3860   71.0580 O.3   510  DMU510     -0.2176
@<TRIPOS>BOND
     1    15    14    1
     2    14    13    2
     3    13    12    1
     4    12    11    1
     5    11    10    2
     6    10     9    1
     7     9     8    1
     8     8     6    1
     9    19    18    1
    10     5     6    1
    11     5     4    1
    12     6     1    1
    13    18     4    1
    14     4     3    1
    15     1    16    1
    16     1     2    1
    17     3     2    1
    18     3     7    1
    19     2    17    1
    20     7    25    1
    21    26    22    1
    22    23    24    1
    23    23    22    1
    24    23    29    1
    25    24    25    1
    26    21    22    1
    27    21    28    1
    28    21    20    1
    29    25    20    1
    30    27    20    1
    31    29    30    1
