@<TRIPOS>MOLECULE
4gez_FUC_A_1.pdb
 10 10 0 0 0
SMALL
GASTEIGER

@<TRIPOS>ATOM
      1  C1        15.5540   71.8470  -49.0510 C.3   505  FUC505      0.1776
      2  C2        15.3040   71.2910  -47.6310 C.3   505  FUC505      0.2141
      3  C3        15.3080   69.7590  -47.6530 C.3   505  FUC505      0.2172
      4  C4        16.6470   69.2710  -48.2220 C.3   505  FUC505      0.2116
      5  C5        16.8030   69.8230  -49.6460 C.3   505  FUC505      0.1483
      6  C6        18.1280   69.4500  -50.3160 C.3   505  FUC505      0.0349
      7  O2        14.0970   71.7840  -47.0560 O.3   505  FUC505     -0.2176
      8  O3        15.1670   69.2350  -46.3320 O.3   505  FUC505     -0.2175
      9  O4        17.7100   69.7390  -47.3990 O.3   505  FUC505     -0.2177
     10  O5        16.7130   71.2810  -49.6530 O.3   505  FUC505     -0.3508
@<TRIPOS>BOND
     1     6     5    1
     2    10     5    1
     3    10     1    1
     4     5     4    1
     5     1     2    1
     6     4     3    1
     7     4     9    1
     8     3     2    1
     9     3     8    1
    10     2     7    1
