@<TRIPOS>MOLECULE
4gf0_GSH_A_1.pdb
 20 19 0 0 0
SMALL
GASTEIGER

@<TRIPOS>ATOM
      1  N1        35.1810   27.2460   22.1160 N.3   302  GSH302     -0.1208
      2  CA1       36.2630   26.5790   21.4280 C.3   302  GSH302      0.1948
      3  C1        35.7220   25.7660   20.2950 C.2   302  GSH302      0.3819
      4  O11       36.3810   25.6490   19.2260 O.co2 302  GSH302     -0.2441
      5  O12       34.6160   25.1730   20.4150 O.co2 302  GSH302     -0.2441
      6  CB1       36.9820   25.6440   22.3720 C.3   302  GSH302      0.0402
      7  CG1       38.3560   25.3510   21.7640 C.3   302  GSH302      0.0889
      8  CD1       39.2230   24.6300   22.8020 C.2   302  GSH302      0.2418
      9  OE1       39.2470   25.0020   23.9760 O.2   302  GSH302     -0.2733
     10  N2        40.0230   23.4870   22.3730 N.am  302  GSH302     -0.1968
     11  CA2       40.8540   22.8030   23.3340 C.3   302  GSH302      0.1843
     12  C2        42.2060   23.4660   23.3160 C.2   302  GSH302      0.2627
     13  O2        42.6340   23.9880   22.2950 O.2   302  GSH302     -0.2714
     14  CB2       41.0050   21.3580   22.9810 C.3   302  GSH302      0.0997
     15  SG2       39.4370   20.5250   23.1600 S.3   302  GSH302     -0.0797
     16  N3        43.0310   23.5190   24.5160 N.am  302  GSH302     -0.1917
     17  CA3       44.3360   24.1650   24.4370 C.3   302  GSH302      0.2285
     18  C3        44.6310   24.9640   25.6820 C.2   302  GSH302      0.3865
     19  O31       43.6950   25.2930   26.4660 O.co2 302  GSH302     -0.2437
     20  O32       45.8240   25.3270   25.9350 O.co2 302  GSH302     -0.2437
@<TRIPOS>BOND
     1     4     3   ar
     2     3     5   ar
     3     3     2    1
     4     2     1    1
     5     2     6    1
     6     7     6    1
     7     7     8    1
     8    13    12    2
     9    10     8   am
    10    10    11    1
    11     8     9    2
    12    14    15    1
    13    14    11    1
    14    12    11    1
    15    12    16   am
    16    17    16    1
    17    17    18    1
    18    18    20   ar
    19    18    19   ar
