@<TRIPOS>MOLECULE
4gf4_C8E_A_1.pdb
 18 17 0 0 0
SMALL
GASTEIGER

@<TRIPOS>ATOM
      1  C1        11.1740   43.5030  101.9180 C.3   501  C8E501      0.0000
      2  C2        11.8680   42.6130  102.9640 C.3   501  C8E501      0.0000
      3  C3        11.0110   41.4220  103.4400 C.3   501  C8E501      0.0000
      4  C4        11.7820   40.2980  104.1460 C.3   501  C8E501      0.0000
      5  C5        11.5360   38.9540  103.4600 C.3   501  C8E501      0.0001
      6  C6        10.5110   38.0470  104.1480 C.3   501  C8E501      0.0026
      7  C7        10.1660   36.8840  103.2280 C.3   501  C8E501      0.0321
      8  C8         9.6240   35.6600  103.9480 C.3   501  C8E501      0.1423
      9  O9         9.6150   34.6110  103.0000 O.3   501  C8E501     -0.3511
     10  C10       10.2980   33.4460  103.4270 C.3   501  C8E501      0.1741
     11  C11       11.4790   33.0870  102.5040 C.3   501  C8E501      0.1742
     12  O12       12.0280   31.8080  102.8060 O.3   501  C8E501     -0.3484
     13  C13       13.2030   31.5240  102.0740 C.3   501  C8E501      0.1742
     14  C14       12.9690   30.4510  101.0090 C.3   501  C8E501      0.1742
     15  O15       14.1670   29.7230  100.8080 O.3   501  C8E501     -0.3483
     16  C16       14.6930   29.7740   99.4890 C.3   501  C8E501      0.1777
     17  C17       15.1210   28.3710   99.0490 C.3   501  C8E501      0.2140
     18  O18       15.5910   28.2940   97.7190 O.3   501  C8E501     -0.2176
@<TRIPOS>BOND
     1    18    17    1
     2    17    16    1
     3    16    15    1
     4    15    14    1
     5    14    13    1
     6     1     2    1
     7    13    12    1
     8    11    12    1
     9    11    10    1
    10     2     3    1
    11     9    10    1
    12     9     8    1
    13     7     8    1
    14     7     6    1
    15     3     4    1
    16     5     4    1
    17     5     6    1
