@<TRIPOS>MOLECULE
4gf5_SAH_A_1.pdb
 26 28 0 0 0
SMALL
GASTEIGER

@<TRIPOS>ATOM
      1  N         25.8000   44.0440  -37.1110 N.3   301  SAH301     -0.1208
      2  CA        25.5630   45.1250  -38.0650 C.3   301  SAH301      0.1952
      3  CB        26.5510   45.0710  -39.2430 C.3   301  SAH301      0.0422
      4  CG        28.0290   45.0310  -38.8340 C.3   301  SAH301      0.0597
      5  SD        29.1490   45.5170  -40.1830 S.3   301  SAH301     -0.1375
      6  C         24.0950   45.1840  -38.5100 C.2   301  SAH301      0.3819
      7  O         23.7130   45.9810  -39.3870 O.co2 301  SAH301     -0.2441
      8  OXT       23.2530   44.4390  -37.9960 O.co2 301  SAH301     -0.2441
      9  C5'       30.6060   44.8660  -39.3580 C.3   301  SAH301      0.0899
     10  C4'       31.1440   45.8450  -38.3350 C.3   301  SAH301      0.1630
     11  O4'       32.1980   45.2160  -37.6240 O.3   301  SAH301     -0.3153
     12  C3'       31.7050   47.1150  -38.9820 C.3   301  SAH301      0.2168
     13  O3'       31.0070   48.2370  -38.4900 O.3   301  SAH301     -0.2175
     14  C2'       33.1560   47.1530  -38.5350 C.3   301  SAH301      0.2569
     15  O2'       33.5920   48.4430  -38.1690 O.3   301  SAH301     -0.2130
     16  C1'       33.1650   46.2030  -37.3410 C.3   301  SAH301      0.3185
     17  N9        34.5110   45.6510  -37.1040 N.pl3 301  SAH301     -0.1439
     18  C8        35.2600   44.8250  -37.9100 C.3   301  SAH301      0.3377
     19  N7        36.4410   44.6030  -37.2780 N.2   301  SAH301     -0.2095
     20  C5        36.4480   45.2740  -36.0990 C.2   301  SAH301      0.2526
     21  C6        37.3860   45.4040  -35.0790 C.2   301  SAH301      0.4393
     22  N6        38.5640   44.7890  -35.1620 N.pl3 301  SAH301      0.2180
     23  N1        37.0810   46.1830  -33.9670 N.2   301  SAH301      0.0021
     24  C2        35.8650   46.8280  -33.8810 C.3   301  SAH301      0.5254
     25  N3        34.9390   46.7060  -34.9020 N.2   301  SAH301     -0.0055
     26  C4        35.2340   45.9380  -35.9820 C.2   301  SAH301      0.3518
@<TRIPOS>BOND
     1     5     9    1
     2     5     4    1
     3     7     6   ar
     4     9    10    1
     5     3     4    1
     6     3     2    1
     7    12    14    1
     8    12    13    1
     9    12    10    1
    10    14    15    1
    11    14    16    1
    12     6     2    1
    13     6     8   ar
    14    10    11    1
    15     2     1    1
    16    18    19    1
    17    18    17    1
    18    11    16    1
    19    16    17    1
    20    19    20    2
    21    17    26    1
    22    20    26    1
    23    20    21    1
    24    26    25    2
    25    22    21    1
    26    21    23    2
    27    25    24    1
    28    23    24    1
