@<TRIPOS>MOLECULE
4gf9_LP5_C_1.pdb
 48 48 0 0 0
SMALL
GASTEIGER

@<TRIPOS>ATOM
      1  O48      -23.2150  -31.6240  -21.6410 O.3   501  LP5501     -0.1145
      2  P45      -23.2710  -30.2410  -21.0200 P.3   501  LP5501      0.5345
      3  O46      -22.4280  -30.2100  -19.7750 O.3   501  LP5501     -0.1145
      4  O47      -22.7770  -29.1530  -21.9490 O.2   501  LP5501     -0.2223
      5  O1       -24.7110  -29.7280  -20.4220 O.3   501  LP5501     -0.2424
      6  C1       -25.8860  -29.7820  -21.2960 C.3   501  LP5501      0.2686
      7  C2       -27.2040  -28.9560  -20.9910 C.3   501  LP5501      0.1942
      8  N2       -27.5570  -28.7020  -19.5620 N.am  501  LP5501     -0.1981
      9  C7       -27.1990  -29.3120  -18.4110 C.2   501  LP5501      0.2442
     10  C8       -27.7010  -28.7700  -17.0890 C.3   501  LP5501      0.1196
     11  C16      -29.1220  -29.1230  -16.6840 C.3   501  LP5501      0.1611
     12  O44      -30.0320  -28.2820  -17.4150 O.3   501  LP5501     -0.2226
     13  C17      -29.1960  -28.7600  -15.2090 C.3   501  LP5501      0.0334
     14  C18      -30.5020  -29.1440  -14.5200 C.3   501  LP5501      0.0026
     15  C19      -31.4350  -27.9340  -14.2830 C.3   501  LP5501      0.0001
     16  C20      -30.6790  -26.6000  -14.3370 C.3   501  LP5501      0.0000
     17  C21      -31.5970  -25.3800  -14.2780 C.3   501  LP5501      0.0000
     18  C22      -30.7740  -24.1430  -13.9400 C.3   501  LP5501      0.0000
     19  C23      -30.6150  -23.2760  -15.1790 C.3   501  LP5501      0.0000
     20  C24      -29.2450  -22.6170  -15.2950 C.3   501  LP5501      0.0000
     21  C25      -28.7760  -22.6290  -16.7590 C.3   501  LP5501      0.0000
     22  C26      -27.2110  -22.8190  -16.8570 C.3   501  LP5501      0.0000
     23  C27      -26.7090  -21.7160  -17.8740 C.3   501  LP5501      0.0000
     24  O7       -26.5920  -30.3600  -18.3570 O.2   501  LP5501     -0.2733
     25  C3       -28.4230  -29.4680  -21.8140 C.3   501  LP5501      0.2262
     26  C4       -27.7640  -30.0670  -23.0920 C.3   501  LP5501      0.2231
     27  C5       -27.1950  -31.4110  -22.6680 C.3   501  LP5501      0.1845
     28  O5       -26.1110  -31.1470  -21.7660 O.3   501  LP5501     -0.3258
     29  C6       -26.7180  -32.2640  -23.8270 C.3   501  LP5501      0.2142
     30  O6       -26.9860  -33.6230  -23.4770 O.3   501  LP5501     -0.2176
     31  O4       -28.5950  -30.2140  -24.2630 O.3   501  LP5501     -0.2165
     32  O3       -29.4990  -28.4670  -21.9180 O.3   501  LP5501     -0.4475
     33  C28      -29.9190  -27.7770  -23.1680 C.2   501  LP5501      0.3196
     34  O42      -29.8810  -26.5470  -23.2500 O.2   501  LP5501     -0.2500
     35  C29      -30.4160  -28.5740  -24.3570 C.3   501  LP5501      0.1423
     36  C30      -31.9140  -28.4960  -24.6110 C.3   501  LP5501      0.1631
     37  O43      -32.6410  -28.4990  -23.3810 O.3   501  LP5501     -0.2225
     38  C31      -32.3250  -29.7250  -25.4200 C.3   501  LP5501      0.0335
     39  C32      -33.8360  -29.7340  -25.6720 C.3   501  LP5501      0.0026
     40  C33      -34.2270  -28.7040  -26.7330 C.3   501  LP5501      0.0001
     41  C34      -34.1870  -29.2040  -28.1850 C.3   501  LP5501      0.0000
     42  C35      -35.5370  -29.1310  -28.9000 C.3   501  LP5501      0.0000
     43  C36      -36.6670  -29.9200  -28.2130 C.3   501  LP5501      0.0000
     44  C37      -37.5380  -29.0420  -27.2810 C.3   501  LP5501      0.0000
     45  C38      -38.9290  -28.6820  -27.8390 C.3   501  LP5501      0.0000
     46  C39      -38.9470  -27.3060  -28.5180 C.3   501  LP5501      0.0000
     47  C40      -39.2230  -27.3990  -30.0270 C.3   501  LP5501      0.0000
     48  C41      -37.9530  -27.1580  -30.8480 C.3   501  LP5501      0.0000
@<TRIPOS>BOND
     1    48    47    1
     2    47    46    1
     3    42    43    1
     4    42    41    1
     5    46    45    1
     6    43    44    1
     7    41    40    1
     8    45    44    1
     9    40    39    1
    10    39    38    1
    11    38    36    1
    12    36    35    1
    13    36    37    1
    14    35    33    1
    15    31    26    1
    16    29    30    1
    17    29    27    1
    18    34    33    2
    19    33    32    1
    20    26    27    1
    21    26    25    1
    22    27    28    1
    23     4     2    2
    24    32    25    1
    25    25     7    1
    26    28     6    1
    27     1     2    1
    28     6     7    1
    29     6     5    1
    30     2     5    1
    31     2     3    1
    32     7     8    1
    33     8     9   am
    34     9    24    2
    35     9    10    1
    36    23    22    1
    37    12    11    1
    38    10    11    1
    39    22    21    1
    40    21    20    1
    41    11    13    1
    42    20    19    1
    43    13    14    1
    44    19    18    1
    45    14    15    1
    46    16    15    1
    47    16    17    1
    48    17    18    1
