@<TRIPOS>MOLECULE
4gfd_0YB_A_1.pdb
 38 41 0 0 0
SMALL
GASTEIGER

@<TRIPOS>ATOM
      1  C31       16.0910   -1.8730    3.3050 C.ar  301  0YB301      0.0036
      2  C24       14.3000    1.6030    7.9400 C.ar  301  0YB301      0.0094
      3  C23       13.3380    2.2990    7.2500 C.ar  301  0YB301     -0.0026
      4  C30       15.9730   -0.9470    4.3290 C.ar  301  0YB301      0.0375
      5  C32       17.0500   -1.7000    2.3290 C.ar  301  0YB301      0.0069
      6  C27       14.6380    2.1310    5.2580 C.ar  301  0YB301      0.0347
      7  C34       17.8000    0.3210    3.3910 C.ar  301  0YB301      0.0442
      8  C25       15.4420    1.1840    7.2990 C.ar  301  0YB301      0.1142
      9  C22       13.4780    2.5470    5.8950 C.ar  301  0YB301     -0.0047
     10  C29       16.8230    0.1470    4.3470 C.ar  301  0YB301      0.1458
     11  C26       15.6180    1.4550    5.9490 C.ar  301  0YB301      0.1513
     12  C33       17.8980   -0.6110    2.3770 C.ar  301  0YB301      0.0376
     13  C3        11.6840   -1.1170    1.8630 C.2   301  0YB301      0.0853
     14  C2        12.1180   -1.8400    0.8150 C.2   301  0YB301      0.0890
     15  C8        12.0020   -1.2640   -0.5160 C.1   301  0YB301      0.2134
     16  C5        11.0470    0.7650    0.4950 C.1   301  0YB301      0.2825
     17  C36       16.4420    0.4890    8.1250 C.2   301  0YB301      0.3907
     18  C12        9.3770    0.9130    5.0670 C.3   301  0YB301      0.0191
     19  C11        9.7630    0.0800    3.8430 C.3   301  0YB301      0.0238
     20  C13       10.5990    1.5900    5.6720 C.3   301  0YB301      0.0724
     21  C15       11.7570    1.5710    3.5840 C.3   301  0YB301      0.0935
     22  C10       10.6440    0.8730    2.8640 C.3   301  0YB301      0.1058
     23  C1        12.7310   -3.1930    0.9480 C.3   301  0YB301      0.0462
     24  C19       13.6540    6.5070    3.4120 C.3   301  0YB301      0.0001
     25  C20       12.3300    6.4060    5.4450 C.3   301  0YB301      0.0001
     26  C21       14.6600    5.6020    5.4140 C.3   301  0YB301      0.0001
     27  C17       12.8870    4.2880    4.1510 C.3   301  0YB301      0.0205
     28  C16       12.3620    3.2730    5.1850 C.3   301  0YB301      0.0802
     29  C18       13.3700    5.6630    4.6360 C.3   301  0YB301      0.0016
     30  N7        11.4390   -0.0010   -0.5720 N.2   301  0YB301     -0.2456
     31  N4        11.1220    0.1320    1.7160 N.am  301  0YB301     -0.2040
     32  N14       11.2630    2.4320    4.6600 N.3   301  0YB301     -0.2689
     33  O9        12.3530   -1.8310   -1.5490 O.2   301  0YB301     -0.2088
     34  O6        10.6530    1.9180    0.3480 O.2   301  0YB301     -0.1919
     35  O37       16.9000    0.9390    9.1620 O.co2 301  0YB301     -0.2404
     36  O38       16.7120   -0.7330    7.6180 O.co2 301  0YB301     -0.2404
     37  O28       16.8000    1.1040    5.3410 O.3   301  0YB301     -0.4533
     38 BR3        19.2090   -0.3020    1.0560 Br    301  0YB301     -0.0489
@<TRIPOS>BOND
     1    33    15    2
     2    30    15    2
     3    30    16    2
     4    15    14    1
     5    34    16    2
     6    16    31   am
     7    14    23    1
     8    14    13    2
     9    38    12    1
    10    31    13    1
    11    31    22    1
    12     5    12   ar
    13     5     1   ar
    14    12     7   ar
    15    22    21    1
    16    22    19    1
    17     1     4   ar
    18     7    10   ar
    19    24    29    1
    20    21    32    1
    21    19    18    1
    22    27    29    1
    23    27    28    1
    24     4    10   ar
    25    10    37    1
    26    29    26    1
    27    29    25    1
    28    32    28    1
    29    32    20    1
    30    18    20    1
    31    28     9    1
    32     6     9   ar
    33     6    11   ar
    34    37    11    1
    35     9     3   ar
    36    11     8   ar
    37     3     2   ar
    38     8     2   ar
    39     8    17    1
    40    36    17   ar
    41    17    35   ar
