@<TRIPOS>MOLECULE
4gfh_ANP_A_1.pdb
 31 33 0 0 0
SMALL
GASTEIGER

@<TRIPOS>ATOM
      1  PG        12.6630   15.4970   69.6540 P.3   1202  ANP1202     0.4884
      2  O1G       12.9970   16.8090   70.2810 O.3   1202  ANP1202    -0.1240
      3  O2G       11.1930   15.2460   69.7850 O.3   1202  ANP1202    -0.1240
      4  O3G       13.0520   15.5410   68.2100 O.2   1202  ANP1202    -0.2331
      5  PB        12.9580   14.0030   71.9300 P.3   1202  ANP1202     0.4669
      6  O1B       11.5180   14.3740   72.0880 O.2   1202  ANP1202    -0.2351
      7  O2B       13.1480   12.5540   72.2650 O.3   1202  ANP1202    -0.1253
      8  N3B       13.5230   14.2890   70.3950 N.3   1202  ANP1202    -0.0163
      9  PA        13.2950   15.9890   73.7900 P.3   1202  ANP1202     0.2220
     10  O1A       11.9650   16.5040   73.3220 O.2   1202  ANP1202    -0.5170
     11  O2A       14.2720   17.1200   73.9090 O.3   1202  ANP1202    -0.4370
     12  O3A       13.8790   14.8650   72.8630 O.3   1202  ANP1202    -0.2360
     13  O5'       13.1490   15.2410   75.1720 O.3   1202  ANP1202    -0.3111
     14  C5'       14.3040   14.6970   75.7510 C.3   1202  ANP1202     0.1813
     15  C4'       14.0070   13.3710   76.4020 C.3   1202  ANP1202     0.1821
     16  O4'       13.2430   13.5150   77.5570 O.3   1202  ANP1202    -0.3135
     17  C3'       13.2350   12.4620   75.5090 C.3   1202  ANP1202     0.2184
     18  O3'       13.9900   11.3800   75.1390 O.3   1202  ANP1202    -0.2174
     19  C2'       12.0610   12.0120   76.2910 C.3   1202  ANP1202     0.2570
     20  O2'       12.0280   10.6360   76.3340 O.3   1202  ANP1202    -0.2130
     21  C1'       12.1900   12.6120   77.6470 C.3   1202  ANP1202     0.3186
     22  N9        10.9560   13.2640   78.0610 N.pl3 1202  ANP1202    -0.1439
     23  C8        10.6340   14.5840   77.8170 C.3   1202  ANP1202     0.3377
     24  N7         9.4120   14.8820   78.3290 N.2   1202  ANP1202    -0.2095
     25  C5         8.9190   13.7050   78.9300 C.2   1202  ANP1202     0.2526
     26  C6         7.7260   13.3590   79.6240 C.2   1202  ANP1202     0.4393
     27  N6         6.6910   14.3260   79.8410 N.pl3 1202  ANP1202     0.2180
     28  N1         7.6030   12.0890   80.0710 N.2   1202  ANP1202     0.0021
     29  C2         8.5500   11.1890   79.8760 C.3   1202  ANP1202     0.5254
     30  N3         9.6750   11.4520   79.2410 N.2   1202  ANP1202    -0.0055
     31  C4         9.9080   12.6720   78.7540 C.2   1202  ANP1202     0.3518
@<TRIPOS>BOND
     1     4     1    2
     2     1     3    1
     3     1     2    1
     4     1     8    1
     5     8     5    1
     6     5     6    2
     7     5     7    1
     8     5    12    1
     9    12     9    1
    10    10     9    2
    11     9    11    1
    12     9    13    1
    13    18    17    1
    14    13    14    1
    15    17    19    1
    16    17    15    1
    17    14    15    1
    18    19    20    1
    19    19    21    1
    20    15    16    1
    21    16    21    1
    22    21    22    1
    23    23    22    1
    24    23    24    1
    25    22    31    1
    26    24    25    2
    27    31    25    1
    28    31    30    2
    29    25    26    1
    30    30    29    1
    31    26    27    1
    32    26    28    2
    33    29    28    1
