@<TRIPOS>MOLECULE
4gfi_GLU_A_1.pdb
 10 9 0 0 0
SMALL
GASTEIGER

@<TRIPOS>ATOM
      1  N        -13.0300    9.9190   -6.0100 N.3   403  GLU403     -0.1208
      2  CA       -13.3110   11.1030   -6.8320 C.3   403  GLU403      0.1949
      3  C        -13.5800   10.8080   -8.3210 C.2   403  GLU403      0.3819
      4  O        -13.2650   11.5950   -9.2280 O.co2 403  GLU403     -0.2441
      5  CB       -12.2300   12.1740   -6.6250 C.3   403  GLU403      0.0424
      6  CG       -12.2490   12.7400   -5.2020 C.3   403  GLU403      0.1161
      7  CD       -11.4220   13.9990   -5.0440 C.2   403  GLU403      0.3649
      8  OE1      -11.4750   14.8630   -5.9430 O.co2 403  GLU403     -0.2457
      9  OE2      -10.7160   14.1250   -4.0160 O.co2 403  GLU403     -0.2457
     10  OXT      -14.1730    9.7720   -8.6410 O.co2 403  GLU403     -0.2441
@<TRIPOS>BOND
     1     4     3   ar
     2    10     3   ar
     3     3     2    1
     4     2     5    1
     5     2     1    1
     6     5     6    1
     7     8     7   ar
     8     6     7    1
     9     7     9   ar
