@<TRIPOS>MOLECULE
4gfn_SUY_A_1.pdb
 26 30 0 0 0
SMALL
GASTEIGER

@<TRIPOS>ATOM
      1 CL1       -10.3160   -1.9630  -11.5540 Cl    301  SUY301     -0.0790
      2  C9       -11.4590   -3.1370  -12.3800 C.2   301  SUY301      0.0990
      3  C8       -12.8740   -3.2510  -12.0190 C.2   301  SUY301      0.1327
      4  C10      -13.6390   -2.4160  -11.0160 C.3   301  SUY301      0.0609
      5  C11      -14.4880   -3.3330  -10.1430 C.3   301  SUY301      0.0079
      6  N7       -13.3590   -4.2660  -12.7830 N.2   301  SUY301     -0.3427
      7  C6       -12.4000   -4.8090  -13.5740 C.1   301  SUY301      0.1543
      8  N1       -12.4710   -5.8220  -14.4570 N.2   301  SUY301     -0.2684
      9  C5       -11.0880   -4.1340  -13.3990 C.2   301  SUY301      0.1438
     10  C4        -9.9160   -4.6360  -14.1920 C.2   301  SUY301      0.2086
     11  N13       -8.6090   -4.1130  -14.2400 N.pl3 301  SUY301     -0.2821
     12  C17       -7.5540   -4.7770  -15.0060 C.3   301  SUY301      0.0947
     13  C16       -6.6460   -3.6090  -15.4250 C.3   301  SUY301      0.0406
     14  C18       -7.3930   -2.4700  -16.1140 C.3   301  SUY301      0.0952
     15  N19       -6.4450   -1.5820  -16.7750 N.3   301  SUY301     -0.1328
     16  C15       -7.0930   -2.3880  -14.6220 C.3   301  SUY301      0.0406
     17  C14       -8.2810   -2.7830  -13.7440 C.3   301  SUY301      0.0947
     18  N3       -10.1750   -5.6650  -15.0250 N.2   301  SUY301     -0.3180
     19  C2       -11.3970   -6.2410  -15.1360 C.1   301  SUY301      0.1842
     20  S20      -11.6320   -7.5660  -16.1430 S.3   301  SUY301      0.0128
     21  C21      -10.3060   -7.8690  -17.1640 C.ar  301  SUY301      0.0791
     22  C26       -9.8750   -9.1760  -17.3620 C.ar  301  SUY301      0.1094
     23  N25       -8.8240   -9.4080  -18.1730 N.ar  301  SUY301     -0.2219
     24  C24       -8.1990   -8.3900  -18.8010 C.ar  301  SUY301      0.1990
     25  N23       -8.6020   -7.1190  -18.6330 N.ar  301  SUY301     -0.2219
     26  C22       -9.6420   -6.8330  -17.8300 C.ar  301  SUY301      0.1094
@<TRIPOS>BOND
     1    24    25   ar
     2    24    23   ar
     3    25    26   ar
     4    23    22   ar
     5    26    21   ar
     6    22    21   ar
     7    21    20    1
     8    15    14    1
     9    20    19    1
    10    14    13    1
    11    14    16    1
    12    13    12    1
    13    13    16    1
    14    19    18    2
    15    19     8    2
    16    18    10    2
    17    12    11    1
    18    16    17    1
    19     8     7    2
    20    11    10    1
    21    11    17    1
    22    10     9    1
    23     7     9    1
    24     7     6    2
    25     9     2    2
    26     6     3    2
    27     2     3    1
    28     2     1    1
    29     3     4    1
    30     4     5    1
