@<TRIPOS>MOLECULE
4gfy_III_B_1.pdb
 30 29 0 0 0
SMALL
GASTEIGER

@<TRIPOS>ATOM
      1  N          4.2780   14.3860   -4.1530 N.3     1  VAL1       -0.1231
      2  CA         3.5780   15.2880   -5.1230 C.3     1  VAL1        0.1692
      3  C          3.7100   16.7840   -4.7680 C.2     1  VAL1        0.2592
      4  O          3.2060   17.1950   -3.7240 O.2     1  VAL1       -0.2718
      5  CB         2.0470   14.9380   -5.2210 C.3     1  VAL1        0.0266
      6  CG1        1.8370   13.4560   -5.6160 C.3     1  VAL1        0.0020
      7  CG2        1.2780   15.3230   -3.9120 C.3     1  VAL1        0.0020
      8  N          4.3410   17.5810   -5.6190 N.am    2  ILE2       -0.1966
      9  CA         4.3500   19.0080   -5.3730 C.3     2  ILE2        0.1727
     10  C          5.0170   19.9700   -6.4040 C.2     2  ILE2        0.2616
     11  O          5.8160   19.5800   -7.2240 O.2     2  ILE2       -0.2715
     12  CB         4.8130   19.2230   -3.9310 C.3     2  ILE2        0.0290
     13  CG1        5.3740   20.6140   -3.7510 C.3     2  ILE2        0.0022
     14  CG2        5.7480   18.1030   -3.5500 C.3     2  ILE2        0.0023
     15  CD1        4.4450   21.5140   -3.0030 C.3     2  ILE2        0.0001
     16  N          4.5680   21.2110   -6.4140 N.am    3  ALA3       -0.1963
     17  CA         5.2750   22.3780   -6.9720 C.3     3  ALA3        0.1728
     18  C          5.7420   22.2710   -8.4330 C.2     3  ALA3        0.2617
     19  O          5.4940   21.2800   -9.0770 O.2     3  ALA3       -0.2715
     20  CB         6.3570   22.8950   -6.0510 C.3     3  ALA3        0.0334
     21  N          6.4820   23.2740   -8.8930 N.am    4  LYS4       -0.1942
     22  CA         7.1180   23.3180  -10.2130 C.3     4  LYS4        0.1978
     23  C          7.9090   22.0560  -10.6220 C.2     4  LYS4        0.3842
     24  O          7.9300   21.6840  -11.8070 O.co2   4  LYS4       -0.2437
     25  CB         8.0280   24.5510  -10.2660 C.3     4  LYS4        0.0333
     26  CG         8.6570   24.8630   -8.9090 C.3     4  LYS4        0.0039
     27  CD         8.9580   26.3530   -8.7460 C.3     4  LYS4        0.0206
     28  CE         8.7220   26.8280   -7.3130 C.3     4  LYS4        0.1093
     29  NZ         9.4700   26.0470   -6.2900 N.3     4  LYS4       -0.1314
     30  OXT        8.5530   21.3900   -9.7970 O.co2   4  LYS4       -0.2437
@<TRIPOS>BOND
     1    24    23   ar
     2    23    22    1
     3    23    30   ar
     4    25    22    1
     5    25    26    1
     6    22    21    1
     7    19    18    2
     8    26    27    1
     9    21    18   am
    10    27    28    1
    11    18    17    1
    12    28    29    1
    13    11    10    2
    14    17    16    1
    15    17    20    1
    16    16    10   am
    17    10     9    1
    18     8     9    1
    19     8     3   am
    20     6     5    1
    21     9    12    1
    22     5     2    1
    23     5     7    1
    24     2     3    1
    25     2     1    1
    26     3     4    2
    27    12    13    1
    28    12    14    1
    29    13    15    1
