@<TRIPOS>MOLECULE
4gg5_0J3_A_1.pdb
 32 35 0 0 0
SMALL
GASTEIGER

@<TRIPOS>ATOM
      1  CAQ       -4.7250   17.3410   34.7260 C.3   1401  0J31401     0.1082
      2  CAO       -5.9100   18.1030   35.2380 C.3   1401  0J31401     0.0938
      3  NBD       -5.6570   18.7360   36.5620 N.3   1401  0J31401    -0.2686
      4  CAA       -6.2770   18.2720   37.7510 C.3   1401  0J31401     0.0897
      5  CAP       -4.3840   19.4930   36.6070 C.3   1401  0J31401     0.0938
      6  CAR       -3.5470   19.3240   35.3850 C.3   1401  0J31401     0.1082
      7  NBE       -3.5550   18.0170   34.9550 N.pl3 1401  0J31401    -0.3034
      8  CAX       -2.6120   17.6870   33.8640 C.ar  1401  0J31401     0.0674
      9  CAM       -2.6940   16.5240   33.1180 C.ar  1401  0J31401     0.0189
     10  CBB       -1.7440   16.3100   32.0800 C.ar  1401  0J31401     0.0338
     11  CAJ       -1.5800   18.6380   33.5670 C.ar  1401  0J31401     0.1133
     12  NAT       -0.7200   18.4130   32.5960 N.ar  1401  0J31401    -0.2425
     13  CBA       -0.7690   17.2890   31.8490 C.ar  1401  0J31401     0.0826
     14  CAN        0.1900   17.1190   30.8230 C.ar  1401  0J31401     0.0230
     15  CAY        0.1740   15.9760   30.0300 C.ar  1401  0J31401     0.0742
     16  CBF        1.1990   15.8200   28.9050 C.3   1401  0J31401     0.4187
     17  FAE        0.5030   15.8650   27.7440 F     1401  0J31401    -0.1659
     18  FAF        2.0420   16.8300   28.8940 F     1401  0J31401    -0.1659
     19  FAD        1.8460   14.6800   28.9750 F     1401  0J31401    -0.1659
     20  CAL       -0.8270   14.9590   30.2590 C.ar  1401  0J31401     0.0200
     21  CAZ       -1.7610   15.1220   31.2510 C.ar  1401  0J31401     0.0671
     22  NAU       -2.7580   14.0970   31.4800 N.pl3 1401  0J31401    -0.2328
     23  CAS       -2.8570   12.9630   30.5840 C.3   1401  0J31401     0.1386
     24  CAV       -3.6070   13.2920   29.2920 C.ar  1401  0J31401     0.0010
     25  CAK       -2.8930   13.3800   28.0660 C.ar  1401  0J31401     0.0215
     26  CAH       -4.9910   13.5290   29.3350 C.ar  1401  0J31401    -0.0025
     27  CAG       -5.6890   13.8460   28.1600 C.ar  1401  0J31401     0.0014
     28  CAI       -4.9760   13.9240   26.9300 C.ar  1401  0J31401     0.0241
     29  CAW       -3.5860   13.6900   26.9020 C.ar  1401  0J31401     0.1426
     30  NBC       -2.8980   13.7710   25.6550 N.pl3 1401  0J31401     0.0577
     31  OAC       -3.5250   14.3000   24.6510 O.2   1401  0J31401    -0.1261
     32  OAB       -1.6640   13.3320   25.5140 O.2   1401  0J31401    -0.1261
@<TRIPOS>BOND
     1    31    30    2
     2    32    30    2
     3    30    29    1
     4    29    28   ar
     5    29    25   ar
     6    28    27   ar
     7    17    16    1
     8    25    24   ar
     9    27    26   ar
    10    18    16    1
    11    16    19    1
    12    16    15    1
    13    24    26   ar
    14    24    23    1
    15    15    20   ar
    16    15    14   ar
    17    20    21   ar
    18    23    22    1
    19    14    13   ar
    20    21    22    1
    21    21    10   ar
    22    13    10   ar
    23    13    12   ar
    24    10     9   ar
    25    12    11   ar
    26     9     8   ar
    27    11     8   ar
    28     8     7    1
    29     1     7    1
    30     1     2    1
    31     7     6    1
    32     2     3    1
    33     6     5    1
    34     3     5    1
    35     3     4    1
