@<TRIPOS>MOLECULE
4gg7_0J8_A_1.pdb
 36 40 0 0 0
SMALL
GASTEIGER

@<TRIPOS>ATOM
      1  C4        -1.1340  -17.5870   14.6260 C.1   1401  0J81401     0.1034
      2  C5        -2.1830  -16.6670   14.4580 C.2   1401  0J81401     0.1211
      3  C6        -2.1830  -15.4700   15.2310 C.2   1401  0J81401     0.2223
      4  N1        -1.1740  -15.2470   16.1050 N.2   1401  0J81401    -0.3189
      5  N3        -0.1550  -17.3070   15.5320 N.2   1401  0J81401    -0.2828
      6  CAP       -7.6130  -21.1320   10.6350 C.3   1401  0J81401     0.0432
      7  CAN       -8.3850  -22.3020    9.9930 C.3   1401  0J81401     0.0907
      8  NAW       -8.3440  -22.2710    8.5280 N.3   1401  0J81401    -0.2179
      9  CAO       -7.4650  -21.2990    7.8570 C.3   1401  0J81401     0.0907
     10  CAQ       -6.1630  -20.9220    8.5480 C.3   1401  0J81401     0.0432
     11  CBG       -6.2200  -21.0080   10.0590 C.3   1401  0J81401     0.1081
     12  NBI       -5.5180  -19.8360   10.6480 N.ar  1401  0J81401    -0.2512
     13  CAM       -4.5130  -19.9020   11.5430 C.ar  1401  0J81401     0.0966
     14  NAT       -5.8070  -18.5030   10.3730 N.ar  1401  0J81401    -0.1677
     15  CAJ       -4.9580  -17.7270   11.1050 C.ar  1401  0J81401     0.1217
     16  CBA       -4.1340  -18.5970   11.8290 C.ar  1401  0J81401     0.0412
     17  CAZ       -3.0670  -18.2130   12.8070 C.2   1401  0J81401     0.0238
     18  CAL       -3.1800  -16.9870   13.5200 C.2   1401  0J81401     0.0167
     19  CAI       -2.0040  -19.0810   13.0340 C.2   1401  0J81401     0.1106
     20  NAS       -1.0510  -18.7590   13.9370 N.2   1401  0J81401    -0.1815
     21  C2        -0.2070  -16.1660   16.2400 C.1   1401  0J81401     0.2221
     22  CBJ        0.9130  -15.8720   17.2330 C.3   1401  0J81401     0.5007
     23  FAD        1.6070  -16.9680   17.5010 F     1401  0J81401    -0.1558
     24  FAE        1.6530  -14.9320   16.6790 F     1401  0J81401    -0.1558
     25  FAC        0.4310  -15.4340   18.3820 F     1401  0J81401    -0.1558
     26  NAX       -3.2080  -14.4530   15.1020 N.pl3 1401  0J81401    -0.2035
     27  CAR       -2.9850  -13.1760   15.7540 C.3   1401  0J81401     0.1413
     28  CAY       -3.6420  -13.3290   17.1130 C.ar  1401  0J81401     0.0011
     29  CAK       -2.8400  -13.4220   18.2530 C.ar  1401  0J81401     0.0215
     30  CAG       -5.0570  -13.4400   17.2100 C.ar  1401  0J81401    -0.0025
     31  CAF       -5.6600  -13.6150   18.4650 C.ar  1401  0J81401     0.0014
     32  CAH       -4.8650  -13.7030   19.6110 C.ar  1401  0J81401     0.0241
     33  CBB       -3.4490  -13.6060   19.5000 C.ar  1401  0J81401     0.1426
     34  NBH       -2.6680  -13.7020   20.6950 N.pl3 1401  0J81401     0.0577
     35  OAB       -3.2250  -14.2780   21.7150 O.2   1401  0J81401    -0.1261
     36  OAA       -1.4380  -13.2260   20.7610 O.2   1401  0J81401    -0.1261
@<TRIPOS>BOND
     1     9     8    1
     2     9    10    1
     3     8     7    1
     4    10    11    1
     5     7     6    1
     6    11     6    1
     7    11    12    1
     8    14    12   ar
     9    14    15   ar
    10    12    13   ar
    11    15    16   ar
    12    13    16   ar
    13    16    17    1
    14    17    19    2
    15    17    18    1
    16    19    20    1
    17    18     2    2
    18    20     1    2
    19     2     1    1
    20     2     3    1
    21     1     5    2
    22    26     3    1
    23    26    27    1
    24     3     4    2
    25     5    21    2
    26    27    28    1
    27     4    21    2
    28    21    22    1
    29    24    22    1
    30    28    30   ar
    31    28    29   ar
    32    30    31   ar
    33    22    23    1
    34    22    25    1
    35    29    33   ar
    36    31    32   ar
    37    33    32   ar
    38    33    34    1
    39    34    36    2
    40    34    35    2
