@<TRIPOS>MOLECULE
4ggh_EPE_A_1.pdb
 15 15 0 0 0
SMALL
GASTEIGER

@<TRIPOS>ATOM
      1  N1       -24.7840  -15.2050  -50.0810 N.3   403  EPE403     -0.2689
      2  C2       -26.0850  -15.8820  -50.1860 C.3   403  EPE403      0.0897
      3  C3       -25.8950  -17.1860  -50.9460 C.3   403  EPE403      0.0897
      4  N4       -24.6520  -17.8310  -50.5760 N.3   403  EPE403     -0.2681
      5  C5       -24.0120  -17.4240  -49.3330 C.3   403  EPE403      0.0897
      6  C6       -23.8480  -15.9100  -49.1910 C.3   403  EPE403      0.0897
      7  C7       -24.3610  -19.1520  -51.1120 C.3   403  EPE403      0.1081
      8  C8       -25.1830  -19.5170  -52.3460 C.3   403  EPE403      0.1993
      9  O8       -24.5630  -19.0500  -53.5250 O.3   403  EPE403     -0.2189
     10  C9       -24.9230  -13.7770  -49.7340 C.3   403  EPE403      0.0939
     11  C10      -25.9570  -13.5770  -48.6270 C.3   403  EPE403      0.1225
     12  S        -26.9990  -12.1090  -48.8570 S.3   403  EPE403     -0.1946
     13  O1S      -27.6310  -12.1060  -50.1710 O.3   403  EPE403     -0.3074
     14  O2S      -28.0550  -12.1510  -47.8510 O.3   403  EPE403     -0.3074
     15  O3S      -26.2060  -10.8970  -48.6770 O.3   403  EPE403     -0.3074
@<TRIPOS>BOND
     1     9     8    1
     2     8     7    1
     3     7     4    1
     4     3     4    1
     5     3     2    1
     6     4     5    1
     7     2     1    1
     8    13    12    1
     9     1    10    1
    10     1     6    1
    11    10    11    1
    12     5     6    1
    13    12    15    1
    14    12    11    1
    15    12    14    1
