@<TRIPOS>MOLECULE
4ggl_CJC_A_1.pdb
 30 34 0 0 0
SMALL
GASTEIGER

@<TRIPOS>ATOM
      1  O47       -6.4760   -6.4420  -20.7670 O.2   301  CJC301     -0.2121
      2  C28       -7.1400   -7.2710  -20.0970 C.1   301  CJC301      0.2069
      3  C27       -6.8410   -8.6400  -20.1820 C.3   301  CJC301      0.2696
      4  N29       -8.1340   -6.8180  -19.3050 N.2   301  CJC301     -0.3287
      5  C22       -8.8510   -7.6790  -18.5800 C.2   301  CJC301      0.1876
      6  C23       -8.5390   -9.1330  -18.6680 C.1   301  CJC301      0.0596
      7  N26       -7.5310   -9.5510  -19.4770 N.2   301  CJC301     -0.1986
      8  N24       -9.2620  -10.0060  -17.9350 N.2   301  CJC301     -0.1904
      9  C25      -10.2590   -9.5750  -17.1410 C.2   301  CJC301      0.1129
     10  C20      -10.5830   -8.2210  -17.0230 C.2   301  CJC301      0.0463
     11  C21       -9.8840   -7.2570  -17.7500 C.3   301  CJC301      0.1057
     12  S19      -11.8680   -7.7940  -16.0010 S.3   301  CJC301      0.0073
     13  C10      -11.5520   -6.4460  -15.0390 C.1   301  CJC301      0.1839
     14  N9       -10.3200   -5.8840  -15.0190 N.2   301  CJC301     -0.3180
     15  C8       -10.0150   -4.8380  -14.2190 C.2   301  CJC301      0.2087
     16  N13       -8.7250   -4.3010  -14.3340 N.pl3 301  CJC301     -0.2807
     17  C14       -7.6800   -4.9830  -15.0920 C.3   301  CJC301      0.0948
     18  C15       -6.8830   -3.7900  -15.6200 C.3   301  CJC301      0.0423
     19  C16       -7.4970   -2.5080  -15.0650 C.3   301  CJC301      0.1133
     20  N18       -8.2850   -1.8570  -16.0950 N.3   301  CJC301     -0.1310
     21  C17       -8.4080   -2.9430  -13.9200 C.3   301  CJC301      0.1121
     22  C3       -11.1300   -4.2890  -13.3760 C.2   301  CJC301      0.1438
     23  C2       -12.4560   -4.9540  -13.4550 C.1   301  CJC301      0.1543
     24  N11      -12.5810   -5.9940  -14.2990 N.2   301  CJC301     -0.2684
     25  N1       -13.3590   -4.3640  -12.6350 N.2   301  CJC301     -0.3427
     26  C5       -12.8420   -3.3380  -11.9280 C.2   301  CJC301      0.1327
     27  C4       -11.4350   -3.2530  -12.3710 C.2   301  CJC301      0.0990
     28 CL1       -10.2490   -2.0400  -11.6710 Cl    301  CJC301     -0.0790
     29  C6       -13.5570   -2.4570  -10.9220 C.3   301  CJC301      0.0609
     30  C7       -14.5800   -3.2440  -10.1170 C.3   301  CJC301      0.0079
@<TRIPOS>BOND
     1     1     2    2
     2     3     2    1
     3     3     7    1
     4     2     4    2
     5     7     6    2
     6     4     5    2
     7     6     5    1
     8     6     8    2
     9     5    11    1
    10     8     9    1
    11    11    10    1
    12     9    10    2
    13    10    12    1
    14    20    19    1
    15    12    13    1
    16    18    17    1
    17    18    19    1
    18    17    16    1
    19    19    21    1
    20    13    14    2
    21    13    24    2
    22    14    15    2
    23    16    15    1
    24    16    21    1
    25    24    23    2
    26    15    22    1
    27    23    22    1
    28    23    25    2
    29    22    27    2
    30    25    26    2
    31    27    26    1
    32    27    28    1
    33    26    29    1
    34    29    30    1
