@<TRIPOS>MOLECULE
4ggm_LP5_X_1.pdb
 48 48 0 0 0
SMALL
GASTEIGER

@<TRIPOS>ATOM
      1  O48        3.6210  -33.4810   13.9470 O.3   302  LP5302     -0.1145
      2  P45        4.9050  -33.9860   13.1160 P.3   302  LP5302      0.5345
      3  O46        4.7690  -33.4370   11.7100 O.2   302  LP5302     -0.2223
      4  O47        6.1360  -33.7010   13.9450 O.3   302  LP5302     -0.1145
      5  O1         4.6760  -35.5870   13.0850 O.3   302  LP5302     -0.2424
      6  C1         5.7310  -36.5660   13.0830 C.3   302  LP5302      0.2686
      7  C2         6.1930  -36.9980   11.6820 C.3   302  LP5302      0.1942
      8  N2         6.9060  -35.9600   10.9520 N.am  302  LP5302     -0.1981
      9  C7         7.8630  -36.2520   10.0690 C.2   302  LP5302      0.2442
     10  C8         8.1730  -35.1770    9.0450 C.3   302  LP5302      0.1196
     11  C16        9.4590  -35.4970    8.2850 C.3   302  LP5302      0.1611
     12  O44       10.5310  -34.6760    8.7620 O.3   302  LP5302     -0.2226
     13  C17        9.2650  -35.2130    6.8040 C.3   302  LP5302      0.0334
     14  C18       10.5190  -35.6050    6.0280 C.3   302  LP5302      0.0026
     15  C19       10.2090  -36.0070    4.5840 C.3   302  LP5302      0.0001
     16  C20       11.3660  -36.7810    3.9500 C.3   302  LP5302      0.0000
     17  C21       12.3160  -35.8850    3.1570 C.3   302  LP5302      0.0000
     18  C22       13.4760  -36.6800    2.5540 C.3   302  LP5302      0.0000
     19  C23       13.8620  -36.1820    1.1580 C.3   302  LP5302      0.0000
     20  C24       15.1200  -36.8690    0.6290 C.3   302  LP5302      0.0000
     21  C25       16.2580  -35.8790    0.3930 C.3   302  LP5302      0.0000
     22  C26       17.2750  -36.4550   -0.5890 C.3   302  LP5302      0.0000
     23  C27       18.1770  -35.3860   -1.1730 C.3   302  LP5302      0.0000
     24  O7         8.4590  -37.3200   10.0580 O.2   302  LP5302     -0.2733
     25  C3         5.0030  -37.5690   10.9120 C.3   302  LP5302      0.2262
     26  C4         4.6370  -38.8560   11.6450 C.3   302  LP5302      0.2231
     27  C5         4.3020  -38.5560   13.1180 C.3   302  LP5302      0.1845
     28  O5         5.2600  -37.7180   13.8020 O.3   302  LP5302     -0.3258
     29  C6         4.1080  -39.8360   13.9300 C.3   302  LP5302      0.2142
     30  O6         3.5470  -39.4970   15.2010 O.3   302  LP5302     -0.2176
     31  O4         3.5290  -39.4880   10.9990 O.3   302  LP5302     -0.2165
     32  O3         5.3010  -37.7690    9.5210 O.3   302  LP5302     -0.4475
     33  C28        4.8800  -36.6250    8.7090 C.2   302  LP5302      0.3196
     34  O42        5.0910  -35.4880    9.1010 O.2   302  LP5302     -0.2500
     35  C29        4.2050  -36.8020    7.3720 C.3   302  LP5302      0.1423
     36  C30        4.9310  -35.9090    6.3660 C.3   302  LP5302      0.1631
     37  O43        4.8750  -34.5370    6.7840 O.3   302  LP5302     -0.2225
     38  C31        4.2810  -36.0470    4.9970 C.3   302  LP5302      0.0335
     39  C32        5.2540  -35.5950    3.9180 C.3   302  LP5302      0.0026
     40  C33        5.8510  -36.8030    3.2060 C.3   302  LP5302      0.0001
     41  C34        7.1300  -36.4390    2.4700 C.3   302  LP5302      0.0000
     42  C35        6.8510  -35.4650    1.3360 C.3   302  LP5302      0.0000
     43  C36        8.1400  -35.2190    0.5630 C.3   302  LP5302      0.0000
     44  C37        8.7550  -36.5410    0.1100 C.3   302  LP5302      0.0000
     45  C38       10.2040  -36.3790   -0.3480 C.3   302  LP5302      0.0000
     46  C39       10.3220  -35.9870   -1.8230 C.3   302  LP5302      0.0000
     47  C40       11.1830  -36.9980   -2.5770 C.3   302  LP5302      0.0000
     48  C41       11.3370  -36.6430   -4.0410 C.3   302  LP5302      0.0000
@<TRIPOS>BOND
     1    48    47    1
     2    47    46    1
     3    46    45    1
     4    23    22    1
     5    22    21    1
     6    45    44    1
     7    44    43    1
     8    21    20    1
     9    43    42    1
    10    20    19    1
    11    19    18    1
    12    42    41    1
    13    41    40    1
    14    18    17    1
    15    17    16    1
    16    40    39    1
    17    39    38    1
    18    16    15    1
    19    15    14    1
    20    38    36    1
    21    14    13    1
    22    36    37    1
    23    36    35    1
    24    13    11    1
    25    35    33    1
    26    11    12    1
    27    11    10    1
    28    33    34    2
    29    33    32    1
    30    10     9    1
    31    32    25    1
    32    24     9    2
    33     9     8   am
    34    25    26    1
    35    25     7    1
    36     8     7    1
    37    31    26    1
    38    26    27    1
    39     7     6    1
    40     3     2    2
    41     6     5    1
    42     6    28    1
    43     5     2    1
    44     2     4    1
    45     2     1    1
    46    27    28    1
    47    27    29    1
    48    29    30    1
