@<TRIPOS>MOLECULE
4ggq_861_A_1.pdb
 34 36 0 0 0
SMALL
GASTEIGER

@<TRIPOS>ATOM
      1  O6       -28.5190  -15.8300  -45.8650 O.2   203  861203     -0.1569
      2  S        -27.5060  -16.2140  -44.9060 S.O2  203  861203      0.0485
      3  O5       -27.1980  -17.5730  -45.0110 O.2   203  861203     -0.1569
      4  C18      -28.0550  -15.8060  -43.3790 C.3   203  861203      0.1955
      5  C19      -29.3990  -16.4610  -43.0550 C.ar  203  861203      0.0029
      6  C24      -29.4560  -17.7280  -42.4900 C.ar  203  861203     -0.0025
      7  C23      -30.6840  -18.3170  -42.1600 C.ar  203  861203     -0.0003
      8  C22      -31.8710  -17.6140  -42.4140 C.ar  203  861203     -0.0000
      9  C21      -31.8160  -16.3320  -42.9760 C.ar  203  861203     -0.0003
     10  C20      -30.5760  -15.7570  -43.2850 C.ar  203  861203     -0.0025
     11  N        -26.1900  -15.4320  -45.2750 N.3   203  861203     -0.1497
     12  C17      -26.2450  -13.9760  -45.1710 C.3   203  861203      0.0960
     13  C16      -25.3860  -13.4370  -46.3280 C.3   203  861203      0.0192
     14  C15      -23.9660  -13.9310  -46.2130 C.3   203  861203      0.0035
     15  C14      -23.9700  -15.4590  -46.2160 C.3   203  861203      0.0291
     16  C13      -24.8540  -16.0420  -45.1280 C.3   203  861203      0.1775
     17  C12      -24.2030  -15.7350  -43.7950 C.2   203  861203      0.3332
     18  O4       -23.0280  -16.0040  -43.6000 O.2   203  861203     -0.2485
     19  O3       -24.9300  -15.1250  -42.7360 O.3   203  861203     -0.4475
     20  C11      -24.3290  -15.0020  -41.3980 C.3   203  861203      0.2088
     21  C10      -24.2860  -13.5470  -40.8730 C.3   203  861203      0.0521
     22  C9       -24.0360  -12.5520  -41.9900 C.3   203  861203      0.0304
     23  C3       -24.1740  -11.0810  -41.6430 C.ar  203  861203     -0.0158
     24  C2       -25.3610  -10.3780  -41.9770 C.ar  203  861203      0.0360
     25  C4       -23.0960  -10.4180  -41.0570 C.ar  203  861203      0.0360
     26  C5       -23.2030   -9.0490  -40.7790 C.ar  203  861203      0.1751
     27  O2       -22.1410   -8.4000  -40.1880 O.3   203  861203     -0.4683
     28  C8       -22.1390   -8.1250  -38.7770 C.3   203  861203      0.2526
     29  C6       -24.3880   -8.3550  -41.0940 C.ar  203  861203      0.2060
     30  O1       -24.5110   -7.0270  -40.8070 O.3   203  861203     -0.4654
     31  C7       -25.2780   -6.6980  -39.6500 C.3   203  861203      0.2528
     32  C1       -25.4780   -8.9980  -41.6950 C.ar  203  861203      0.1751
     33  O        -26.6100   -8.2450  -41.9980 O.3   203  861203     -0.4683
     34  C        -27.7160   -8.7600  -42.7820 C.3   203  861203      0.2526
@<TRIPOS>BOND
     1    13    14    1
     2    13    12    1
     3    15    14    1
     4    15    16    1
     5     1     2    2
     6    11    12    1
     7    11    16    1
     8    11     2    1
     9    16    17    1
    10     3     2    2
    11     2     4    1
    12    17    18    2
    13    17    19    1
    14     4     5    1
    15    10     5   ar
    16    10     9   ar
    17     5     6   ar
    18     9     8   ar
    19    34    33    1
    20    19    20    1
    21     6     7   ar
    22     8     7   ar
    23    33    32    1
    24    22    23    1
    25    22    21    1
    26    24    32   ar
    27    24    23   ar
    28    32    29   ar
    29    23    25   ar
    30    20    21    1
    31    29    30    1
    32    29    26   ar
    33    25    26   ar
    34    30    31    1
    35    26    27    1
    36    27    28    1
