@<TRIPOS>MOLECULE
4gh6_LUO_A_1.pdb
 31 34 0 0 0
SMALL
GASTEIGER

@<TRIPOS>ATOM
      1  CL1       77.9710   49.7160   40.1730 C.3   601  LUO601      0.0324
      2  C2        79.2390   50.2060   39.8880 C.ar  601  LUO601     -0.0065
      3  C3        79.7970   49.9920   38.6330 C.ar  601  LUO601     -0.0030
      4  C4        81.0660   50.4800   38.3440 C.ar  601  LUO601     -0.0002
      5  C5        81.7760   51.1790   39.3140 C.ar  601  LUO601      0.0013
      6  C6        81.2150   51.4020   40.5660 C.ar  601  LUO601      0.0163
      7  C7        79.9450   50.9160   40.8530 C.ar  601  LUO601      0.0704
      8  N8        79.3990   51.1290   42.0480 N.pl3 601  LUO601     -0.1706
      9  C11       78.3220   51.8900   42.2190 C.2   601  LUO601      0.2314
     10  N13       77.5460   52.5640   41.3610 N.2   601  LUO601     -0.3084
     11  N9        79.7680   50.7290   43.0450 N.pl3 601  LUO601     -0.1385
     12  C10       79.0110   51.1510   44.0580 C.2   601  LUO601      0.1211
     13  C12       78.0600   51.9070   43.5190 C.2   601  LUO601      0.1599
     14  C16       77.0140   52.5920   43.9720 C.1   601  LUO601      0.2210
     15  O17       76.8270   52.6130   45.3190 O.2   601  LUO601     -0.2084
     16  N15       76.2240   53.2700   43.1270 N.2   601  LUO601     -0.2512
     17  C14       76.5000   53.2690   41.8140 C.1   601  LUO601      0.2322
     18  N18       75.8390   54.1010   40.9640 N.pl3 601  LUO601     -0.1435
     19  C19       74.8140   53.4200   40.2150 C.3   601  LUO601      0.1834
     20  C20       73.9860   54.4640   39.4640 C.3   601  LUO601      0.0343
     21  C21       75.4150   52.4340   39.2100 C.2   601  LUO601      0.2662
     22  O22       76.4770   52.6740   38.6380 O.2   601  LUO601     -0.2711
     23  N23       74.6270   51.2570   39.0140 N.am  601  LUO601     -0.1777
     24  C24       75.0320   50.4630   37.9830 C.ar  601  LUO601      0.0736
     25  C29       74.3680   49.2550   37.7980 C.ar  601  LUO601      0.0197
     26  C28       74.7260   48.3940   36.7670 C.ar  601  LUO601      0.0382
     27  C27       75.7600   48.7430   35.9060 C.ar  601  LUO601      0.1388
     28  O30       76.1150   47.8830   34.9130 O.3   601  LUO601     -0.4714
     29  C31       75.7320   48.3990   33.6350 C.3   601  LUO601      0.2525
     30  C26       76.4280   49.9500   36.0850 C.ar  601  LUO601      0.0382
     31  C25       76.0660   50.8090   37.1190 C.ar  601  LUO601      0.0197
@<TRIPOS>BOND
     1    29    28    1
     2    28    27    1
     3    27    30   ar
     4    27    26   ar
     5    30    31   ar
     6    26    25   ar
     7    31    24   ar
     8    25    24   ar
     9    24    23    1
    10     4     3   ar
    11     4     5   ar
    12     3     2   ar
    13    22    21    2
    14    23    21   am
    15    21    19    1
    16     5     6   ar
    17    20    19    1
    18     2     1    1
    19     2     7   ar
    20    19    18    1
    21     6     7   ar
    22     7     8    1
    23    18    17    1
    24    10    17    2
    25    10     9    2
    26    17    16    2
    27     8     9    1
    28     8    11    1
    29     9    13    1
    30    11    12    1
    31    16    14    2
    32    13    14    1
    33    13    12    2
    34    14    15    2
