@<TRIPOS>MOLECULE
4ghd_DHY_C_1.pdb
 12 12 0 0 0
SMALL
GASTEIGER

@<TRIPOS>ATOM
      1  C1         4.5030   38.2480   36.8790 C.ar  403  DHY403     -0.0076
      2  C2         3.0960   37.9040   36.7280 C.ar  403  DHY403      0.0417
      3  C3         2.7230   36.5490   36.4820 C.ar  403  DHY403      0.2340
      4  C4         3.7410   35.5380   36.4020 C.ar  403  DHY403      0.2342
      5  C5         5.1140   35.8950   36.5970 C.ar  403  DHY403      0.0451
      6  C6         5.4990   37.2550   36.7930 C.ar  403  DHY403     -0.0002
      7  C7         4.8360   39.7280   37.0630 C.3   403  DHY403      0.1405
      8  C8         4.0460   40.5150   35.9410 C.2   403  DHY403      0.3692
      9  O1         4.5060   40.6360   34.8090 O.co2 403  DHY403     -0.2453
     10  O2         3.0010   40.9330   36.2140 O.co2 403  DHY403     -0.2453
     11  O3         1.4190   36.2630   36.3450 O.3   403  DHY403     -0.2832
     12  O4         3.4220   34.2080   36.1880 O.3   403  DHY403     -0.2831
@<TRIPOS>BOND
     1     9     8   ar
     2     8    10   ar
     3     8     7    1
     4    12     4    1
     5    11     3    1
     6     4     3   ar
     7     4     5   ar
     8     3     2   ar
     9     5     6   ar
    10     2     1   ar
    11     6     1   ar
    12     1     7    1
