@<TRIPOS>MOLECULE
4ghe_4NC_C_1.pdb
 11 11 0 0 0
SMALL
GASTEIGER

@<TRIPOS>ATOM
      1  C1         3.7850   35.4690   36.5470 C.ar  403  4NC403      0.2344
      2  C2         2.7620   36.5230   36.5640 C.ar  403  4NC403      0.2359
      3  C3         3.1260   37.8380   36.7980 C.ar  403  4NC403      0.0694
      4  C4         4.4950   38.1630   36.9170 C.ar  403  4NC403      0.1463
      5  C5         5.4750   37.1790   36.8650 C.ar  403  4NC403      0.0276
      6  C6         5.1250   35.8250   36.6930 C.ar  403  4NC403      0.0471
      7  O7         3.4320   34.1650   36.3380 O.3   403  4NC403     -0.2831
      8  O8         1.4620   36.2300   36.4780 O.3   403  4NC403     -0.2831
      9  N9         4.8090   39.4910   36.8750 N.pl3 403  4NC403      0.0578
     10  O10        3.7840   40.5130   36.2600 O.2   403  4NC403     -0.1261
     11  O11        6.1500   39.7920   36.7300 O.2   403  4NC403     -0.1261
@<TRIPOS>BOND
     1    10     9    2
     2     7     1    1
     3     8     2    1
     4     1     2   ar
     5     1     6   ar
     6     2     3   ar
     7     6     5   ar
     8    11     9    2
     9     3     4   ar
    10     5     4   ar
    11     9     4    1
