@<TRIPOS>MOLECULE
4ghf_4NC_A_1.pdb
 11 11 0 0 0
SMALL
GASTEIGER

@<TRIPOS>ATOM
      1  C1         5.8240   48.7860    8.8000 C.ar  402  4NC402      0.2344
      2  C2         5.6290   49.9720    9.6460 C.ar  402  4NC402      0.2359
      3  C3         4.3710   50.2900   10.1010 C.ar  402  4NC402      0.0694
      4  C4         3.2960   49.4480    9.7680 C.ar  402  4NC402      0.1463
      5  C5         3.4720   48.3390    8.9540 C.ar  402  4NC402      0.0276
      6  C6         4.7290   47.9870    8.4410 C.ar  402  4NC402      0.0471
      7  O7         7.0380   48.4560    8.3520 O.3   402  4NC402     -0.2831
      8  O8         6.6430   50.7290   10.0060 O.3   402  4NC402     -0.2831
      9  N9         2.1410   49.6270   10.4400 N.pl3 402  4NC402      0.0578
     10  O10        2.2770   50.1980   11.8680 O.2   402  4NC402     -0.1261
     11  O11        1.2080   48.6240   10.3730 O.2   402  4NC402     -0.1261
@<TRIPOS>BOND
     1     7     1    1
     2     6     1   ar
     3     6     5   ar
     4     1     2   ar
     5     5     4   ar
     6     2     8    1
     7     2     3   ar
     8     4     3   ar
     9     4     9    1
    10    11     9    2
    11     9    10    2
