@<TRIPOS>MOLECULE
4ghg_DHY_C_1.pdb
 12 12 0 0 0
SMALL
GASTEIGER

@<TRIPOS>ATOM
      1  C1         4.4880   38.2230   36.9450 C.ar  403  DHY403     -0.0076
      2  C2         3.0880   37.9210   36.8770 C.ar  403  DHY403      0.0417
      3  C3         2.6810   36.5950   36.6060 C.ar  403  DHY403      0.2340
      4  C4         3.6870   35.5670   36.4800 C.ar  403  DHY403      0.2342
      5  C5         5.0540   35.8440   36.7470 C.ar  403  DHY403      0.0451
      6  C6         5.4810   37.2030   36.8950 C.ar  403  DHY403     -0.0002
      7  C7         4.8740   39.6770   37.0730 C.3   403  DHY403      0.1405
      8  C8         4.0670   40.4780   36.0010 C.2   403  DHY403      0.3692
      9  O1         4.5390   40.6900   34.8930 O.co2 403  DHY403     -0.2453
     10  O2         3.0540   40.9070   36.2940 O.co2 403  DHY403     -0.2453
     11  O3         1.3730   36.2840   36.4300 O.3   403  DHY403     -0.2832
     12  O4         3.2370   34.2890   36.2120 O.3   403  DHY403     -0.2831
@<TRIPOS>BOND
     1     9     8   ar
     2     8    10   ar
     3     8     7    1
     4    12     4    1
     5    11     3    1
     6     4     3   ar
     7     4     5   ar
     8     3     2   ar
     9     5     6   ar
    10     2     1   ar
    11     6     1   ar
    12     1     7    1
