@<TRIPOS>MOLECULE
4ghh_4NC_C_1.pdb
 11 11 0 0 0
SMALL
GASTEIGER

@<TRIPOS>ATOM
      1  C1         3.7240   35.5150   36.6740 C.ar  403  4NC403      0.2344
      2  C2         2.7090   36.6500   36.7200 C.ar  403  4NC403      0.2359
      3  C3         3.1230   37.9810   36.9890 C.ar  403  4NC403      0.0694
      4  C4         4.5250   38.2740   37.0550 C.ar  403  4NC403      0.1463
      5  C5         5.4670   37.2050   37.0670 C.ar  403  4NC403      0.0276
      6  C6         5.1000   35.8480   36.9160 C.ar  403  4NC403      0.0471
      7  O7         3.2700   34.2650   36.3430 O.3   403  4NC403     -0.2831
      8  O8         1.4110   36.3630   36.4820 O.3   403  4NC403     -0.2831
      9  N9         4.8730   39.6300   36.9920 N.pl3 403  4NC403      0.0578
     10  O10        3.8550   40.5690   36.3430 O.2   403  4NC403     -0.1261
     11  O11        6.2060   39.9030   36.8240 O.2   403  4NC403     -0.1261
@<TRIPOS>BOND
     1     7     1    1
     2    10     9    2
     3     8     2    1
     4     1     2   ar
     5     1     6   ar
     6     2     3   ar
     7    11     9    2
     8     6     5   ar
     9     3     4   ar
    10     9     4    1
    11     4     5   ar
