@<TRIPOS>MOLECULE
4ghi_0X3_A_1.pdb
 27 29 0 0 0
SMALL
GASTEIGER

@<TRIPOS>ATOM
      1 CL1        17.4040  -39.8240    9.7410 Cl    401  0X3401     -0.0834
      2  CAH       16.5340  -41.2350   10.2830 C.ar  401  0X3401      0.0454
      3  CAG       15.2040  -41.1240   10.5300 C.ar  401  0X3401     -0.0220
      4  CAI       17.2640  -42.3700   10.5060 C.ar  401  0X3401     -0.0080
      5  CAQ       16.5440  -43.4480   10.9870 C.ar  401  0X3401      0.1265
      6  FAR       17.1930  -44.5980   11.2210 F     401  0X3401     -0.2054
      7  CAP       15.1760  -43.3980   11.2070 C.ar  401  0X3401     -0.0052
      8  CAO       14.5010  -42.2300   10.9730 C.ar  401  0X3401      0.0355
      9  NAN       13.0980  -42.1440   11.2400 N.pl3 401  0X3401     -0.3125
     10  CAM       12.1490  -41.7410   10.3470 C.ar  401  0X3401      0.0643
     11  CAL       10.8520  -41.4450   10.6590 C.ar  401  0X3401      0.1778
     12  NAT       10.3680  -41.5170   11.9910 N.pl3 401  0X3401      0.0606
     13  OAS       11.1770  -41.7980   12.8750 O.2   401  0X3401     -0.1260
     14  OAU        9.2050  -41.3160   12.2390 O.2   401  0X3401     -0.1260
     15  CAF       12.5530  -41.6560    8.9520 C.ar  401  0X3401     -0.0361
     16  CAE       11.7220  -41.2830    7.9550 C.ar  401  0X3401     -0.0289
     17  CAD       10.3640  -40.9870    8.2580 C.ar  401  0X3401      0.1366
     18  CAK        9.9310  -41.0650    9.6400 C.ar  401  0X3401      0.1660
     19  NAC        9.3120  -40.6010    7.5230 N.ar  401  0X3401     -0.0489
     20  OAB        8.3070  -40.4510    8.3820 O.2   401  0X3401     -0.2415
     21  NAJ        8.6260  -40.7070    9.6460 N.ar  401  0X3401     -0.0465
     22  HAG       14.7310  -40.1650   10.3210 H     401  0X3401      0.0651
     23  HAI       18.3420  -42.4140   10.3320 H     401  0X3401      0.0661
     24  HAP       14.6670  -44.2880   11.5810 H     401  0X3401      0.0665
     25 HNAN       12.7950  -42.5910   12.0990 H     401  0X3401      0.1522
     26  HAF       13.5880  -41.8990    8.7210 H     401  0X3401      0.0637
     27  HAE       12.0400  -41.2280    6.9100 H     401  0X3401      0.0641
@<TRIPOS>BOND
     1    27    16    1
     2    19    17   ar
     3    19    20   ar
     4    16    17   ar
     5    16    15   ar
     6    17    18   ar
     7    20    21   ar
     8    26    15    1
     9    15    10   ar
    10    18    21   ar
    11    18    11   ar
    12     1     2    1
    13     2     4   ar
    14     2     3   ar
    15    22     3    1
    16    23     4    1
    17    10    11   ar
    18    10     9    1
    19     4     5   ar
    20     3     8   ar
    21    11    12    1
    22     8     7   ar
    23     8     9    1
    24     5     7   ar
    25     5     6    1
    26     7    24    1
    27     9    25    1
    28    12    14    2
    29    12    13    2
