@<TRIPOS>MOLECULE
4ghm_PRF_A_1.pdb
 13 14 0 0 0
SMALL
GASTEIGER

@<TRIPOS>ATOM
      1  N1        31.2200   -2.0890    8.4170 N.2   301  PRF301     -0.2525
      2  C2        30.6430   -3.3010    8.3520 C.1   301  PRF301      0.2602
      3  N3        29.6710   -3.5640    7.4930 N.2   301  PRF301     -0.2733
      4  C4        29.2250   -2.5900    6.6510 C.1   301  PRF301      0.0973
      5  C5        29.7810   -1.3310    6.6980 C.3   301  PRF301      0.2372
      6  C6        30.8140   -1.0860    7.6280 C.1   301  PRF301      0.2101
      7  O6        31.3740    0.1030    7.7130 O.2   301  PRF301     -0.2120
      8  C7        29.1160   -0.5550    5.6960 C.2   301  PRF301      0.0258
      9  C10       29.2770    0.8540    5.2850 C.3   301  PRF301      0.1351
     10  N11       30.0660    1.6170    6.1440 N.3   301  PRF301     -0.1264
     11  C8        28.2030   -1.4160    5.1260 C.2   301  PRF301      0.1053
     12  N9        28.2750   -2.6090    5.6920 N.2   301  PRF301     -0.1847
     13  N2        31.0400   -4.2870    9.1540 N.pl3 301  PRF301     -0.0221
@<TRIPOS>BOND
     1    11    12    1
     2    11     8    2
     3     9     8    1
     4     9    10    1
     5    12     4    2
     6     8     5    1
     7     4     5    1
     8     4     3    2
     9     5     6    1
    10     3     2    2
    11     6     7    2
    12     6     1    2
    13     2     1    2
    14     2    13    1
