@<TRIPOS>MOLECULE
4ghw_DKA_A_1.pdb
 12 11 0 0 0
SMALL
GASTEIGER

@<TRIPOS>ATOM
      1  C1       -32.0550  -22.8720  -14.8620 C.2   302  DKA302      0.3649
      2  O1       -33.2480  -22.9920  -15.0540 O.co2 302  DKA302     -0.2457
      3  C2       -31.4480  -21.5230  -14.8350 C.3   302  DKA302      0.1141
      4  C3       -29.9870  -21.6730  -15.1690 C.3   302  DKA302      0.0118
      5  C4       -29.0920  -20.9420  -14.1900 C.3   302  DKA302      0.0006
      6  C5       -27.8190  -20.5150  -14.8800 C.3   302  DKA302      0.0000
      7  C6       -27.1980  -19.3380  -14.1590 C.3   302  DKA302      0.0000
      8  C7       -27.6270  -18.0250  -14.7650 C.3   302  DKA302      0.0000
      9  C8       -26.8680  -16.9120  -14.0880 C.3   302  DKA302      0.0000
     10  C9       -26.0850  -16.1030  -15.0940 C.3   302  DKA302      0.0000
     11  C10      -26.7920  -14.8080  -15.4030 C.3   302  DKA302      0.0000
     12  O2       -31.3160  -23.8110  -14.6920 O.co2 302  DKA302     -0.2457
@<TRIPOS>BOND
     1    11    10    1
     2     4     3    1
     3     4     5    1
     4    10     9    1
     5     2     1   ar
     6     6     5    1
     7     6     7    1
     8     1     3    1
     9     1    12   ar
    10     8     7    1
    11     8     9    1
