@<TRIPOS>MOLECULE
4gi1_16Y_A_1.pdb
 19 18 0 0 0
SMALL
GASTEIGER

@<TRIPOS>ATOM
      1  O19      -38.4410  -16.2620   14.2090 O.co2 302  16Y302     -0.2456
      2  C17      -38.0570  -15.1150   14.6030 C.2   302  16Y302      0.3652
      3  O18      -37.3710  -14.9570   15.6500 O.co2 302  16Y302     -0.2456
      4  C16      -38.4690  -13.8390   13.8520 C.3   302  16Y302      0.1187
      5  C15      -37.9040  -13.9100   12.4140 C.3   302  16Y302      0.0375
      6  C14      -38.0410  -12.6830   11.4750 C.2   302  16Y302     -0.0301
      7  C13      -36.7920  -11.7490   11.4200 C.2   302  16Y302     -0.0307
      8  C12      -36.8710  -10.5550   10.4380 C.3   302  16Y302      0.0257
      9  C11      -36.3280   -9.2330   11.0230 C.3   302  16Y302      0.0047
     10  C10      -37.3080   -8.0350   10.9750 C.3   302  16Y302      0.0003
     11  C1       -36.6910   -6.8210   10.2370 C.3   302  16Y302      0.0000
     12  C2       -37.5290   -5.5380   10.3160 C.3   302  16Y302      0.0000
     13  C3       -37.3900   -4.8440   11.6590 C.3   302  16Y302      0.0000
     14  C4       -38.7420   -4.7240   12.3370 C.3   302  16Y302      0.0000
     15  C5       -38.8830   -5.4630   13.6780 C.3   302  16Y302      0.0001
     16  C6       -39.5710   -4.5500   14.6790 C.3   302  16Y302      0.0027
     17  C7       -40.4330   -5.2750   15.7140 C.3   302  16Y302      0.0355
     18  C8       -41.3270   -4.2690   16.4510 C.3   302  16Y302      0.1821
     19  O9       -42.1220   -4.9250   17.4930 O.3   302  16Y302     -0.2204
@<TRIPOS>BOND
     1    11    12    1
     2    11    10    1
     3    12    13    1
     4     8     9    1
     5     8     7    1
     6    10     9    1
     7     7     6    2
     8     6     5    1
     9    13    14    1
    10    14    15    1
    11     5     4    1
    12    15    16    1
    13     4     2    1
    14     1     2   ar
    15     2     3   ar
    16    16    17    1
    17    17    18    1
    18    18    19    1
