@<TRIPOS>MOLECULE
4gi6_GLC_A_1.pdb
 12 12 0 0 0
SMALL
GASTEIGER

@<TRIPOS>ATOM
      1  C1        22.4550   54.7830  109.2060 C.3   602  GLC602      0.3024
      2  C2        23.0890   55.5310  110.3610 C.3   602  GLC602      0.2434
      3  C3        24.2550   54.6970  110.9290 C.3   602  GLC602      0.2199
      4  C4        23.9390   53.2010  111.0780 C.3   602  GLC602      0.2144
      5  C5        22.7370   52.6780  110.2910 C.3   602  GLC602      0.1836
      6  C6        21.9450   51.7560  111.1920 C.3   602  GLC602      0.2142
      7  O1        23.4530   54.4080  108.2660 O.3   602  GLC602     -0.1869
      8  O2        23.4680   56.7980  109.8670 O.3   602  GLC602     -0.2148
      9  O3        24.6500   55.1690  112.1880 O.3   602  GLC602     -0.2174
     10  O4        25.0360   52.4330  110.6410 O.3   602  GLC602     -0.2176
     11  O5        21.8470   53.6610  109.7910 O.3   602  GLC602     -0.3236
     12  O6        20.6160   52.2270  111.2620 O.3   602  GLC602     -0.2176
@<TRIPOS>BOND
     1     7     1    1
     2     1    11    1
     3     1     2    1
     4    11     5    1
     5     8     2    1
     6     5     4    1
     7     5     6    1
     8     2     3    1
     9    10     4    1
    10     3     4    1
    11     3     9    1
    12     6    12    1
