@<TRIPOS>MOLECULE
4gid_0GH_A_1.pdb
 47 49 0 0 0
SMALL
GASTEIGER

@<TRIPOS>ATOM
      1  CBK       49.5370   -2.5550    8.2710 C.3   501  0GH501      0.0018
      2  CBL       48.9440   -3.5780    9.2390 C.3   501  0GH501      0.0217
      3  CBM       50.0680   -4.4590    9.7920 C.3   501  0GH501      0.0018
      4  CBN       48.1820   -2.8490   10.3470 C.3   501  0GH501      0.1151
      5  NBO       47.1100   -2.0110    9.7820 N.am  501  0GH501     -0.2042
      6  CBP       45.8260   -2.3550   10.4130 C.2   501  0GH501      0.2598
      7  OBV       45.8020   -2.8950   11.5220 O.2   501  0GH501     -0.2717
      8  CBG       44.6790   -1.4430    9.9430 C.3   501  0GH501      0.1809
      9  CBH       44.7780   -0.0930   10.6690 C.3   501  0GH501      0.1768
     10  CBJ       44.1370   -0.1340   12.0570 C.3   501  0GH501      0.0375
     11  OBI       46.1190    0.4110   10.6990 O.3   501  0GH501     -0.2211
     12  NBF       43.3350   -2.0220   10.0970 N.3   501  0GH501     -0.2061
     13  CAX       43.1900   -3.2130    9.2450 C.3   501  0GH501      0.1112
     14  CAW       42.5960   -4.4150    9.9860 C.3   501  0GH501      0.1173
     15  CAY       42.4160   -5.5960    9.0260 C.3   501  0GH501      0.0495
     16  CAZ       41.7140   -6.6480    9.6120 C.ar  501  0GH501     -0.0204
     17  CBA       40.7020   -7.2960    8.9110 C.ar  501  0GH501     -0.0042
     18  CBB       39.9550   -8.3050    9.5120 C.ar  501  0GH501     -0.0003
     19  CBC       40.2100   -8.6710   10.8290 C.ar  501  0GH501     -0.0000
     20  CBD       41.2180   -8.0210   11.5330 C.ar  501  0GH501     -0.0003
     21  CBE       41.9720   -7.0220   10.9270 C.ar  501  0GH501     -0.0042
     22  NAV       41.3080   -4.1170   10.6290 N.am  501  0GH501     -0.2016
     23  CAT       41.2570   -3.7410   11.9150 C.2   501  0GH501      0.2648
     24  OAU       42.2680   -3.5630   12.5920 O.2   501  0GH501     -0.2684
     25  CAP       39.9770   -3.5540   12.4310 C.ar  501  0GH501      0.0565
     26  CAQ       38.9820   -4.4400   12.0330 C.ar  501  0GH501      0.0092
     27  CAO       39.7370   -2.7010   13.5060 C.ar  501  0GH501      0.0207
     28  CAN       38.5080   -2.6970   14.1650 C.ar  501  0GH501      0.0688
     29  NAE       38.3320   -2.0310   15.3090 N.pl3 501  0GH501     -0.1925
     30  CBT       39.4840   -1.1980   15.6850 C.3   501  0GH501      0.1388
     31  SAB       36.9310   -1.1840   15.4610 S.O2  501  0GH501      0.0588
     32  OAC       37.2200    0.2310   15.9630 O.2   501  0GH501     -0.1542
     33  OAD       36.1900   -1.1020   14.1240 O.2   501  0GH501     -0.1542
     34  CAA       35.8860   -2.0180   16.6380 C.3   501  0GH501      0.1999
     35  CAS       37.5450   -3.6220   13.7750 C.ar  501  0GH501      0.0207
     36  CAR       37.7670   -4.4860   12.7070 C.ar  501  0GH501      0.0565
     37  CAL       36.7290   -5.2760   12.2270 C.2   501  0GH501      0.2651
     38  OAM       35.9770   -5.8600   13.0060 O.2   501  0GH501     -0.2684
     39  NBQ       36.7090   -5.4920   10.9040 N.am  501  0GH501     -0.1989
     40  CBR       35.6560   -6.3180   10.2940 C.3   501  0GH501      0.1178
     41  CBS       36.2840   -7.4870    9.5320 C.3   501  0GH501      0.0283
     42  CAI       34.8310   -5.5730    9.4540 C.ar  501  0GH501     -0.0026
     43  CAH       33.4700   -5.4970    9.7240 C.ar  501  0GH501     -0.0026
     44  CAG       32.6490   -4.6400    8.9940 C.ar  501  0GH501     -0.0003
     45  CAF       33.1900   -3.8500    7.9860 C.ar  501  0GH501     -0.0000
     46  CAK       34.5520   -3.9280    7.7070 C.ar  501  0GH501     -0.0003
     47  CAJ       35.3660   -4.7930    8.4320 C.ar  501  0GH501     -0.0026
@<TRIPOS>BOND
     1    46    45   ar
     2    46    47   ar
     3    45    44   ar
     4     1     2    1
     5    47    42   ar
     6    17    18   ar
     7    17    16   ar
     8    44    43   ar
     9    15    16    1
    10    15    14    1
    11     2     3    1
    12     2     4    1
    13    13    14    1
    14    13    12    1
    15    42    43   ar
    16    42    40    1
    17    18    19   ar
    18    41    40    1
    19    16    21   ar
    20     5     4    1
    21     5     6   am
    22     8    12    1
    23     8     6    1
    24     8     9    1
    25    14    22    1
    26    40    39    1
    27     6     7    2
    28    22    23   am
    29     9    11    1
    30     9    10    1
    31    19    20   ar
    32    39    37   am
    33    21    20   ar
    34    23    25    1
    35    23    24    2
    36    26    25   ar
    37    26    36   ar
    38    37    36    1
    39    37    38    2
    40    25    27   ar
    41    36    35   ar
    42    27    28   ar
    43    35    28   ar
    44    33    31    2
    45    28    29    1
    46    29    31    1
    47    29    30    1
    48    31    32    2
    49    31    34    1
