@<TRIPOS>MOLECULE
4gie_NAP_A_1.pdb
 48 52 0 0 0
SMALL
GASTEIGER

@<TRIPOS>ATOM
      1  PA        19.7880  -13.4720   38.7650 P.3   302  NAP302      0.2189
      2  O1A       18.9630  -13.2980   39.9790 O.3   302  NAP302     -0.4371
      3  O2A       21.2480  -13.2160   38.7870 O.2   302  NAP302     -0.5170
      4  O5B       19.6020  -14.8760   38.0420 O.3   302  NAP302     -0.3112
      5  C5B       18.2960  -15.3660   37.7220 C.3   302  NAP302      0.1813
      6  C4B       18.4850  -16.6630   36.9450 C.3   302  NAP302      0.1820
      7  O4B       19.0290  -17.6680   37.8260 O.3   302  NAP302     -0.3136
      8  C3B       17.1950  -17.2370   36.3880 C.3   302  NAP302      0.2157
      9  O3B       17.4850  -17.9230   35.1660 O.3   302  NAP302     -0.2175
     10  C2B       16.7580  -18.2140   37.4620 C.3   302  NAP302      0.2314
     11  O2B       15.9420  -19.2640   36.9490 O.3   302  NAP302     -0.2630
     12  C1B       18.0870  -18.7530   37.9480 C.3   302  NAP302      0.3158
     13  N9A       18.1200  -19.1790   39.3510 N.pl3 302  NAP302     -0.1439
     14  C8A       17.6450  -18.4800   40.3910 C.3   302  NAP302      0.3377
     15  N7A       17.8670  -19.1050   41.5500 N.2   302  NAP302     -0.2095
     16  C5A       18.5150  -20.2450   41.2370 C.2   302  NAP302      0.2526
     17  C6A       19.0470  -21.3600   42.0000 C.2   302  NAP302      0.4393
     18  N6A       18.9240  -21.4230   43.3330 N.pl3 302  NAP302      0.2180
     19  N1A       19.6160  -22.3500   41.2990 N.2   302  NAP302      0.0021
     20  C2A       19.7320  -22.3280   39.9680 C.3   302  NAP302      0.5254
     21  N3A       19.2920  -21.3400   39.1930 N.2   302  NAP302     -0.0055
     22  C4A       18.6910  -20.2970   39.8000 C.2   302  NAP302      0.3518
     23  O3        19.2340  -12.5560   37.5460 O.3   302  NAP302     -0.2703
     24  PN        18.4750  -11.1630   37.3340 P.3   302  NAP302      0.2189
     25  O1N       17.0060  -11.3620   37.2510 O.3   302  NAP302     -0.4371
     26  O2N       19.1600  -10.5670   36.1450 O.2   302  NAP302     -0.5170
     27  O5D       18.8560  -10.2020   38.5480 O.3   302  NAP302     -0.3112
     28  C5D       18.0590  -10.1570   39.7310 C.3   302  NAP302      0.1813
     29  C4D       17.1350   -8.9530   39.7690 C.3   302  NAP302      0.1799
     30  O4D       17.9050   -7.7500   39.7000 O.3   302  NAP302     -0.3327
     31  C3D       16.1670   -8.7960   38.6090 C.3   302  NAP302      0.2158
     32  O3D       15.1030   -9.7600   38.6350 O.3   302  NAP302     -0.2175
     33  C2D       15.7330   -7.3660   38.7890 C.3   302  NAP302      0.2309
     34  O2D       14.8220   -7.3120   39.8960 O.3   302  NAP302     -0.2158
     35  C1D       17.0700   -6.7150   39.1510 C.3   302  NAP302      0.2263
     36  N1N       17.7750   -6.1110   38.0000 N.pl3 302  NAP302     -0.2787
     37  C2N       17.9130   -4.7780   37.9860 C.3   302  NAP302      0.1244
     38  C3N       18.5880   -4.1420   36.9590 C.2   302  NAP302      0.0544
     39  C7N       18.7620   -2.6570   36.9640 C.2   302  NAP302      0.2818
     40  O7N       19.1340   -2.0960   35.9290 O.2   302  NAP302     -0.2670
     41  N7N       18.5180   -1.9820   38.0860 N.am  302  NAP302     -0.0839
     42  C4N       19.1040   -4.9110   35.9140 C.2   302  NAP302      0.0033
     43  C5N       18.9650   -6.2820   35.9430 C.2   302  NAP302      0.0157
     44  C6N       18.2940   -6.8790   37.0020 C.2   302  NAP302      0.0633
     45  P2B       14.4570  -19.5390   37.5340 P.3   302  NAP302      0.5328
     46  O1X       14.6610  -20.0690   38.9330 O.3   302  NAP302     -0.1145
     47  O2X       13.6930  -18.2540   37.4910 O.3   302  NAP302     -0.1145
     48  O3X       13.9510  -20.5930   36.5810 O.2   302  NAP302     -0.2224
@<TRIPOS>BOND
     1     9     8    1
     2    42    43    1
     3    42    38    2
     4    40    39    2
     5    43    44    2
     6    26    24    2
     7     8     6    1
     8     8    10    1
     9    48    45    2
    10     6     5    1
    11     6     7    1
    12    11    10    1
    13    11    45    1
    14    38    39    1
    15    38    37    1
    16    39    41   am
    17    44    36    1
    18    25    24    1
    19    24    23    1
    20    24    27    1
    21    10    12    1
    22    47    45    1
    23    45    46    1
    24    23     1    1
    25     5     4    1
    26     7    12    1
    27    12    13    1
    28    37    36    1
    29    36    35    1
    30     4     1    1
    31    27    28    1
    32    31    32    1
    33    31    33    1
    34    31    29    1
    35     1     3    2
    36     1     2    1
    37    33    35    1
    38    33    34    1
    39    35    30    1
    40    21    22    2
    41    21    20    1
    42    13    22    1
    43    13    14    1
    44    30    29    1
    45    28    29    1
    46    22    16    1
    47    20    19    1
    48    14    15    1
    49    16    15    2
    50    16    17    1
    51    19    17    2
    52    17    18    1
