@<TRIPOS>MOLECULE
4gik_R5P_A_1.pdb
 13 12 0 0 0
SMALL
GASTEIGER

@<TRIPOS>ATOM
      1  C1        28.7930  -17.1710  -19.8210 C.3   401  R5P401      0.0383
      2  C2        27.5930  -16.5060  -19.1640 C.3   401  R5P401      0.1849
      3  O2        26.5140  -16.3500  -20.1000 O.3   401  R5P401     -0.2203
      4  C3        27.9030  -15.1110  -18.6200 C.3   401  R5P401      0.2147
      5  O3        26.6660  -14.5210  -18.2010 O.3   401  R5P401     -0.2176
      6  C4        28.5510  -14.1580  -19.6180 C.3   401  R5P401      0.2146
      7  O4        29.8400  -14.6330  -20.0010 O.3   401  R5P401     -0.2176
      8  C5        28.7460  -12.7640  -19.0060 C.3   401  R5P401      0.1892
      9  O5        29.3440  -11.8890  -19.9690 O.3   401  R5P401     -0.2674
     10  P         29.6750  -10.3560  -19.5770 P.3   401  R5P401      0.5327
     11  O1P       30.3710  -10.4100  -18.2350 O.3   401  R5P401     -0.1145
     12  O2P       28.2940   -9.7430  -19.5100 O.3   401  R5P401     -0.1145
     13  O3P       30.5790   -9.8610  -20.6720 O.2   401  R5P401     -0.2224
@<TRIPOS>BOND
     1    13    10    2
     2     3     2    1
     3     7     6    1
     4     9    10    1
     5     9     8    1
     6     1     2    1
     7     6     8    1
     8     6     4    1
     9    10    12    1
    10    10    11    1
    11     2     4    1
    12     4     5    1
