@<TRIPOS>MOLECULE
4gil_KPS_A_1.pdb
 21 21 0 0 0
SMALL
GASTEIGER

@<TRIPOS>ATOM
      1  O3T        6.7840  -12.9050  -25.4400 O.3   401  KPS401     -0.1145
      2  P          7.6040  -11.6960  -25.8140 P.3   401  KPS401      0.5327
      3  O1P        6.8130  -10.7480  -26.6710 O.2   401  KPS401     -0.2224
      4  O2P        9.0170  -12.0160  -26.2280 O.3   401  KPS401     -0.1145
      5  O5'        7.8070  -10.8960  -24.4240 O.3   401  KPS401     -0.2674
      6  C5'        9.0590  -10.8020  -23.7560 C.3   401  KPS401      0.1892
      7  C4'        9.0580   -9.6340  -22.7720 C.3   401  KPS401      0.2146
      8  O4'        7.7270   -9.1520  -22.5860 O.3   401  KPS401     -0.2176
      9  C3'        9.6640  -10.0130  -21.4190 C.3   401  KPS401      0.2147
     10  O3'       10.8670  -10.7550  -21.6510 O.3   401  KPS401     -0.2176
     11  C2'       10.0390   -8.7900  -20.5780 C.3   401  KPS401      0.1860
     12  O2'       10.7190   -7.8190  -21.3760 O.3   401  KPS401     -0.2203
     13  C1'        8.9310   -8.1210  -19.7360 C.3   401  KPS401      0.0554
     14  C5         9.4410   -6.7520  -19.2270 C.3   401  KPS401      0.1470
     15  C6         9.8950   -7.0020  -17.8620 C.3   401  KPS401      0.1580
     16  N1         9.4560   -6.2910  -16.8260 N.2   401  KPS401     -0.1746
     17  C2         8.5750   -5.2900  -16.9570 C.1   401  KPS401      0.3062
     18  O2         8.2120   -4.6520  -15.9500 O.2   401  KPS401     -0.1882
     19  N3         8.0910   -4.9630  -18.1530 N.2   401  KPS401     -0.2468
     20  C4         8.4600   -5.6180  -19.2600 C.1   401  KPS401      0.1935
     21  O4         7.9640   -5.2290  -20.3310 O.2   401  KPS401     -0.2133
@<TRIPOS>BOND
     1     3     2    2
     2     4     2    1
     3     2     1    1
     4     2     5    1
     5     5     6    1
     6     6     7    1
     7     7     8    1
     8     7     9    1
     9    10     9    1
    10     9    11    1
    11    12    11    1
    12    11    13    1
    13    21    20    2
    14    13    14    1
    15    20    14    1
    16    20    19    2
    17    14    15    1
    18    19    17    2
    19    15    16    1
    20    17    16    2
    21    17    18    2
