@<TRIPOS>MOLECULE
4gim_PSU_A_1.pdb
 21 22 0 0 0
SMALL
GASTEIGER

@<TRIPOS>ATOM
      1  N1         6.6400   -7.5980  -18.8260 N.2   400  PSU400     -0.1473
      2  C2         6.5560   -6.3380  -18.3380 C.1   400  PSU400      0.3110
      3  N3         7.2490   -5.3170  -18.9030 N.2   400  PSU400     -0.2425
      4  C4         8.0680   -5.5710  -19.9520 C.1   400  PSU400      0.2163
      5  C5         8.1680   -6.8700  -20.4540 C.2   400  PSU400      0.1226
      6  C6         7.4450   -7.8850  -19.8600 C.2   400  PSU400      0.1243
      7  O2         5.8100   -6.1240  -17.3500 O.2   400  PSU400     -0.1878
      8  O4         8.7060   -4.6470  -20.4920 O.2   400  PSU400     -0.2087
      9  C1'        9.0940   -7.2080  -21.6170 C.3   400  PSU400      0.1838
     10  C2'       10.2900   -8.0500  -21.1320 C.3   400  PSU400      0.2165
     11  O2'       11.4540   -7.6300  -21.8240 O.3   400  PSU400     -0.2173
     12  C3'        9.8790   -9.4450  -21.5920 C.3   400  PSU400      0.2143
     13  C4'        9.1890   -9.1490  -22.9080 C.3   400  PSU400      0.1786
     14  O3'       10.9630  -10.3410  -21.7340 O.3   400  PSU400     -0.2176
     15  O4'        8.4500   -7.9410  -22.6450 O.3   400  PSU400     -0.3455
     16  C5'        8.2560  -10.2080  -23.4140 C.3   400  PSU400      0.1858
     17  O5'        7.8220   -9.8990  -24.7220 O.3   400  PSU400     -0.2675
     18  P          7.5410  -11.0700  -25.7640 P.3   400  PSU400      0.5327
     19  OP1        6.6490  -10.3530  -26.7530 O.2   400  PSU400     -0.2224
     20  OP2        6.7000  -12.1440  -25.0780 O.3   400  PSU400     -0.1145
     21  OP3        8.8160  -11.4720  -26.4270 O.3   400  PSU400     -0.1145
@<TRIPOS>BOND
     1    19    18    2
     2    21    18    1
     3    18    20    1
     4    18    17    1
     5    17    16    1
     6    16    13    1
     7    13    15    1
     8    13    12    1
     9    15     9    1
    10    11    10    1
    11    14    12    1
    12     9    10    1
    13     9     5    1
    14    12    10    1
    15     8     4    2
    16     5     4    1
    17     5     6    2
    18     4     3    2
    19     6     1    1
    20     3     2    2
    21     1     2    2
    22     2     7    2
