@<TRIPOS>MOLECULE
4giv_4GI_A_1.pdb
 21 22 0 0 0
SMALL
GASTEIGER

@<TRIPOS>ATOM
      1  C        -11.6980    7.5740   44.1840 C.ar  201  4GI201      0.0014
      2  N         -8.7600   11.5930   43.9180 N.3   201  4GI201     -0.1461
      3  O         -8.1540    9.5290   45.0790 O.2   201  4GI201     -0.1528
      4  S         -9.2120   10.4700   44.8750 S.O2  201  4GI201      0.0637
      5  C1       -12.6950    8.2160   43.4600 C.ar  201  4GI201      0.0001
      6  O1        -9.6300   10.9900   46.1200 O.2   201  4GI201     -0.1528
      7  C2       -12.5900    9.5720   43.1650 C.ar  201  4GI201      0.0014
      8  O2        -8.4490   14.6530   42.4970 O.2   201  4GI201     -0.2485
      9  C3       -11.4830   10.2840   43.6080 C.ar  201  4GI201      0.0199
     10  O3       -10.5090   13.8290   42.1900 O.3   201  4GI201     -0.4475
     11  C4       -10.4780    9.6540   44.3380 C.ar  201  4GI201      0.1222
     12  C5       -10.5950    8.2940   44.6250 C.ar  201  4GI201      0.0199
     13  C6        -7.7690   11.2650   42.9000 C.3   201  4GI201      0.0964
     14  C7        -6.4520   11.9680   43.2240 C.3   201  4GI201      0.0192
     15  C8        -6.5940   13.4140   43.6880 C.3   201  4GI201      0.0035
     16  C9        -7.7070   13.5830   44.7170 C.3   201  4GI201      0.0292
     17  C10       -9.0030   13.0270   44.1570 C.3   201  4GI201      0.1778
     18  C11       -9.2760   13.8710   42.9300 C.2   201  4GI201      0.3332
     19  C12      -10.4680   14.2700   40.8450 C.3   201  4GI201      0.2085
     20  C13       -9.6610   13.2760   40.0180 C.3   201  4GI201      0.0474
     21  C14       -8.4690   13.9450   39.3450 C.3   201  4GI201      0.0040
@<TRIPOS>BOND
     1    21    20    1
     2    20    19    1
     3    19    10    1
     4    10    18    1
     5     8    18    2
     6    13    14    1
     7    13     2    1
     8    18    17    1
     9     7     5   ar
    10     7     9   ar
    11    14    15    1
    12     5     1   ar
    13     9    11   ar
    14    15    16    1
    15     2    17    1
    16     2     4    1
    17    17    16    1
    18     1    12   ar
    19    11    12   ar
    20    11     4    1
    21     4     3    2
    22     4     6    2
