@<TRIPOS>MOLECULE
4gj5_0LR_A_1.pdb
 24 27 0 0 0
SMALL
GASTEIGER

@<TRIPOS>ATOM
      1  C1         4.7200   14.4060   57.0290 C.ar  1001  0LR1001    -0.0003
      2  C2         4.3900   15.4170   56.1050 C.ar  1001  0LR1001    -0.0042
      3  C3         4.9040   15.3760   54.7810 C.ar  1001  0LR1001    -0.0201
      4  C4         5.7290   14.2890   54.3920 C.ar  1001  0LR1001    -0.0042
      5  C5         6.0690   13.2850   55.3190 C.ar  1001  0LR1001    -0.0003
      6  C6         5.5620   13.3420   56.6290 C.ar  1001  0LR1001    -0.0000
      7  C7         4.4800   16.4120   53.7190 C.3   1001  0LR1001     0.0524
      8  C8         5.2230   17.7800   53.8130 C.3   1001  0LR1001     0.1370
      9  C9         2.4380   17.6120   52.6680 C.3   1001  0LR1001     0.0892
     10  C10        2.9130   16.5500   53.6930 C.3   1001  0LR1001     0.0256
     11  N11        3.2530   18.8410   52.8580 N.3   1001  0LR1001    -0.2155
     12  C12        4.7200   18.7000   52.6760 C.3   1001  0LR1001     0.1185
     13  O13        6.6230   17.5210   53.7000 O.3   1001  0LR1001    -0.3497
     14  C14        7.4250   18.0430   54.7670 C.3   1001  0LR1001     0.1686
     15  C15        8.8250   17.4910   54.4750 C.ar  1001  0LR1001     0.0073
     16  C16        9.0980   16.1440   54.7760 C.ar  1001  0LR1001    -0.0019
     17  C17       10.3600   15.5910   54.5320 C.ar  1001  0LR1001    -0.0002
     18  C18        9.8250   18.3020   53.9000 C.ar  1001  0LR1001    -0.0019
     19  C19       11.1040   17.7530   53.6620 C.ar  1001  0LR1001    -0.0002
     20  C20       11.3790   16.4000   54.0130 C.ar  1001  0LR1001    -0.0000
     21  C21       12.6590   15.8460   53.8110 C.ar  1001  0LR1001    -0.0000
     22  C22       13.6590   16.6200   53.2260 C.ar  1001  0LR1001    -0.0000
     23  C23       13.3830   17.9530   52.8530 C.ar  1001  0LR1001    -0.0000
     24  C24       12.1220   18.5300   53.0800 C.ar  1001  0LR1001    -0.0000
@<TRIPOS>BOND
     1     9    11    1
     2     9    10    1
     3    12    11    1
     4    12     8    1
     5    23    24   ar
     6    23    22   ar
     7    24    19   ar
     8    22    21   ar
     9    19    18   ar
    10    19    20   ar
    11    10     7    1
    12    13     8    1
    13    13    14    1
    14     7     8    1
    15     7     3    1
    16    21    20   ar
    17    18    15   ar
    18    20    17   ar
    19     4     3   ar
    20     4     5   ar
    21    15    14    1
    22    15    16   ar
    23    17    16   ar
    24     3     2   ar
    25     5     6   ar
    26     2     1   ar
    27     6     1   ar
