@<TRIPOS>MOLECULE
4gj6_0LS_A_1.pdb
 27 30 0 0 0
SMALL
GASTEIGER

@<TRIPOS>ATOM
      1  N1         3.8900   23.2440   48.7920 N.3   1001  0LS1001    -0.2180
      2  C2         5.3020   23.3120   48.3960 C.3   1001  0LS1001     0.0904
      3  C3         5.4910   22.2620   47.2690 C.3   1001  0LS1001     0.0392
      4  C4         4.1210   21.5860   47.1110 C.3   1001  0LS1001     0.0248
      5  C5         3.4380   21.8970   48.4540 C.3   1001  0LS1001     0.0891
      6  C6         3.3420   21.9990   45.8370 C.3   1001  0LS1001     0.0279
      7  C7         1.9410   21.3730   45.8110 C.ar  1001  0LS1001    -0.0221
      8  C8         6.6050   21.2170   47.5340 C.3   1001  0LS1001     0.0970
      9  N9         7.9430   21.7950   47.7510 N.pl3 1001  0LS1001    -0.2868
     10  C10        8.5850   22.5190   46.7880 C.ar  1001  0LS1001     0.0516
     11  C11        8.5820   21.4790   48.9120 C.ar  1001  0LS1001     0.0516
     12  C12        8.2110   22.3530   45.4330 C.ar  1001  0LS1001     0.0157
     13  C13        8.9260   22.9800   44.4130 C.ar  1001  0LS1001     0.0127
     14  C14       10.0250   23.7850   44.7510 C.ar  1001  0LS1001     0.0578
     15  C15       10.4280   23.9500   46.0800 C.ar  1001  0LS1001     0.0127
     16  C16        9.7290   23.2940   47.0850 C.ar  1001  0LS1001     0.0157
     17  C17        9.4390   20.3550   49.0010 C.ar  1001  0LS1001     0.0148
     18  C18       10.0580   20.0050   50.2150 C.ar  1001  0LS1001     0.0013
     19  C19        9.7930   20.7610   51.3660 C.ar  1001  0LS1001     0.0001
     20  C20        8.9190   21.8550   51.3010 C.ar  1001  0LS1001     0.0013
     21  C21        8.3310   22.2140   50.0780 C.ar  1001  0LS1001     0.0148
     22  C22        0.8140   22.1230   46.2500 C.ar  1001  0LS1001    -0.0043
     23  C23       -0.4820   21.5610   46.2380 C.ar  1001  0LS1001    -0.0003
     24  C24       -0.6460   20.2410   45.7820 C.ar  1001  0LS1001    -0.0000
     25  C25        0.4740   19.4850   45.3480 C.ar  1001  0LS1001    -0.0003
     26  C26        1.7700   20.0470   45.3540 C.ar  1001  0LS1001    -0.0043
     27 CL2        10.9830   24.5390   43.5050 Cl    1001  0LS1001    -0.0822
@<TRIPOS>BOND
     1    27    14    1
     2    13    14   ar
     3    13    12   ar
     4    14    15   ar
     5    25    26   ar
     6    25    24   ar
     7    26     7   ar
     8    12    10   ar
     9    24    23   ar
    10     7     6    1
    11     7    22   ar
    12     6     4    1
    13    15    16   ar
    14    23    22   ar
    15    10    16   ar
    16    10     9    1
    17     4     3    1
    18     4     5    1
    19     3     8    1
    20     3     2    1
    21     8     9    1
    22     9    11    1
    23     2     1    1
    24     5     1    1
    25    11    17   ar
    26    11    21   ar
    27    17    18   ar
    28    21    20   ar
    29    18    19   ar
    30    20    19   ar
