@<TRIPOS>MOLECULE
4gj7_0LT_A_1.pdb
 33 35 0 0 0
SMALL
GASTEIGER

@<TRIPOS>ATOM
      1  C1        70.3160    8.9600   47.5710 C.2   1001  0LT1001     0.2491
      2  N2        68.9550    8.7690   47.5330 N.am  1001  0LT1001    -0.2777
      3  C3        68.4000    7.4850   47.0440 C.3   1001  0LT1001     0.0951
      4  C4        71.0440   10.1920   48.0470 C.ar  1001  0LT1001     0.0568
      5  C5        68.8940    6.9310   45.6690 C.3   1001  0LT1001     0.0390
      6  C6        71.1030   11.2980   47.1810 C.ar  1001  0LT1001     0.0446
      7  C7        71.8670   12.4330   47.5420 C.ar  1001  0LT1001     0.1723
      8  N8        67.0950    7.1180   44.0750 N.3   1001  0LT1001    -0.2180
      9  C9        68.3450    5.5090   45.3740 C.3   1001  0LT1001     0.0248
     10  O10       71.1400    8.1810   47.0870 O.2   1001  0LT1001    -0.2699
     11  C11       72.6070   12.4150   48.7570 C.ar  1001  0LT1001     0.1724
     12  C12       71.7880   10.1600   49.2400 C.ar  1001  0LT1001     0.0078
     13  C13       69.2440    4.5720   44.4970 C.3   1001  0LT1001     0.0279
     14  C14       68.0500    9.7260   48.1890 C.3   1001  0LT1001     0.0757
     15  C15       72.5510   11.2770   49.6090 C.ar  1001  0LT1001     0.0402
     16  C16       68.3910    7.7410   44.4460 C.3   1001  0LT1001     0.0904
     17  C17       66.9180    5.8670   44.8560 C.3   1001  0LT1001     0.0891
     18  O18       71.9540   13.5640   46.7150 O.3   1001  0LT1001    -0.4723
     19  C19       68.5020    3.2660   44.1690 C.ar  1001  0LT1001    -0.0221
     20  O20       73.4070   13.5280   49.0740 O.3   1001  0LT1001    -0.4684
     21  C21       69.7910   14.2850   45.6260 C.3   1001  0LT1001     0.0794
     22  O22       69.7510   15.4380   43.4550 O.3   1001  0LT1001    -0.3510
     23  C23       71.2350   13.7310   45.4580 C.3   1001  0LT1001     0.2082
     24  C24       69.0410   14.4960   44.2840 C.3   1001  0LT1001     0.1461
     25  C25       67.1020   10.6540   47.3820 C.3   1001  0LT1001     0.0215
     26  C26       67.6170    9.2560   49.6150 C.3   1001  0LT1001     0.0215
     27  C27       67.6530    3.1640   43.0380 C.ar  1001  0LT1001    -0.0043
     28  C28       68.6420    2.1550   45.0300 C.ar  1001  0LT1001    -0.0043
     29  C29       74.0150   13.6940   50.3720 C.3   1001  0LT1001     0.2526
     30  C30       69.8690   15.0360   42.0820 C.3   1001  0LT1001     0.1741
     31  C31       66.9290    1.9850   42.7900 C.ar  1001  0LT1001    -0.0003
     32  C32       67.9330    0.9670   44.7680 C.ar  1001  0LT1001    -0.0003
     33  C33       67.0950    0.8750   43.6380 C.ar  1001  0LT1001    -0.0000
@<TRIPOS>BOND
     1    30    22    1
     2    31    27   ar
     3    31    33   ar
     4    27    19   ar
     5    22    24    1
     6    33    32   ar
     7     8    16    1
     8     8    17    1
     9    19    13    1
    10    19    28   ar
    11    24    21    1
    12    16     5    1
    13    13     9    1
    14    32    28   ar
    15    17     9    1
    16     9     5    1
    17    23    21    1
    18    23    18    1
    19     5     3    1
    20    18     7    1
    21     3     2    1
    22    10     1    2
    23     6     7   ar
    24     6     4   ar
    25    25    14    1
    26     2     1   am
    27     2    14    1
    28     7    11   ar
    29     1     4    1
    30     4    12   ar
    31    14    26    1
    32    11    20    1
    33    11    15   ar
    34    20    29    1
    35    12    15   ar
