@<TRIPOS>MOLECULE
4gj8_0LW_B_1.pdb
 23 26 0 0 0
SMALL
GASTEIGER

@<TRIPOS>ATOM
      1  C1        26.7370    8.9400   33.9460 C.ar  1001  0LW1001    -0.0123
      2  C2        25.4100    8.8190   34.7390 C.3   1001  0LW1001     0.0481
      3  C3        27.6730    9.9730   34.1950 C.ar  1001  0LW1001     0.0258
      4  C4        27.0070    8.0340   32.8880 C.ar  1001  0LW1001    -0.0035
      5  C5        25.5130    9.2650   36.2140 C.ar  1001  0LW1001    -0.0123
      6  C6        24.3640    9.7700   34.0680 C.3   1001  0LW1001     0.0431
      7  S7        27.4030   11.1800   35.4610 S.3   1001  0LW1001    -0.0875
      8  C8        28.8260   10.1120   33.3970 C.ar  1001  0LW1001     0.0062
      9  C9        28.1610    8.1730   32.0940 C.ar  1001  0LW1001    -0.0003
     10  C10       26.3540   10.3340   36.6170 C.ar  1001  0LW1001     0.0258
     11  C11       24.6920    8.6570   37.1920 C.ar  1001  0LW1001    -0.0035
     12  C12       23.7260    9.3290   32.7210 C.3   1001  0LW1001     0.1685
     13  C13       29.0760    9.2110   32.3490 C.ar  1001  0LW1001     0.0005
     14  C14       26.3980   10.7460   37.9680 C.ar  1001  0LW1001     0.0062
     15  C15       24.7400    9.0690   38.5410 C.ar  1001  0LW1001    -0.0003
     16  C16       23.1290   10.5630   31.9940 C.3   1001  0LW1001     0.1054
     17  O17       22.7390    8.3000   32.9040 O.3   1001  0LW1001    -0.2216
     18  C18       25.5880   10.1170   38.9280 C.ar  1001  0LW1001     0.0005
     19  N19       22.5650   10.2150   30.6690 N.3   1001  0LW1001    -0.2706
     20  C20       23.5340    9.8010   29.6070 C.3   1001  0LW1001     0.0722
     21  C21       21.6240   11.1880   30.0740 C.3   1001  0LW1001     0.0722
     22  C22       23.1020   10.5090   28.3020 C.3   1001  0LW1001     0.0188
     23  C23       21.6120   10.8210   28.5700 C.3   1001  0LW1001     0.0188
@<TRIPOS>BOND
     1    22    23    1
     2    22    20    1
     3    23    21    1
     4    20    19    1
     5    21    19    1
     6    19    16    1
     7    16    12    1
     8     9    13   ar
     9     9     4   ar
    10    13     8   ar
    11    12    17    1
    12    12     6    1
    13     4     1   ar
    14     8     3   ar
    15     1     3   ar
    16     1     2    1
    17     6     2    1
    18     3     7    1
    19     2     5    1
    20     7    10    1
    21     5    10   ar
    22     5    11   ar
    23    10    14   ar
    24    11    15   ar
    25    14    18   ar
    26    15    18   ar
