@<TRIPOS>MOLECULE
4gj8_0LU_A_1.pdb
 23 26 0 0 0
SMALL
GASTEIGER

@<TRIPOS>ATOM
      1  C1         9.1300   21.8530   48.4480 C.ar  1001  0LU1001    -0.0123
      2  C2        10.3500   22.2870   47.5950 C.3   1001  0LU1001     0.0481
      3  C3         8.7730   20.4970   48.6270 C.ar  1001  0LU1001     0.0258
      4  C4         8.3100   22.8260   49.0560 C.ar  1001  0LU1001    -0.0035
      5  C5        11.5440   21.3230   47.6850 C.ar  1001  0LU1001    -0.0123
      6  C6         9.9010   22.3930   46.1170 C.3   1001  0LU1001     0.0431
      7  S7         9.7280   19.2100   47.8990 S.3   1001  0LU1001    -0.0875
      8  C8         7.6330   20.1230   49.3730 C.ar  1001  0LU1001     0.0062
      9  C9         7.1680   22.4600   49.7910 C.ar  1001  0LU1001    -0.0003
     10  C10       11.3500   19.9280   47.8210 C.ar  1001  0LU1001     0.0258
     11  C11       12.8450   21.8440   47.6000 C.ar  1001  0LU1001    -0.0035
     12  C12       10.7110   23.4420   45.3220 C.3   1001  0LU1001     0.1685
     13  C13        6.8140   21.1090   49.9440 C.ar  1001  0LU1001     0.0005
     14  C14       12.4480   19.0650   47.8860 C.ar  1001  0LU1001     0.0062
     15  C15       13.9430   20.9830   47.6840 C.ar  1001  0LU1001    -0.0003
     16  C16       11.5810   22.7280   44.2490 C.3   1001  0LU1001     0.1054
     17  O17        9.7650   24.3330   44.7120 O.3   1001  0LU1001    -0.2216
     18  C18       13.7520   19.5960   47.8230 C.ar  1001  0LU1001     0.0005
     19  N19       11.8170   23.5480   43.0350 N.3   1001  0LU1001    -0.2706
     20  C20       13.1790   24.0560   42.7780 C.3   1001  0LU1001     0.0722
     21  C21       11.2810   23.1100   41.7390 C.3   1001  0LU1001     0.0722
     22  C22       13.1270   24.5670   41.3210 C.3   1001  0LU1001     0.0188
     23  C23       11.6570   24.3390   40.8910 C.3   1001  0LU1001     0.0188
@<TRIPOS>BOND
     1    23    22    1
     2    23    21    1
     3    22    20    1
     4    21    19    1
     5    20    19    1
     6    19    16    1
     7    16    12    1
     8    17    12    1
     9    12     6    1
    10     6     2    1
    11     2     5    1
    12     2     1    1
    13    11    15   ar
    14    11     5   ar
    15    15    18   ar
    16     5    10   ar
    17    10    14   ar
    18    10     7    1
    19    18    14   ar
    20     7     3    1
    21     1     3   ar
    22     1     4   ar
    23     3     8   ar
    24     4     9   ar
    25     8    13   ar
    26     9    13   ar
