@<TRIPOS>MOLECULE
4gj9_0M2_A_1.pdb
 22 25 0 0 0
SMALL
GASTEIGER

@<TRIPOS>ATOM
      1  C1        11.7230   20.4640   54.3390 C.2   1001  0M21001    -0.0066
      2  C2        12.9260   20.5830   53.7260 C.2   1001  0M21001    -0.0066
      3  C3        10.9930   19.2150   54.8280 C.2   1001  0M21001     0.0228
      4  C4        11.0690   21.8160   54.4290 C.3   1001  0M21001     0.0993
      5  C5        13.9760   19.4860   53.5720 C.2   1001  0M21001     0.0228
      6  C6        13.2160   22.0400   53.4120 C.3   1001  0M21001     0.0993
      7  C7        11.3550   17.8900   54.4340 C.2   1001  0M21001     0.1126
      8  C8         9.8430   19.3780   55.6340 C.2   1001  0M21001     0.0016
      9  N9        12.1670   22.7820   54.1690 N.3   1001  0M21001    -0.2630
     10  C10       13.6660   18.0950   53.6390 C.2   1001  0M21001     0.1126
     11  C11       15.3450   19.8670   53.6310 C.2   1001  0M21001     0.0016
     12  N12       12.4030   17.5900   53.6080 N.2   1001  0M21001    -0.4099
     13  C13       10.5770   16.7750   54.8380 C.3   1001  0M21001     0.0849
     14  C14        9.0930   18.2630   56.0400 C.2   1001  0M21001    -0.0041
     15  C15       11.7920   24.1510   53.7070 C.3   1001  0M21001     0.1058
     16  C16       14.7000   17.1430   53.6160 C.3   1001  0M21001     0.0849
     17  C17       16.3730   18.9090   53.6340 C.2   1001  0M21001    -0.0041
     18  C18        9.4860   16.9620   55.6880 C.2   1001  0M21001    -0.0187
     19  C19       11.2640   25.1320   54.7780 C.3   1001  0M21001     0.1680
     20  C20       16.0450   17.5430   53.6140 C.2   1001  0M21001    -0.0187
     21  C21       12.2160   25.2150   55.9670 C.3   1001  0M21001     0.0370
     22  O22       11.1980   26.4280   54.1710 O.3   1001  0M21001    -0.2217
@<TRIPOS>BOND
     1     6     2    1
     2     6     9    1
     3     5    11    2
     4     5    10    1
     5     5     2    1
     6    12    10    2
     7    12     7    2
     8    20    16    1
     9    20    17    2
    10    16    10    1
    11    11    17    1
    12    15     9    1
    13    15    19    1
    14     2     1    2
    15     9     4    1
    16    22    19    1
    17     1     4    1
    18     1     3    1
    19     7     3    1
    20     7    13    1
    21    19    21    1
    22     3     8    2
    23    13    18    1
    24     8    14    1
    25    18    14    2
