@<TRIPOS>MOLECULE
4gja_0M3_A_1.pdb
 34 37 0 0 0
SMALL
GASTEIGER

@<TRIPOS>ATOM
      1  C1        34.7300  104.7370   12.5640 C.3   1001  0M31001     0.0310
      2  C2        35.3840  105.6830   11.5570 C.ar  1001  0M31001    -0.0218
      3  C3        35.5120  107.0540   11.8570 C.ar  1001  0M31001    -0.0029
      4  C4        36.1280  107.9190   10.9210 C.ar  1001  0M31001     0.0196
      5  C5        36.6280  107.3860    9.7070 C.ar  1001  0M31001     0.1235
      6  C6        36.4230  106.0560    9.3700 C.ar  1001  0M31001     0.0196
      7  C7        35.7900  105.2200   10.2920 C.ar  1001  0M31001    -0.0029
      8  S8        37.3540  108.3720    8.4270 S.O2  1001  0M31001     0.0768
      9  O9        37.7880  107.4810    7.3450 O.2   1001  0M31001    -0.1516
     10  O10       36.4240  109.4520    8.1170 O.2   1001  0M31001    -0.1516
     11  N11       38.6350  109.0120    9.2260 N.3   1001  0M31001    -0.0778
     12  C12       40.0220  108.6900    8.9140 C.3   1001  0M31001     0.1155
     13  C13       40.8810  109.9810    8.9260 C.3   1001  0M31001     0.1079
     14  N14       42.2920  109.6060    8.6870 N.3   1001  0M31001    -0.2160
     15  C15       42.8670  108.6870    9.7000 C.3   1001  0M31001     0.0979
     16  C16       42.0720  107.3410    9.7220 C.3   1001  0M31001     0.0970
     17  C17       40.5550  107.6410    9.9330 C.3   1001  0M31001     0.0314
     18  C18       42.6830  106.4140   10.7580 C.2   1001  0M31001     0.2424
     19  O19       42.0540  106.1440   11.7700 O.2   1001  0M31001    -0.2733
     20  N20       43.9270  105.9210   10.5060 N.am  1001  0M31001    -0.2047
     21  C21       44.6660  105.0450   11.4260 C.3   1001  0M31001     0.1238
     22  C22       45.8450  105.8360   12.0690 C.3   1001  0M31001     0.0662
     23  C23       45.4700  107.2540   12.5160 C.ar  1001  0M31001    -0.0167
     24  C24       46.0100  108.3550   11.8040 C.ar  1001  0M31001    -0.0039
     25  C25       45.6340  109.6670   12.1260 C.ar  1001  0M31001    -0.0003
     26  C26       44.6770  109.8640   13.1390 C.ar  1001  0M31001    -0.0000
     27  C27       44.1450  108.7710   13.8720 C.ar  1001  0M31001    -0.0003
     28  C28       44.5190  107.4630   13.5390 C.ar  1001  0M31001    -0.0039
     29  C29       46.7530  105.0630   13.0390 C.ar  1001  0M31001    -0.0167
     30  C30       47.8680  104.3430   12.5540 C.ar  1001  0M31001    -0.0039
     31  C31       48.6960  103.6210   13.4370 C.ar  1001  0M31001    -0.0003
     32  C32       48.4160  103.6130   14.8180 C.ar  1001  0M31001    -0.0000
     33  C33       47.3220  104.3420   15.3170 C.ar  1001  0M31001    -0.0003
     34  C34       46.4850  105.0490   14.4250 C.ar  1001  0M31001    -0.0039
@<TRIPOS>BOND
     1     9     8    2
     2    10     8    2
     3     8    11    1
     4     8     5    1
     5    14    13    1
     6    14    15    1
     7    12    13    1
     8    12    11    1
     9    12    17    1
    10     6     5   ar
    11     6     7   ar
    12    15    16    1
    13     5     4   ar
    14    16    17    1
    15    16    18    1
    16     7     2   ar
    17    20    18   am
    18    20    21    1
    19    18    19    2
    20     4     3   ar
    21    21    22    1
    22     2     3   ar
    23     2     1    1
    24    24    25   ar
    25    24    23   ar
    26    22    23    1
    27    22    29    1
    28    25    26   ar
    29    23    28   ar
    30    30    29   ar
    31    30    31   ar
    32    29    34   ar
    33    26    27   ar
    34    31    32   ar
    35    28    27   ar
    36    34    33   ar
    37    32    33   ar
