@<TRIPOS>MOLECULE
4gjb_0ME_A_1.pdb
 24 27 0 0 0
SMALL
GASTEIGER

@<TRIPOS>ATOM
      1  C1         9.1400   22.3740   47.7350 C.ar  1001  0ME1001     0.0179
      2  C2         9.4200   20.9800   47.8780 C.ar  1001  0ME1001     0.1416
      3  O3        10.5090   20.3730   47.2350 O.3   1001  0ME1001    -0.4541
      4  C4         9.9960   23.2340   46.7910 C.3   1001  0ME1001     0.0722
      5  C5         7.2860   22.1470   49.2660 C.ar  1001  0ME1001    -0.0001
      6  C6         7.5350   20.7700   49.3760 C.ar  1001  0ME1001     0.0031
      7  C7         8.6290   20.1850   48.7110 C.ar  1001  0ME1001     0.0372
      8  C8         8.0770   22.9650   48.4400 C.ar  1001  0ME1001    -0.0009
      9  C9        11.4050   22.6210   46.7270 C.ar  1001  0ME1001     0.0179
     10  C10       11.5910   21.2200   46.9560 C.ar  1001  0ME1001     0.1416
     11  C11       12.8760   20.6570   46.9120 C.ar  1001  0ME1001     0.0372
     12  C12       13.9760   21.4940   46.6500 C.ar  1001  0ME1001     0.0031
     13  C13       13.7980   22.8750   46.4130 C.ar  1001  0ME1001    -0.0001
     14  C14       12.5160   23.4470   46.4630 C.ar  1001  0ME1001    -0.0009
     15  C15        9.3610   23.1950   45.3620 C.3   1001  0ME1001     0.1240
     16  N16        7.9050   23.4540   45.3530 N.am  1001  0ME1001    -0.2047
     17  C17        6.9120   22.5350   45.1120 C.2   1001  0ME1001     0.2423
     18  O18        7.1360   21.3570   44.8450 O.2   1001  0ME1001    -0.2733
     19  C19        5.4690   23.0120   45.1660 C.3   1001  0ME1001     0.0956
     20  C20        4.4500   21.9050   44.7630 C.3   1001  0ME1001     0.0121
     21  C21        2.9520   22.3190   44.9210 C.3   1001  0ME1001     0.0193
     22  C22        2.6540   22.8670   46.3450 C.3   1001  0ME1001     0.0887
     23  N23        3.6410   23.9100   46.6820 N.3   1001  0ME1001    -0.2175
     24  C24        5.0680   23.5070   46.5820 C.3   1001  0ME1001     0.0978
@<TRIPOS>BOND
     1    20    21    1
     2    20    19    1
     3    18    17    2
     4    21    22    1
     5    17    19    1
     6    17    16   am
     7    19    24    1
     8    16    15    1
     9    15     4    1
    10    22    23    1
    11    13    14   ar
    12    13    12   ar
    13    14     9   ar
    14    24    23    1
    15    12    11   ar
    16     9     4    1
    17     9    10   ar
    18     4     1    1
    19    11    10   ar
    20    10     3    1
    21     3     2    1
    22     1     2   ar
    23     1     8   ar
    24     2     7   ar
    25     8     5   ar
    26     7     6   ar
    27     5     6   ar
