@<TRIPOS>MOLECULE
4gjc_0MJ_A_1.pdb
 35 39 0 0 0
SMALL
GASTEIGER

@<TRIPOS>ATOM
      1  C1        71.0440   10.9620   47.4870 C.3   1001  0MJ1001     0.0722
      2  O2        71.0740    9.9860   50.2050 O.3   1001  0MJ1001    -0.4541
      3  C3        69.7930   10.3490   48.1470 C.ar  1001  0MJ1001     0.0179
      4  C4        71.9260   11.6100   48.5760 C.ar  1001  0MJ1001     0.0179
      5  C5        69.8870    9.8560   49.4720 C.ar  1001  0MJ1001     0.1416
      6  C6        71.9090   11.0780   49.8940 C.ar  1001  0MJ1001     0.1416
      7  C7        71.8440    9.8140   46.7820 C.3   1001  0MJ1001     0.1240
      8  C8        72.7590   12.7190   48.3100 C.ar  1001  0MJ1001    -0.0009
      9  C9        68.5810   10.2640   47.4280 C.ar  1001  0MJ1001    -0.0009
     10  C10       68.7720    9.2870   50.0940 C.ar  1001  0MJ1001     0.0372
     11  C11       72.7020   11.6650   50.9170 C.ar  1001  0MJ1001     0.0372
     12  C12       67.4730    9.6570   48.0220 C.ar  1001  0MJ1001    -0.0001
     13  C13       73.5540   13.2890   49.3460 C.ar  1001  0MJ1001    -0.0001
     14  C14       67.5790    9.1940   49.3570 C.ar  1001  0MJ1001     0.0031
     15  C15       73.5390   12.7620   50.6540 C.ar  1001  0MJ1001     0.0031
     16  N16       71.0070    8.9470   45.9190 N.am  1001  0MJ1001    -0.2047
     17  C17       70.6180    7.6630   46.2050 C.2   1001  0MJ1001     0.2424
     18  C18       69.6990    6.9480   45.2180 C.3   1001  0MJ1001     0.0970
     19  C19       69.3530    5.4790   45.6260 C.3   1001  0MJ1001     0.0314
     20  C20       67.1440    5.6380   44.3160 C.3   1001  0MJ1001     0.1079
     21  N21       67.5050    7.0250   43.9390 N.3   1001  0MJ1001    -0.2160
     22  C22       68.4520    4.8290   44.5390 C.3   1001  0MJ1001     0.1155
     23  C23       68.3800    7.7430   44.9100 C.3   1001  0MJ1001     0.0979
     24  O24       70.9690    7.0630   47.2170 O.2   1001  0MJ1001    -0.2733
     25  N25       68.1680    3.4400   44.8630 N.3   1001  0MJ1001    -0.0778
     26  S26       68.7470    2.1630   44.0140 S.O2  1001  0MJ1001     0.0768
     27  O27       67.6210    1.3080   43.6360 O.2   1001  0MJ1001    -0.1516
     28  O28       69.6140    2.6260   42.9410 O.2   1001  0MJ1001    -0.1516
     29  C29       69.7360    1.3900   45.2780 C.ar  1001  0MJ1001     0.1235
     30  C30       69.1400    0.9430   46.4760 C.ar  1001  0MJ1001     0.0196
     31  C31       71.3040    0.1210   47.2610 C.ar  1001  0MJ1001    -0.0218
     32  C32       71.8940    0.5550   46.0570 C.ar  1001  0MJ1001    -0.0029
     33  C33       69.9210    0.3110   47.4670 C.ar  1001  0MJ1001    -0.0029
     34  C34       71.1190    1.1910   45.0730 C.ar  1001  0MJ1001     0.0196
     35  C35       72.1550   -0.5640   48.3420 C.3   1001  0MJ1001     0.0310
@<TRIPOS>BOND
     1    28    26    2
     2    27    26    2
     3    21    20    1
     4    21    23    1
     5    26    25    1
     6    26    29    1
     7    20    22    1
     8    22    25    1
     9    22    19    1
    10    23    18    1
    11    34    29   ar
    12    34    32   ar
    13    18    19    1
    14    18    17    1
    15    29    30   ar
    16    16    17   am
    17    16     7    1
    18    32    31   ar
    19    17    24    2
    20    30    33   ar
    21     7     1    1
    22    31    33   ar
    23    31    35    1
    24     9    12   ar
    25     9     3   ar
    26     1     3    1
    27     1     4    1
    28    12    14   ar
    29     3     5   ar
    30     8     4   ar
    31     8    13   ar
    32     4     6   ar
    33    13    15   ar
    34    14    10   ar
    35     5    10   ar
    36     5     2    1
    37     6     2    1
    38     6    11   ar
    39    15    11   ar
