@<TRIPOS>MOLECULE
4gjd_0N0_A_1.pdb
 41 45 0 0 0
SMALL
GASTEIGER

@<TRIPOS>ATOM
      1  C1        40.9910  110.2090    9.0280 C.3   1001  0N01001     0.1079
      2  C2        40.1830  108.8930    9.0120 C.3   1001  0N01001     0.1155
      3  C3        40.7940  107.8390    9.9820 C.3   1001  0N01001     0.0314
      4  C4        42.3240  107.5820    9.7560 C.3   1001  0N01001     0.0970
      5  C5        43.0570  108.9440    9.6250 C.3   1001  0N01001     0.0979
      6  N6        42.3850  109.8820    8.6900 N.3   1001  0N01001    -0.2160
      7  N7        38.7770  109.1170    9.3200 N.3   1001  0N01001    -0.0778
      8  C8        43.0040  106.7930   10.8690 C.2   1001  0N01001     0.2424
      9  S9        37.5740  108.3940    8.4720 S.O2  1001  0N01001     0.0768
     10  C10       36.8920  107.3300    9.7180 C.ar  1001  0N01001     0.1235
     11  O11       36.6440  109.4570    8.1320 O.2   1001  0N01001    -0.1516
     12  O12       38.1040  107.5490    7.4050 O.2   1001  0N01001    -0.1516
     13  C13       36.4230  107.9050   10.9230 C.ar  1001  0N01001     0.0196
     14  C14       35.8610  107.0850   11.9250 C.ar  1001  0N01001    -0.0029
     15  C15       35.7670  105.6950   11.7310 C.ar  1001  0N01001    -0.0218
     16  C16       36.2190  105.1200   10.5170 C.ar  1001  0N01001    -0.0029
     17  C17       36.7990  105.9300    9.5180 C.ar  1001  0N01001     0.0196
     18  C18       35.1530  104.8210   12.8370 C.3   1001  0N01001     0.0310
     19  O19       42.5000  106.7900   11.9770 O.2   1001  0N01001    -0.2733
     20  N20       44.1710  106.1310   10.6000 N.am  1001  0N01001    -0.2047
     21  C21       44.9680  105.3800   11.5890 C.3   1001  0N01001     0.1233
     22  C22       46.2240  106.1460   12.1570 C.3   1001  0N01001     0.0635
     23  O23       45.2210  106.4820   14.8100 O.3   1001  0N01001    -0.4541
     24  C24       45.7300  107.5380   12.6790 C.ar  1001  0N01001     0.0173
     25  C25       45.1890  107.6050   13.9830 C.ar  1001  0N01001     0.1416
     26  C26       44.6520  108.8030   14.4890 C.ar  1001  0N01001     0.0372
     27  C27       44.6020  109.9520   13.6760 C.ar  1001  0N01001     0.0031
     28  C28       45.1210  109.9280   12.3730 C.ar  1001  0N01001    -0.0001
     29  C29       45.6760  108.7310   11.8950 C.ar  1001  0N01001    -0.0009
     30  C30       46.2040  105.5080   14.6370 C.ar  1001  0N01001     0.1416
     31  C31       46.7410  105.2750   13.3530 C.ar  1001  0N01001     0.0173
     32  C32       47.7370  104.2530   13.2560 C.ar  1001  0N01001    -0.0009
     33  C33       48.1680  103.5020   14.3850 C.ar  1001  0N01001    -0.0001
     34  C34       47.6400  103.7820   15.6570 C.ar  1001  0N01001     0.0031
     35  C35       46.6610  104.7930   15.7670 C.ar  1001  0N01001     0.0372
     36  C36       47.3030  106.2690   11.0210 C.3   1001  0N01001     0.0101
     37  C37       48.5920  107.1100   11.2640 C.3   1001  0N01001     0.0033
     38  C38       49.6330  106.9050   10.1290 C.3   1001  0N01001     0.0321
     39  C39       49.3140  107.7570    8.8730 C.3   1001  0N01001     0.1423
     40  O40       50.4640  107.7690    8.0010 O.3   1001  0N01001    -0.3511
     41  C41       50.1480  107.4150    6.6490 C.3   1001  0N01001     0.1741
@<TRIPOS>BOND
     1    41    40    1
     2    12     9    2
     3    40    39    1
     4    11     9    2
     5     9     7    1
     6     9    10    1
     7     6     1    1
     8     6     5    1
     9    39    38    1
    10     2     1    1
    11     2     7    1
    12     2     3    1
    13    17    10   ar
    14    17    16   ar
    15     5     4    1
    16    10    13   ar
    17     4     3    1
    18     4     8    1
    19    38    37    1
    20    16    15   ar
    21    20     8   am
    22    20    21    1
    23     8    19    2
    24    13    14   ar
    25    36    37    1
    26    36    22    1
    27    21    22    1
    28    15    14   ar
    29    15    18    1
    30    29    28   ar
    31    29    24   ar
    32    22    24    1
    33    22    31    1
    34    28    27   ar
    35    24    25   ar
    36    32    31   ar
    37    32    33   ar
    38    31    30   ar
    39    27    26   ar
    40    25    26   ar
    41    25    23    1
    42    33    34   ar
    43    30    23    1
    44    30    35   ar
    45    34    35   ar
