@<TRIPOS>MOLECULE
4gji_RNS_A_1.pdb
 11 10 0 0 0
SMALL
GASTEIGER

@<TRIPOS>ATOM
      1  C1       -42.2160    4.5270   13.4220 C.2   1001  RNS1001     0.2427
      2  C2       -42.4890    3.1890   12.7570 C.3   1001  RNS1001     0.2486
      3  C3       -43.5290    3.3210   11.6400 C.3   1001  RNS1001     0.2224
      4  C4       -43.2540    4.5040   10.6980 C.3   1001  RNS1001     0.2152
      5  C5       -44.1920    4.4600    9.4910 C.3   1001  RNS1001     0.1849
      6  C6       -43.9880    5.7070    8.6440 C.3   1001  RNS1001     0.0383
      7  O1       -41.1960    4.6680   14.1000 O.2   1001  RNS1001    -0.2854
      8  O2       -41.2810    2.6490   12.2480 O.3   1001  RNS1001    -0.2118
      9  O3       -43.5780    2.1070   10.8980 O.3   1001  RNS1001    -0.2171
     10  O4       -41.9070    4.4770   10.2510 O.3   1001  RNS1001    -0.2176
     11  O5       -45.5410    4.3970    9.9260 O.3   1001  RNS1001    -0.2203
@<TRIPOS>BOND
     1     6     5    1
     2     5    11    1
     3     5     4    1
     4    10     4    1
     5     4     3    1
     6     9     3    1
     7     3     2    1
     8     8     2    1
     9     2     1    1
    10     1     7    2
