@<TRIPOS>MOLECULE
4gji_RM4_B_1.pdb
 11 11 0 0 0
SMALL
GASTEIGER

@<TRIPOS>ATOM
      1  C1       -28.2480   19.4980   20.7110 C.3   501  RM4501      0.3023
      2  C2       -27.4830   19.9750   21.9500 C.3   501  RM4501      0.2434
      3  C3       -27.2340   21.4860   21.9120 C.3   501  RM4501      0.2198
      4  C4       -28.5270   22.2470   21.6060 C.3   501  RM4501      0.2118
      5  C5       -29.1810   21.6700   20.3480 C.3   501  RM4501      0.1509
      6  C6       -30.5000   22.3380   20.0100 C.3   501  RM4501      0.0350
      7  O1       -28.6130   18.1710   20.8780 O.3   501  RM4501     -0.1869
      8  O2       -28.2070   19.6340   23.1200 O.3   501  RM4501     -0.2148
      9  O3       -26.7220   21.9110   23.1650 O.3   501  RM4501     -0.2174
     10  O4       -28.2380   23.6260   21.4160 O.3   501  RM4501     -0.2177
     11  O5       -29.4480   20.2660   20.5390 O.3   501  RM4501     -0.3264
@<TRIPOS>BOND
     1     6     5    1
     2     5    11    1
     3     5     4    1
     4    11     1    1
     5     1     7    1
     6     1     2    1
     7    10     4    1
     8     4     3    1
     9     3     2    1
    10     3     9    1
    11     2     8    1
