@<TRIPOS>MOLECULE
4gji_RAM_B_1.pdb
 11 11 0 0 0
SMALL
GASTEIGER

@<TRIPOS>ATOM
      1  C1       -37.2240   22.0100   18.7210 C.3   503  RAM503      0.3023
      2  C2       -37.3850   22.8610   19.9880 C.3   503  RAM503      0.2434
      3  C3       -36.9060   22.0820   21.2160 C.3   503  RAM503      0.2198
      4  C4       -35.4750   21.5880   20.9940 C.3   503  RAM503      0.2118
      5  C5       -35.4090   20.7730   19.6970 C.3   503  RAM503      0.1509
      6  C6       -34.0040   20.3060   19.3740 C.3   503  RAM503      0.0350
      7  O1       -38.0320   20.8860   18.7960 O.3   503  RAM503     -0.1869
      8  O2       -36.6290   24.0570   19.8580 O.3   503  RAM503     -0.2148
      9  O3       -36.9550   22.9160   22.3660 O.3   503  RAM503     -0.2174
     10  O4       -35.0670   20.7830   22.0910 O.3   503  RAM503     -0.2177
     11  O5       -35.8600   21.5760   18.5810 O.3   503  RAM503     -0.3264
@<TRIPOS>BOND
     1    11     1    1
     2    11     5    1
     3     1     7    1
     4     1     2    1
     5     6     5    1
     6     5     4    1
     7     8     2    1
     8     2     3    1
     9     4     3    1
    10     4    10    1
    11     3     9    1
