@<TRIPOS>MOLECULE
4gjj_AOS_A_1.pdb
 12 11 0 0 0
SMALL
GASTEIGER

@<TRIPOS>ATOM
      1  C1       -41.8200    4.3090   13.4170 C.2   503  AOS503      0.2427
      2  O1       -40.7750    4.3930   14.0730 O.2   503  AOS503     -0.2854
      3  C2       -42.1200    3.0430   12.6180 C.3   503  AOS503      0.2486
      4  O2       -41.0800    2.8030   11.6890 O.3   503  AOS503     -0.2118
      5  C3       -43.4520    3.1680   11.8700 C.3   503  AOS503      0.2225
      6  O3       -43.5820    2.0820   10.9600 O.3   503  AOS503     -0.2171
      7  C4       -43.5560    4.4900   11.0990 C.3   503  AOS503      0.2179
      8  O4       -44.9070    4.7360   10.7360 O.3   503  AOS503     -0.2175
      9  C5       -42.6810    4.4610    9.8460 C.3   503  AOS503      0.2175
     10  O5       -41.3510    4.8320   10.1870 O.3   503  AOS503     -0.2175
     11  C6       -43.2350    5.4280    8.8110 C.3   503  AOS503      0.2175
     12  O6       -43.4400    6.6990    9.4050 O.3   503  AOS503     -0.2175
@<TRIPOS>BOND
     1    11    12    1
     2    11     9    1
     3     9    10    1
     4     9     7    1
     5     8     7    1
     6     6     5    1
     7     7     5    1
     8     4     3    1
     9     5     3    1
    10     3     1    1
    11     1     2    2
