@<TRIPOS>MOLECULE
4gjj_AFD_B_1.pdb
 12 12 0 0 0
SMALL
GASTEIGER

@<TRIPOS>ATOM
      1  C1       -28.5860   19.2900   21.1450 C.3   504  AFD504      0.3024
      2  C2       -27.4460   19.7700   22.0520 C.3   504  AFD504      0.2434
      3  C3       -27.1320   21.2510   21.7800 C.3   504  AFD504      0.2199
      4  C4       -28.2440   21.9060   20.9420 C.3   504  AFD504      0.2144
      5  C5       -29.6350   21.4740   21.4530 C.3   504  AFD504      0.1836
      6  C6       -30.7960   22.0690   20.6630 C.3   504  AFD504      0.2142
      7  O1       -27.8160   19.5960   23.4140 O.3   504  AFD504     -0.2148
      8  O2       -26.9700   21.9420   23.0100 O.3   504  AFD504     -0.2174
      9  O3       -28.1200   23.3240   20.9770 O.3   504  AFD504     -0.2176
     10  O4       -29.7980   20.0250   21.4300 O.3   504  AFD504     -0.3236
     11  O5       -30.3760   22.5930   19.4090 O.3   504  AFD504     -0.2176
     12  O6       -28.8290   17.9410   21.3700 O.3   504  AFD504     -0.1869
@<TRIPOS>BOND
     1    11     6    1
     2     6     5    1
     3     4     9    1
     4     4     5    1
     5     4     3    1
     6     1    12    1
     7     1    10    1
     8     1     2    1
     9    10     5    1
    10     3     2    1
    11     3     8    1
    12     2     7    1
