@<TRIPOS>MOLECULE
4gjs_0OD_A_1.pdb
 29 31 0 0 0
SMALL
GASTEIGER

@<TRIPOS>ATOM
      1 CL1         9.3300   -2.6230   -4.2520 Cl    400  0OD400      0.0000
      2 RH          8.4570   -4.1210   -5.9190 Rh    400  0OD400      0.0000
      3  C1        15.6370   -9.2960  -14.2500 C.1   400  0OD400      0.0000
      4  N1        15.1940   -8.5350  -15.1130 N.2   400  0OD400      0.0000
      5  O1        16.5050  -10.1330  -14.4800 O.2   400  0OD400      0.0000
      6  S1        12.0000   -9.3530  -14.0250 S.3   400  0OD400      0.0000
      7  C2        14.0280   -7.5570  -14.4440 C.3   400  0OD400      0.0000
      8  N2        15.0580   -9.0970  -13.0450 N.2   400  0OD400      0.0000
      9  O2         9.9480   -8.8890   -7.6110 O.2   400  0OD400      0.0000
     10  C3        12.5430   -7.9180  -14.9360 C.3   400  0OD400      0.0000
     11  N3         7.8580   -9.0930   -8.6110 N.am  400  0OD400      0.0000
     12  C4        13.9950   -7.9560  -12.9640 C.3   400  0OD400      0.0000
     13  C5        12.6560   -8.4840  -12.5470 C.3   400  0OD400      0.0000
     14  C6        12.7130   -9.3860  -11.2990 C.3   400  0OD400      0.0000
     15  C7        11.3100   -9.6350  -10.8120 C.3   400  0OD400      0.0000
     16  C8        11.2650  -10.5220   -9.5980 C.3   400  0OD400      0.0000
     17  C9         9.7080  -10.7830   -9.2000 C.3   400  0OD400      0.0000
     18  C10        9.1630   -9.5290   -8.4280 C.2   400  0OD400      0.0000
     19  C11        7.4670   -8.1350   -7.5060 C.3   400  0OD400      0.0000
     20  C12        7.9740   -6.7290   -7.7350 C.3   400  0OD400      0.0000
     21  C13        7.4400   -5.8080   -6.6660 C.3   400  0OD400      0.0000
     22  C14        6.6750   -4.6340   -6.8520 C.3   400  0OD400      0.0000
     23  C15        6.3880   -4.0650   -5.5860 C.2   400  0OD400      0.0000
     24  C16        6.9710   -4.8900   -4.6120 C.2   400  0OD400      0.0000
     25  C17        7.6350   -5.9370   -5.2790 C.3   400  0OD400      0.0000
     26  C18        6.2140   -4.0880   -8.1690 C.3   400  0OD400      0.0000
     27  C19        5.5810   -2.8270   -5.3250 C.3   400  0OD400      0.0000
     28  C20        6.9410   -4.6670   -3.1280 C.3   400  0OD400      0.0000
     29  C21        8.3900   -7.0460   -4.6060 C.3   400  0OD400      0.0000
@<TRIPOS>BOND
     1     4     7    1
     2     4     3    2
     3    10     7    1
     4    10     6    1
     5     5     3    2
     6     7    12    1
     7     3     8    2
     8     6    13    1
     9     8    12    1
    10    12    13    1
    11    13    14    1
    12    14    15    1
    13    15    16    1
    14    16    17    1
    15    17    18    1
    16    11    18   am
    17    11    19    1
    18    18     9    2
    19    26    22    1
    20    20    19    1
    21    20    21    1
    22    22    21    1
    23    22     2    1
    24    22    23    1
    25    21    25    1
    26     2    25    1
    27    23    27    1
    28    23    24    2
    29    25    24    1
    30    25    29    1
    31    24    28    1
