@<TRIPOS>MOLECULE
4gjv_0OD_A_1.pdb
 28 31 0 0 0
SMALL
GASTEIGER

@<TRIPOS>ATOM
      1 RH         26.0840   24.8710  -15.5470 Rh    400  0OD400      0.0000
      2  C1        15.4580   29.3600   -8.5380 C.1   400  0OD400      0.0000
      3  N1        16.3010   29.5660   -7.6420 N.2   400  0OD400      0.0000
      4  O1        14.2550   29.4470   -8.2780 O.2   400  0OD400      0.0000
      5  S1        17.9650   26.6810   -8.5490 S.3   400  0OD400      0.0000
      6  C2        17.7870   29.3670   -8.3370 C.3   400  0OD400      0.0000
      7  N2        15.8880   29.0410   -9.7960 N.2   400  0OD400      0.0000
      8  O2        19.4720   25.8650  -14.9200 O.2   400  0OD400      0.0000
      9  C3        18.5830   28.1360   -7.6970 C.3   400  0OD400      0.0000
     10  N3        20.7650   24.1220  -14.1590 N.am  400  0OD400      0.0000
     11  C4        17.4490   29.0210   -9.7590 C.3   400  0OD400      0.0000
     12  C5        17.9850   27.6760  -10.1030 C.3   400  0OD400      0.0000
     13  C6        17.1610   26.9890  -11.1990 C.3   400  0OD400      0.0000
     14  C7        18.1070   26.1940  -12.0490 C.3   400  0OD400      0.0000
     15  C8        17.3410   25.3360  -13.0090 C.3   400  0OD400      0.0000
     16  C9        18.2950   24.1310  -13.5300 C.3   400  0OD400      0.0000
     17  C10       19.5330   24.7250  -14.2930 C.2   400  0OD400      0.0000
     18  C11       21.7870   25.0810  -14.6850 C.3   400  0OD400      0.0000
     19  C12       23.1560   24.6040  -14.3090 C.3   400  0OD400      0.0000
     20  C13       24.2660   25.5130  -14.7510 C.3   400  0OD400      0.0000
     21  C14       24.4600   26.0660  -16.0360 C.3   400  0OD400      0.0000
     22  C15       25.6230   26.8630  -16.0220 C.2   400  0OD400      0.0000
     23  C16       26.1650   26.8160  -14.7290 C.2   400  0OD400      0.0000
     24  C17       25.3270   25.9860  -13.9570 C.3   400  0OD400      0.0000
     25  C18       23.5840   25.8540  -17.2400 C.3   400  0OD400      0.0000
     26  C19       26.1700   27.6220  -17.1980 C.3   400  0OD400      0.0000
     27  C20       27.4070   27.5170  -14.2550 C.3   400  0OD400      0.0000
     28  C21       25.5250   25.6510  -12.5080 C.3   400  0OD400      0.0000
@<TRIPOS>BOND
     1    25    21    1
     2    26    22    1
     3    21    22    1
     4    21     1    1
     5    21    20    1
     6    22    23    2
     7     1    24    1
     8     8    17    2
     9    20    19    1
    10    20    24    1
    11    23    27    1
    12    23    24    1
    13    18    19    1
    14    18    10    1
    15    17    10   am
    16    17    16    1
    17    24    28    1
    18    16    15    1
    19    15    14    1
    20    14    13    1
    21    13    12    1
    22    12    11    1
    23    12     5    1
    24     7    11    1
    25     7     2    2
    26    11     6    1
    27     5     9    1
    28     2     4    2
    29     2     3    2
    30     6     9    1
    31     6     3    1
