@<TRIPOS>MOLECULE
4gjy_OGA_A_1.pdb
 13 12 0 0 0
SMALL
GASTEIGER

@<TRIPOS>ATOM
      1  C1        39.0950   20.0820   22.2870 C.2   502  OGA502      0.4402
      2  C2        40.4380   19.6150   22.7040 C.2   502  OGA502      0.3260
      3  C4        42.6160   18.6860   22.0260 C.3   502  OGA502      0.1137
      4  C5        43.3580   18.1990   20.8430 C.2   502  OGA502      0.3728
      5  O1        38.4100   20.6080   23.2150 O.co2 502  OGA502     -0.2354
      6  O2        38.7200   19.9530   21.0930 O.co2 502  OGA502     -0.2354
      7  O2'       40.7990   19.6980   23.8770 O.2   502  OGA502     -0.2629
      8  O3        44.6000   18.0270   20.9630 O.co2 502  OGA502     -0.2446
      9  N1        41.2830   19.0880   21.7170 N.am  502  OGA502     -0.2952
     10  O4        42.7230   17.9430   19.7920 O.co2 502  OGA502     -0.2446
     11 H4C1       42.5690   17.9600   22.6730 H     502  OGA502      0.0579
     12 H4C2       43.0960   19.4320   22.4250 H     502  OGA502      0.0579
     13  H1        40.9990   19.0620   20.8560 H     502  OGA502      0.1498
@<TRIPOS>BOND
     1    10     4   ar
     2     4     8   ar
     3     4     3    1
     4    13     9    1
     5     6     1   ar
     6     9     3    1
     7     9     2   am
     8     3    12    1
     9     3    11    1
    10     1     2    1
    11     1     5   ar
    12     2     7    2
