@<TRIPOS>MOLECULE
4gjz_AKG_A_1.pdb
 14 13 0 0 0
SMALL
GASTEIGER

@<TRIPOS>ATOM
      1  C1        10.8460   11.8730   22.2460 C.2   502  AKG502      0.4212
      2  O1        11.2640   11.9180   21.0570 O.co2 502  AKG502     -0.2373
      3  O2        11.4930   11.3880   23.2190 O.co2 502  AKG502     -0.2373
      4  C2         9.5100   12.4430   22.5560 C.2   502  AKG502      0.2439
      5  O5         9.1260   12.4210   23.7280 O.2   502  AKG502     -0.2850
      6  C3         8.6650   13.0170   21.4900 C.3   502  AKG502      0.0274
      7  C4         7.2720   13.3780   21.8980 C.3   502  AKG502      0.0564
      8  C5         6.4250   13.9390   20.8100 C.2   502  AKG502      0.3564
      9  O3         6.9660   14.3390   19.7500 O.co2 502  AKG502     -0.2464
     10  O4         5.1630   14.0050   20.9990 O.co2 502  AKG502     -0.2464
     11  H31        9.1020   13.8020   21.1210 H     502  AKG502      0.0353
     12  H32        8.5960   12.3470   20.7890 H     502  AKG502      0.0353
     13  H41        6.8310   12.5840   22.2440 H     502  AKG502      0.0383
     14  H42        7.3330   14.0330   22.6130 H     502  AKG502      0.0383
@<TRIPOS>BOND
     1     9     8   ar
     2    12     6    1
     3     8    10   ar
     4     8     7    1
     5     2     1   ar
     6    11     6    1
     7     6     7    1
     8     6     4    1
     9     7    13    1
    10     7    14    1
    11     1     4    1
    12     1     3   ar
    13     4     5    2
