@<TRIPOS>MOLECULE
4gk2_L66_A_1.pdb
 31 35 0 0 0
SMALL
GASTEIGER

@<TRIPOS>ATOM
      1  O2        -0.0950  -17.1840  -12.5760 O.2   1001  L661001    -0.1919
      2  C17        0.1930  -15.8560  -12.6760 C.1   1001  L661001     0.2840
      3  N4         0.3040  -15.0810  -11.5650 N.2   1001  L661001    -0.2474
      4  C16        0.5830  -13.7580  -11.6440 C.1   1001  L661001     0.2190
      5  O3         0.6910  -12.9940  -10.5240 O.2   1001  L661001    -0.2112
      6  N5         0.3620  -15.3520  -13.9070 N.am  1001  L661001    -0.1791
      7  C18        0.2360  -16.1890  -15.1070 C.3   1001  L661001     0.1339
      8  C2         0.6390  -14.0590  -14.0280 C.2   1001  L661001     0.2127
      9  C3         0.7640  -13.2230  -12.9160 C.3   1001  L661001     0.2681
     10  N1         0.8420  -13.3740  -15.1970 N.2   1001  L661001    -0.3577
     11  C1         1.0740  -12.0860  -14.7280 C.cat 1001  L661001     0.2554
     12  N2         1.0630  -11.9590  -13.3810 N.pl3 1001  L661001    -0.2272
     13  C4         1.3130  -10.5940  -12.9250 C.2   1001  L661001     0.0850
     14  N3         1.3970  -10.8950  -15.3300 N.pl3 1001  L661001    -0.2249
     15  C5         1.4990  -10.0180  -14.3360 C.2   1001  L661001     0.0738
     16  C10        1.8320   -8.5740  -14.4850 C.ar  1001  L661001     0.0146
     17  C11        3.0120   -8.0280  -13.9560 C.ar  1001  L661001    -0.0204
     18  C40        4.0030   -8.8550  -13.1640 C.3   1001  L661001     0.0311
     19  C12        3.2870   -6.6790  -14.1600 C.ar  1001  L661001    -0.0009
     20  C13        2.3930   -5.8920  -14.8810 C.ar  1001  L661001     0.0417
     21  C15        0.9510   -7.7810  -15.2210 C.ar  1001  L661001     0.0430
     22  C14        1.2370   -6.4360  -15.4180 C.ar  1001  L661001     0.1958
     23  O41        0.3770   -5.6470  -16.1180 O.3   1001  L661001    -0.2866
     24  C32        1.4440  -10.6860  -16.6450 C.ar  1001  L661001     0.0929
     25  C33        2.5980  -10.4820  -17.3960 C.ar  1001  L661001     0.0183
     26  C34        2.5570  -10.2830  -18.7750 C.ar  1001  L661001     0.0015
     27  C35        1.3570  -10.2660  -19.4800 C.ar  1001  L661001     0.0032
     28  C36        0.1650  -10.4610  -18.8060 C.ar  1001  L661001     0.0382
     29  C37        0.1770  -10.6600  -17.4300 C.ar  1001  L661001     0.1526
     30  O38       -1.0120  -10.8640  -16.7710 O.3   1001  L661001    -0.4702
     31  C39       -2.1870  -10.1360  -17.1260 C.3   1001  L661001     0.2525
@<TRIPOS>BOND
     1    27    28   ar
     2    27    26   ar
     3    28    29   ar
     4    26    25   ar
     5    29    30    1
     6    29    24   ar
     7    25    24   ar
     8    31    30    1
     9    24    14    1
    10    23    22    1
    11    22    21   ar
    12    22    20   ar
    13    14    11    1
    14    14    15    1
    15    21    16   ar
    16    10    11    2
    17    10     8    2
    18     7     6    1
    19    20    19   ar
    20    11    12    1
    21    16    15    1
    22    16    17   ar
    23    15    13    2
    24    19    17   ar
    25     8     6    1
    26     8     9    1
    27    17    18    1
    28     6     2   am
    29    12    13    1
    30    12     9    1
    31     9     4    1
    32     2     1    2
    33     2     3    2
    34     4     3    2
    35     4     5    2
