@<TRIPOS>MOLECULE
4gk3_L87_A_1.pdb
 26 29 0 0 0
SMALL
GASTEIGER

@<TRIPOS>ATOM
      1  O2        18.7420  -16.5270   24.5080 O.2   1001  L871001    -0.1919
      2  C17       19.0740  -15.3150   24.4500 C.1   1001  L871001     0.2840
      3  N4        19.2540  -14.6030   25.6000 N.2   1001  L871001    -0.2474
      4  N5        19.2490  -14.7430   23.2490 N.am  1001  L871001    -0.1791
      5  C18       19.0580  -15.5040   22.0050 C.3   1001  L871001     0.1339
      6  C2        19.6030  -13.4580   23.1880 C.2   1001  L871001     0.2127
      7  C3        19.7960  -12.6890   24.3390 C.3   1001  L871001     0.2681
      8  C16       19.6110  -13.2910   25.5860 C.1   1001  L871001     0.2190
      9  O3        19.7550  -12.6890   26.6630 O.2   1001  L871001    -0.2112
     10  N1        19.8270  -12.7150   22.0430 N.2   1001  L871001    -0.3580
     11  C1        20.1660  -11.4750   22.5910 C.cat 1001  L871001     0.2514
     12  N2        20.1630  -11.4260   23.9250 N.pl3 1001  L871001    -0.2275
     13  N3        20.4890  -10.2360   22.0960 N.pl3 1001  L871001    -0.2492
     14  C6        20.5730  -10.0790   20.6410 C.3   1001  L871001     0.0992
     15  C7        19.1900  -10.2260   20.0040 C.3   1001  L871001     0.0219
     16  C8        18.1610   -9.2710   20.6060 C.3   1001  L871001     0.0018
     17  C9        16.7920   -9.5260   20.0090 C.3   1001  L871001     0.0001
     18  C5        20.7130   -9.4300   23.1730 C.2   1001  L871001     0.0693
     19  C4        20.4880  -10.1510   24.3910 C.2   1001  L871001     0.0847
     20  C10       21.1180   -8.0070   22.9460 C.ar  1001  L871001     0.0110
     21  C11       22.3610   -7.5320   23.3670 C.ar  1001  L871001    -0.0206
     22  C26       23.3280   -8.4150   24.1240 C.3   1001  L871001     0.0311
     23  C12       22.7280   -6.2110   23.1080 C.ar  1001  L871001    -0.0042
     24  C13       21.8570   -5.3690   22.4210 C.ar  1001  L871001    -0.0003
     25  C14       20.6230   -5.8510   21.9860 C.ar  1001  L871001     0.0000
     26  C15       20.2560   -7.1670   22.2450 C.ar  1001  L871001     0.0010
@<TRIPOS>BOND
     1    15    16    1
     2    15    14    1
     3    17    16    1
     4    14    13    1
     5    25    26   ar
     6    25    24   ar
     7     5     4    1
     8    10    11    2
     9    10     6    2
    10    13    11    1
    11    13    18    1
    12    26    20   ar
    13    24    23   ar
    14    11    12    1
    15    20    18    1
    16    20    21   ar
    17    23    21   ar
    18    18    19    2
    19     6     4    1
    20     6     7    1
    21     4     2   am
    22    21    22    1
    23    12     7    1
    24    12    19    1
    25     7     8    1
    26     2     1    2
    27     2     3    2
    28     8     3    2
    29     8     9    2
