@<TRIPOS>MOLECULE
4gk4_L90_A_1.pdb
 29 33 0 0 0
SMALL
GASTEIGER

@<TRIPOS>ATOM
      1  O3        -8.5980    5.3350   47.5880 O.2   1001  L901001    -0.2112
      2  C16       -8.4230    4.5950   48.5760 C.1   1001  L901001     0.2190
      3  N4        -8.0360    3.3070   48.4240 N.2   1001  L901001    -0.2474
      4  C3        -8.6210    5.0460   49.8710 C.3   1001  L901001     0.2681
      5  N2        -9.0160    6.2600   50.3720 N.pl3 1001  L901001    -0.2275
      6  C4        -9.3800    7.5390   49.9740 C.2   1001  L901001     0.0844
      7  C5        -9.6350    8.1870   51.2230 C.2   1001  L901001     0.0661
      8  N3        -9.4020    7.3170   52.2550 N.pl3 1001  L901001    -0.2495
      9  C6        -9.5140    7.3460   53.7160 C.3   1001  L901001     0.0992
     10  C7        -8.3140    7.9750   54.4080 C.3   1001  L901001     0.0219
     11  C8        -6.9770    7.4720   53.8850 C.3   1001  L901001     0.0018
     12  C9        -5.8830    8.4300   54.3080 C.3   1001  L901001     0.0001
     13  C1        -9.0370    6.1170   51.6900 C.cat 1001  L901001     0.2514
     14  N1        -8.6660    4.8430   52.1400 N.2   1001  L901001    -0.3580
     15  C2        -8.4140    4.1890   50.9470 C.2   1001  L901001     0.2127
     16  N5        -8.0220    2.9260   50.7560 N.am  1001  L901001    -0.1791
     17  C18       -7.8020    2.0320   51.8990 C.3   1001  L901001     0.1339
     18  C17       -7.8310    2.4910   49.4970 C.1   1001  L901001     0.2840
     19  O2        -7.4640    1.3070   49.3060 O.2   1001  L901001    -0.1919
     20  C10      -10.0860    9.5990   51.4430 C.2   1001  L901001    -0.0004
     21  C15       -9.2390   10.4910   52.1030 C.2   1001  L901001     0.0379
     22  C29       -7.9160   10.3030   52.5990 C.2   1001  L901001     0.1234
     23  N28       -7.5770   11.5030   53.1270 N.2   1001  L901001    -0.1464
     24  N27       -8.6430   12.4030   52.9590 N.2   1001  L901001    -0.1479
     25  C14       -9.6600   11.7890   52.3310 C.2   1001  L901001     0.1038
     26  C13      -10.9170   12.2190   51.9340 C.2   1001  L901001     0.0167
     27  C12      -11.7640   11.3290   51.2950 C.2   1001  L901001    -0.0204
     28  C11      -11.3560   10.0220   51.0530 C.3   1001  L901001     0.0457
     29  C26      -12.3210    9.1030   50.3460 C.3   1001  L901001     0.0094
@<TRIPOS>BOND
     1     1     2    2
     2     3     2    2
     3     3    18    2
     4     2     4    1
     5    19    18    2
     6    18    16   am
     7     4     5    1
     8     4    15    1
     9     6     5    1
    10     6     7    2
    11    29    28    1
    12     5    13    1
    13    16    15    1
    14    16    17    1
    15    15    14    2
    16    28    27    1
    17    28    20    1
    18     7    20    1
    19     7     8    1
    20    27    26    2
    21    20    21    2
    22    13    14    2
    23    13     8    1
    24    26    25    1
    25    21    25    1
    26    21    22    1
    27     8     9    1
    28    25    24    2
    29    22    23    2
    30    24    23    1
    31     9    10    1
    32    11    12    1
    33    11    10    1
