@<TRIPOS>MOLECULE
4gk7_III_1_1.pdb
 38 38 0 0 0
SMALL
GASTEIGER

@<TRIPOS>ATOM
      1  C         58.9770 -135.4120   35.0170 C.2     0  MH90        0.2654
      2  O         58.8970 -136.4710   35.6370 O.2     0  MH90       -0.2684
      3  C1        57.6730 -134.9890   34.4270 C.2     0  MH90        0.0595
      4  C2        57.0810 -133.7970   34.4180 C.2     0  MH90        0.0044
      5  C3        55.7360 -133.7610   33.7760 C.2     0  MH90       -0.0044
      6  C4        54.6090 -133.6400   34.4870 C.2     0  MH90       -0.0261
      7  C5        53.2200 -133.6540   33.8520 C.3     0  MH90        0.0260
      8  C6        52.3460 -132.3750   33.9460 C.3     0  MH90        0.0047
      9  C7        50.9610 -132.7160   33.2490 C.3     0  MH90        0.0003
     10  C8        49.8740 -131.6040   33.2550 C.3     0  MH90        0.0000
     11  C9        48.5570 -132.1690   32.5870 C.3     0  MH90        0.0000
     12  C10       47.3930 -131.1070   32.6000 C.3     0  MH90        0.0000
     13  C11       46.0720 -131.6660   31.9720 C.3     0  MH90        0.0000
     14  N         60.2010 -134.7390   34.8940 N.am    1  THR1       -0.1913
     15  CA        61.3710 -135.4170   35.5740 C.3     1  THR1        0.2031
     16  C         61.1400 -135.4570   37.1050 C.2     1  THR1        0.2651
     17  O         60.1390 -134.8960   37.5610 O.2     1  THR1       -0.2714
     18  CB        62.7750 -134.6760   35.3430 C.3     1  THR1        0.1808
     19  OG1       63.1230 -133.7820   36.3970 O.3     1  THR1       -0.2208
     20  CG2       62.8310 -133.8850   34.0300 C.3     1  THR1        0.0379
     21  N         62.0330 -136.1040   37.9310 N.am    2  LYH2       -0.1840
     22  CA        61.7810 -136.0920   39.3770 C.3     2  LYH2        0.2217
     23  C         63.0180 -136.2700   40.2290 C.1     2  LYH2        0.1500
     24  O         64.1100 -136.4860   39.6880 O.2     2  LYH2       -0.2250
     25  CB        60.7190 -137.1500   39.7720 C.2     2  LYH2        0.0073
     26  CG        60.9670 -138.4490   40.0070 C.2     2  LYH2       -0.0258
     27  CD        59.9170 -139.4470   40.4490 C.3     2  LYH2        0.0529
     28  CE        60.4500 -140.2610   41.7080 C.3     2  LYH2        0.1422
     29  NZ        60.2240 -139.4080   42.9060 N.2     2  LYH2       -0.2059
     30  N22       62.8020 -136.1800   41.5690 N.2     3  0JT3       -0.2066
     31  C18       63.8750 -136.3080   42.5570 C.3     3  0JT3        0.1156
     32  C19       64.2640 -134.8880   43.0940 C.3     3  0JT3        0.0233
     33  C21       63.0530 -133.9140   43.3060 C.3     3  0JT3        0.0020
     34  C20       65.2570 -134.2100   42.1000 C.3     3  0JT3        0.0020
     35  C17       63.4180 -137.3090   43.6600 C.3     3  0JT3        0.0428
     36  C16       62.5740 -138.4030   42.9710 C.3     3  0JT3        0.1237
     37  C14       61.1450 -138.5610   43.4710 C.1     3  0JT3        0.1261
     38  O15       60.8310 -137.9140   44.4490 O.2     3  0JT3       -0.2270
@<TRIPOS>BOND
     1    13    12    1
     2    11    12    1
     3    11    10    1
     4     9    10    1
     5     9     8    1
     6     5     4    1
     7     5     6    2
     8     7     8    1
     9     7     6    1
    10    20    18    1
    11     4     3    2
    12     3     1    1
    13    14     1   am
    14    14    15    1
    15     1     2    2
    16    18    15    1
    17    18    19    1
    18    15    16    1
    19    16    17    2
    20    16    21   am
    21    21    22    1
    22    22    25    1
    23    22    23    1
    24    24    23    2
    25    25    26    2
    26    26    27    1
    27    23    30    2
    28    27    28    1
    29    30    31    1
    30    28    29    1
    31    34    32    1
    32    31    32    1
    33    31    35    1
    34    29    37    2
    35    36    37    1
    36    36    35    1
    37    32    33    1
    38    37    38    2
