@<TRIPOS>MOLECULE
4gk8_GK8_A_1.pdb
 14 13 0 0 0
SMALL
GASTEIGER

@<TRIPOS>ATOM
      1  C         25.7500   27.2830    5.6520 C.3   305  GK8305      0.0000
      2  N         24.4910   29.1840    4.8470 N.3   305  GK8305      0.0000
      3 AS         24.3480   25.4720    4.1250 As    305  GK8305      0.0000
      4  O1        24.2340   24.2070    5.3480 O.3   305  GK8305      0.0000
      5  O2        23.0770   26.7180    4.2140 O.3   305  GK8305      0.0000
      6  O3        24.6590   24.9520    2.4610 O.3   305  GK8305      0.0000
      7  O4        25.8310   26.3740    4.6050 O.3   305  GK8305      0.0000
      8  CA        25.7770   28.7500    5.3230 C.3   305  GK8305      0.0000
      9  CB        26.1680   29.5810    6.5080 C.3   305  GK8305      0.0000
     10  CG        27.6210   29.7650    6.8300 C.2   305  GK8305      0.0000
     11  ND1       28.1670   30.7500    7.5760 N.2   305  GK8305      0.0000
     12  CD2       28.6780   28.9480    6.4250 C.3   305  GK8305      0.0000
     13  CE1       29.4910   30.5720    7.6400 C.2   305  GK8305      0.0000
     14  NE2       29.8040   29.4790    6.9380 N.2   305  GK8305      0.0000
@<TRIPOS>BOND
     1     6     3    1
     2     3     5    1
     3     3     4    1
     4     7     1    1
     5     2     8    1
     6     8     1    1
     7     8     9    1
     8    12    10    1
     9    12    14    1
    10     9    10    1
    11    10    11    2
    12    14    13    2
    13    11    13    1
