@<TRIPOS>MOLECULE
4gkc_RET_A_1.pdb
 20 20 0 0 0
SMALL
GASTEIGER

@<TRIPOS>ATOM
      1  C1         7.9800    2.3790    8.0210 C.3   201  RET201      0.0183
      2  C2         8.9130    2.7700    6.8410 C.3   201  RET201      0.0044
      3  C3         8.4530    4.0590    6.1980 C.3   201  RET201      0.0047
      4  C4         8.6790    5.1520    7.1890 C.3   201  RET201      0.0217
      5  C5         8.1030    4.8310    8.5530 C.2   201  RET201     -0.0479
      6  C6         7.7880    3.5930    8.9460 C.2   201  RET201     -0.0307
      7  C7         7.2790    3.4680   10.3530 C.2   201  RET201     -0.0052
      8  C8         6.5300    2.4410   10.8060 C.2   201  RET201     -0.0046
      9  C9         6.0580    2.3590   12.2160 C.2   201  RET201     -0.0219
     10  C10        5.2880    1.3270   12.5640 C.2   201  RET201     -0.0043
     11  C11        4.7070    1.0200   13.8780 C.2   201  RET201     -0.0007
     12  C12        3.7570    0.1150   14.0710 C.2   201  RET201     -0.0046
     13  C13        3.2390   -0.2130   15.4260 C.2   201  RET201     -0.0261
     14  C14        2.2780   -1.1260   15.5200 C.2   201  RET201     -0.0300
     15  C15        1.6780   -1.6730   16.7180 C.3   201  RET201      0.0304
     16  C16        8.6750    1.2140    8.6710 C.3   201  RET201      0.0043
     17  C17        6.6440    1.9500    7.4690 C.3   201  RET201      0.0043
     18  C18        7.9690    6.0800    9.4140 C.3   201  RET201      0.0260
     19  C19        6.4570    3.4010   13.2710 C.3   201  RET201      0.0310
     20  C20        3.8310    0.4670   16.6360 C.3   201  RET201      0.0307
@<TRIPOS>BOND
     1     3     2    1
     2     3     4    1
     3     2     1    1
     4     4     5    1
     5    17     1    1
     6     1    16    1
     7     1     6    1
     8     5     6    2
     9     5    18    1
    10     6     7    1
    11     7     8    2
    12     8     9    1
    13     9    10    2
    14     9    19    1
    15    10    11    1
    16    11    12    2
    17    12    13    1
    18    13    14    2
    19    13    20    1
    20    14    15    1
