@<TRIPOS>MOLECULE
4gkh_KAN_A_1.pdb
 33 35 0 0 0
SMALL
GASTEIGER

@<TRIPOS>ATOM
      1  C1        81.2440   46.1060  -21.3090 C.3   301  KAN301      0.2695
      2  C2        81.5770   46.7210  -22.6500 C.3   301  KAN301      0.2406
      3  C3        80.7920   47.9900  -22.9220 C.3   301  KAN301      0.2198
      4  C4        79.3030   47.6480  -22.8750 C.3   301  KAN301      0.2133
      5  C5        78.9830   47.1060  -21.4950 C.3   301  KAN301      0.1696
      6  C6        77.4940   46.7650  -21.5440 C.3   301  KAN301      0.1415
      7  C7        83.3250   46.3760  -16.4570 C.3   301  KAN301      0.1231
      8  C8        83.5440   45.3160  -17.5060 C.3   301  KAN301      0.1680
      9  C9        83.2860   45.9580  -18.8880 C.3   301  KAN301      0.2088
     10  C10       81.8290   46.4560  -19.0070 C.3   301  KAN301      0.1680
     11  C11       81.6550   47.5560  -17.9310 C.3   301  KAN301      0.1231
     12  C12       81.9000   46.9450  -16.5560 C.3   301  KAN301      0.0432
     13  C13       85.2030   43.5260  -17.8130 C.3   301  KAN301      0.2684
     14  C14       86.2800   43.0390  -16.8420 C.3   301  KAN301      0.2279
     15  C15       87.5760   43.8140  -16.9050 C.3   301  KAN301      0.1599
     16  C16       88.1200   43.7210  -18.3140 C.3   301  KAN301      0.2017
     17  C17       87.0650   44.3220  -19.2350 C.3   301  KAN301      0.1824
     18  C18       87.5480   44.4760  -20.6950 C.3   301  KAN301      0.2142
     19  N1        77.0680   46.2330  -20.2450 N.3   301  KAN301     -0.1286
     20  N2        80.2740   48.0660  -17.9960 N.3   301  KAN301     -0.1302
     21  N3        83.5480   45.7010  -15.1580 N.3   301  KAN301     -0.1302
     22  N4        88.5580   43.2290  -15.9830 N.3   301  KAN301     -0.1272
     23  O5        79.7840   45.9190  -21.2620 O.3   301  KAN301     -0.3268
     24  O6        82.9870   47.0050  -22.6850 O.3   301  KAN301     -0.2149
     25  O7        81.1600   48.4640  -24.2250 O.3   301  KAN301     -0.2174
     26  O8        78.5140   48.8260  -23.0890 O.3   301  KAN301     -0.2176
     27  O9        81.5960   47.0560  -20.2980 O.3   301  KAN301     -0.3269
     28  O10       83.6700   45.0580  -19.9590 O.3   301  KAN301     -0.2178
     29  O11       84.8980   44.8320  -17.3260 O.3   301  KAN301     -0.3269
     30  O12       85.8120   43.5770  -19.1280 O.3   301  KAN301     -0.3257
     31  O13       85.6780   43.0620  -15.5430 O.3   301  KAN301     -0.2161
     32  O14       89.3130   44.4920  -18.3820 O.3   301  KAN301     -0.2188
     33  O15       86.5540   45.2210  -21.4520 O.3   301  KAN301     -0.2176
@<TRIPOS>BOND
     1    25     3    1
     2    26     4    1
     3     3     4    1
     4     3     2    1
     5     4     5    1
     6    24     2    1
     7     2     1    1
     8     6     5    1
     9     6    19    1
    10     5    23    1
    11    33    18    1
    12     1    23    1
    13     1    27    1
    14    18    17    1
    15    27    10    1
    16    28     9    1
    17    17    30    1
    18    17    16    1
    19    30    13    1
    20    10     9    1
    21    10    11    1
    22     9     8    1
    23    32    16    1
    24    16    15    1
    25    20    11    1
    26    11    12    1
    27    13    29    1
    28    13    14    1
    29     8    29    1
    30     8     7    1
    31    15    14    1
    32    15    22    1
    33    14    31    1
    34    12     7    1
    35     7    21    1
