@<TRIPOS>MOLECULE
4gkh_0J9_A_1.pdb
 24 27 0 0 0
SMALL
GASTEIGER

@<TRIPOS>ATOM
      1  N1        83.8230   49.7250  -38.2610 N.2   302  0J9302     -0.0027
      2  C2        82.6670   50.4120  -37.9460 C.3   302  0J9302      0.5248
      3  N3        81.8670   49.8650  -36.9520 N.2   302  0J9302     -0.0088
      4  C4        82.2290   48.7200  -36.3470 C.2   302  0J9302      0.3404
      5  C5        83.3630   48.0550  -36.6530 C.3   302  0J9302      0.2639
      6  C6        84.1410   48.5880  -37.6340 C.2   302  0J9302      0.4081
      7  CAA       79.2050   48.5290  -35.8270 C.3   302  0J9302      0.0491
      8  CAB       79.8920   47.3270  -33.7580 C.3   302  0J9302      0.0491
      9  CAC       80.4420   49.7630  -34.0110 C.3   302  0J9302      0.0491
     10  NAD       85.2640   47.9980  -38.0100 N.pl3 302  0J9302      0.2118
     11  CAE       83.0860   41.8920  -35.3590 C.ar  302  0J9302      0.0000
     12  CAF       82.1250   42.8970  -35.3550 C.ar  302  0J9302      0.0000
     13  CAI       85.6160   46.1390  -35.9440 C.ar  302  0J9302      0.0013
     14  CAJ       84.4260   42.2300  -35.4900 C.ar  302  0J9302      0.0000
     15  CAK       86.1610   43.8240  -35.7580 C.ar  302  0J9302      0.0000
     16  CAL       82.5110   44.2270  -35.4930 C.ar  302  0J9302      0.0000
     17  NAO       82.2350   47.0250  -35.1560 N.2   302  0J9302     -0.0915
     18  CAQ       84.2620   45.9450  -35.7120 C.ar  302  0J9302      0.0182
     19  CAR       83.4070   47.0120  -35.7830 C.2   302  0J9302      0.1226
     20  CAS       84.8070   43.5580  -35.6250 C.ar  302  0J9302      0.0000
     21  CAT       83.8520   44.5900  -35.6280 C.ar  302  0J9302      0.0013
     22  NAW       81.6020   48.0610  -35.3780 N.pl3 302  0J9302     -0.0877
     23  CAX       80.3040   48.4290  -34.7530 C.3   302  0J9302      0.1509
     24  CAG       86.5740   45.1350  -35.8840 C.ar  302  0J9302      0.0000
@<TRIPOS>BOND
     1     1     2    1
     2     1     6    2
     3    10     6    1
     4     2     3    1
     5     6     5    1
     6     3     4    2
     7     5     4    1
     8     5    19    1
     9     4    22    1
    10    13    24   ar
    11    13    18   ar
    12    24    15   ar
    13     7    23    1
    14    19    18    1
    15    19    17    2
    16    15    20   ar
    17    18    21   ar
    18    21    20   ar
    19    21    16   ar
    20    20    14   ar
    21    16    12   ar
    22    14    11   ar
    23    22    17    1
    24    22    23    1
    25    11    12   ar
    26    23     9    1
    27    23     8    1
