@<TRIPOS>MOLECULE
4gki_0JN_A_1.pdb
 25 28 0 0 0
SMALL
GASTEIGER

@<TRIPOS>ATOM
      1  N1        35.8280   13.0130   18.8720 N.2   302  0JN302     -0.0027
      2  C2        36.9640   12.2850   18.5260 C.3   302  0JN302      0.5248
      3  N3        37.9860   12.9600   17.8570 N.2   302  0JN302     -0.0088
      4  C4        37.8560   14.2660   17.5620 C.2   302  0JN302      0.3400
      5  C5        36.7510   14.9390   17.9080 C.3   302  0JN302      0.2601
      6  C6        35.7560   14.3120   18.5540 C.2   302  0JN302      0.4078
      7  CAA       40.0280   13.6270   15.4720 C.3   302  0JN302      0.0491
      8  CAB       40.4410   16.0870   15.5090 C.3   302  0JN302      0.0491
      9  CAE       35.6980   18.0990   12.5450 C.ar  302  0JN302     -0.0000
     10  CAF       36.7770   18.0670   13.4180 C.ar  302  0JN302     -0.0000
     11  CAG       32.6590   17.3480   16.1960 C.ar  302  0JN302     -0.0003
     12  CAH       33.7330   17.3170   17.0780 C.ar  302  0JN302     -0.0039
     13  CAI       34.4080   17.9260   13.0260 C.ar  302  0JN302     -0.0000
     14  CAJ       32.8900   17.5520   14.8440 C.ar  302  0JN302     -0.0000
     15  CAR       35.0380   17.4760   16.6270 C.ar  302  0JN302     -0.0164
     16  CAS       36.9730   16.1790   17.4600 C.2   302  0JN302      0.1047
     17  CAT       34.1900   17.7230   14.3820 C.ar  302  0JN302     -0.0003
     18  NAX       38.6810   15.1200   16.9360 N.pl3 302  0JN302     -0.0880
     19  CAY       40.0390   14.8770   16.3530 C.3   302  0JN302      0.1509
     20  CAC       41.0630   14.6990   17.4770 C.3   302  0JN302      0.0491
     21  NAP       38.1720   16.2080   16.8820 N.2   302  0JN302     -0.0955
     22  NAD       34.6800   15.0180   18.8810 N.pl3 302  0JN302      0.2118
     23  CAM       36.0780   17.4410   17.5620 C.3   302  0JN302      0.0724
     24  CAU       35.2660   17.6910   15.2650 C.ar  302  0JN302     -0.0036
     25  CAK       36.5560   17.8650   14.7730 C.ar  302  0JN302     -0.0003
@<TRIPOS>BOND
     1     9    13   ar
     2     9    10   ar
     3    13    17   ar
     4    10    25   ar
     5    17    14   ar
     6    17    24   ar
     7    25    24   ar
     8    14    11   ar
     9    24    15   ar
    10     7    19    1
    11     8    19    1
    12    11    12   ar
    13    19    18    1
    14    19    20    1
    15    15    12   ar
    16    15    23    1
    17    21    18    1
    18    21    16    2
    19    18     4    1
    20    16    23    1
    21    16     5    1
    22     4     3    2
    23     4     5    1
    24     3     2    1
    25     5     6    1
    26     2     1    1
    27     6     1    2
    28     6    22    1
