@<TRIPOS>MOLECULE
4gki_KAN_A_1.pdb
 33 35 0 0 0
SMALL
GASTEIGER

@<TRIPOS>ATOM
      1  C1        47.7040   26.6790   18.8590 C.3   301  KAN301      0.2695
      2  C2        46.7630   25.5030   19.0530 C.3   301  KAN301      0.2406
      3  C3        47.5290   24.2060   19.2980 C.3   301  KAN301      0.2198
      4  C4        48.4260   23.9520   18.0890 C.3   301  KAN301      0.2133
      5  C5        49.3900   25.1300   17.9480 C.3   301  KAN301      0.1696
      6  C6        50.2460   24.8480   16.6870 C.3   301  KAN301      0.1415
      7  C7        49.8000   30.4240   21.9180 C.3   301  KAN301      0.1231
      8  C8        48.5570   30.5220   21.0950 C.3   301  KAN301      0.1680
      9  C9        48.0000   29.0940   20.9060 C.3   301  KAN301      0.2088
     10  C10       49.0180   28.1620   20.2000 C.3   301  KAN301      0.1680
     11  C11       50.2610   28.0750   21.1000 C.3   301  KAN301      0.1231
     12  C12       50.8190   29.4640   21.2640 C.3   301  KAN301      0.0432
     13  C13       46.6130   32.0670   21.0020 C.3   301  KAN301      0.2684
     14  C14       46.2930   33.4160   21.6920 C.3   301  KAN301      0.2279
     15  C15       45.7760   33.2580   23.1000 C.3   301  KAN301      0.1599
     16  C16       44.5290   32.4090   23.0220 C.3   301  KAN301      0.2017
     17  C17       44.8850   31.0700   22.4180 C.3   301  KAN301      0.1824
     18  C18       43.6000   30.2820   22.3050 C.3   301  KAN301      0.2142
     19  N1        51.2350   25.9250   16.4580 N.3   301  KAN301     -0.1286
     20  N2        51.2600   27.2580   20.3870 N.3   301  KAN301     -0.1302
     21  N3        50.3040   31.8060   21.9970 N.3   301  KAN301     -0.1302
     22  N4        45.3870   34.5890   23.5980 N.3   301  KAN301     -0.1272
     23  O5        48.6340   26.3400   17.7600 O.3   301  KAN301     -0.3268
     24  O6        45.9070   25.7800   20.1740 O.3   301  KAN301     -0.2149
     25  O7        46.5790   23.1580   19.4570 O.3   301  KAN301     -0.2174
     26  O8        49.1610   22.7430   18.2610 O.3   301  KAN301     -0.2176
     27  O9        48.4730   26.8340   20.0390 O.3   301  KAN301     -0.3269
     28  O10       46.7840   29.1640   20.1340 O.3   301  KAN301     -0.2178
     29  O11       47.6490   31.4640   21.7690 O.3   301  KAN301     -0.3269
     30  O12       45.4240   31.2610   21.0860 O.3   301  KAN301     -0.3257
     31  O13       47.4830   34.2180   21.7000 O.3   301  KAN301     -0.2161
     32  O14       44.0760   32.1850   24.3430 O.3   301  KAN301     -0.2188
     33  O15       43.9330   29.0310   21.7100 O.3   301  KAN301     -0.2176
@<TRIPOS>BOND
     1    19     6    1
     2     6     5    1
     3    23     5    1
     4    23     1    1
     5     5     4    1
     6     4    26    1
     7     4     3    1
     8     1     2    1
     9     1    27    1
    10     2     3    1
    11     2    24    1
    12     3    25    1
    13    27    10    1
    14    28     9    1
    15    10     9    1
    16    10    11    1
    17    20    11    1
    18     9     8    1
    19    13    30    1
    20    13    14    1
    21    13    29    1
    22    30    17    1
    23     8    29    1
    24     8     7    1
    25    11    12    1
    26    12     7    1
    27    14    31    1
    28    14    15    1
    29    33    18    1
    30     7    21    1
    31    18    17    1
    32    17    16    1
    33    16    15    1
    34    16    32    1
    35    15    22    1
