@<TRIPOS>MOLECULE
4gkr_ADP_A_1.pdb
 27 29 0 0 0
SMALL
GASTEIGER

@<TRIPOS>ATOM
      1  PB        10.6620    4.6220   37.4850 P.3   702  ADP702      0.5373
      2  O1B       11.2850    5.7120   36.6270 O.2   702  ADP702     -0.2221
      3  O2B        9.1870    4.7900   37.7430 O.3   702  ADP702     -0.1143
      4  O3B       11.1040    3.2660   37.0090 O.3   702  ADP702     -0.1143
      5  PA        10.6540    5.1710   40.3450 P.3   702  ADP702      0.2231
      6  O1A        9.8960    6.4590   40.4220 O.2   702  ADP702     -0.5169
      7  O2A        9.9830    3.9000   40.8060 O.3   702  ADP702     -0.4370
      8  O3A       11.3650    4.8840   38.9130 O.3   702  ADP702     -0.2261
      9  O5'       11.9580    5.5280   41.2030 O.3   702  ADP702     -0.3111
     10  C5'       13.0230    4.5930   41.3890 C.3   702  ADP702      0.1813
     11  C4'       13.4940    4.6390   42.8470 C.3   702  ADP702      0.1821
     12  O4'       14.2460    5.8270   43.1570 O.3   702  ADP702     -0.3135
     13  C3'       12.3180    4.6450   43.8040 C.3   702  ADP702      0.2184
     14  O3'       12.7120    3.8090   44.8840 O.3   702  ADP702     -0.2174
     15  C2'       12.1770    6.0990   44.2490 C.3   702  ADP702      0.2570
     16  O2'       11.6950    6.2560   45.5810 O.3   702  ADP702     -0.2130
     17  C1'       13.5750    6.6550   44.1210 C.3   702  ADP702      0.3186
     18  N9        13.5580    8.0340   43.5890 N.pl3 702  ADP702     -0.1439
     19  C8        13.3640    8.3580   42.3060 C.3   702  ADP702      0.3377
     20  N7        13.4200    9.6960   42.1110 N.2   702  ADP702     -0.2095
     21  C5        13.6720   10.2570   43.2930 C.2   702  ADP702      0.2526
     22  C6        13.8640   11.6370   43.7860 C.2   702  ADP702      0.4393
     23  N6        13.7930   12.6890   42.9480 N.pl3 702  ADP702      0.2180
     24  N1        14.0960   11.8000   45.1080 N.2   702  ADP702      0.0021
     25  C2        14.1700   10.7530   45.9620 C.3   702  ADP702      0.5254
     26  N3        14.0060    9.4720   45.5830 N.2   702  ADP702     -0.0055
     27  C4        13.7610    9.1590   44.2770 C.2   702  ADP702      0.3518
@<TRIPOS>BOND
     1     2     1    2
     2     4     1    1
     3     1     3    1
     4     1     8    1
     5     8     5    1
     6     5     6    2
     7     5     7    1
     8     5     9    1
     9     9    10    1
    10    10    11    1
    11    20    19    1
    12    20    21    2
    13    19    18    1
    14    11    12    1
    15    11    13    1
    16    23    22    1
    17    12    17    1
    18    21    22    1
    19    21    27    1
    20    18    17    1
    21    18    27    1
    22    22    24    2
    23    13    15    1
    24    13    14    1
    25    17    15    1
    26    15    16    1
    27    27    26    2
    28    24    25    1
    29    26    25    1
