@<TRIPOS>MOLECULE
4gl2_ANP_A_1.pdb
 31 33 0 0 0
SMALL
GASTEIGER

@<TRIPOS>ATOM
      1  PG        37.9930   12.5250  -10.8650 P.3   1101  ANP1101     0.4884
      2  O1G       38.4870   11.1120  -10.7810 O.3   1101  ANP1101    -0.1240
      3  O2G       37.2200   12.7210  -12.2130 O.2   1101  ANP1101    -0.2331
      4  O3G       37.0580   12.8380   -9.6420 O.3   1101  ANP1101    -0.1240
      5  PB        40.2310   13.4350   -9.5790 P.3   1101  ANP1101     0.4669
      6  O1B       39.6330   12.4180   -8.6560 O.3   1101  ANP1101    -0.1253
      7  O2B       40.4640   14.8110   -8.8210 O.2   1101  ANP1101    -0.2351
      8  N3B       39.2130   13.6610  -10.8790 N.3   1101  ANP1101    -0.0163
      9  PA        42.8540   13.2090  -10.6720 P.3   1101  ANP1101     0.2220
     10  O1A       43.8230   12.1990  -10.1090 O.3   1101  ANP1101    -0.4370
     11  O2A       43.0520   13.2420  -12.1820 O.2   1101  ANP1101    -0.5170
     12  O3A       41.4390   12.6920  -10.2670 O.3   1101  ANP1101    -0.2360
     13  O5'       43.1180   14.5950   -9.9890 O.3   1101  ANP1101    -0.3111
     14  C5'       44.0080   14.5910   -8.9290 C.3   1101  ANP1101     0.1813
     15  C4'       45.3370   15.0850   -9.4590 C.3   1101  ANP1101     0.1821
     16  O4'       45.1600   15.8670  -10.6010 O.3   1101  ANP1101    -0.3135
     17  C3'       46.0110   15.9000   -8.4310 C.3   1101  ANP1101     0.2184
     18  O3'       47.2070   15.3160   -8.0320 O.3   1101  ANP1101    -0.2174
     19  C2'       46.3480   17.1730   -9.0340 C.3   1101  ANP1101     0.2570
     20  O2'       47.7260   17.2680   -9.0730 O.3   1101  ANP1101    -0.2130
     21  C1'       45.8390   17.0810  -10.4120 C.3   1101  ANP1101     0.3186
     22  N9        44.9550   18.1830  -10.7210 N.pl3 1101  ANP1101    -0.1439
     23  C8        43.6090   18.1360  -10.6590 C.3   1101  ANP1101     0.3377
     24  N7        43.1180   19.3070  -11.0190 N.2   1101  ANP1101    -0.2095
     25  C5        44.1300   20.1350  -11.3190 C.2   1101  ANP1101     0.2526
     26  C6        44.2070   21.4570  -11.7440 C.2   1101  ANP1101     0.4393
     27  N6        42.9880   22.1840  -11.9340 N.pl3 1101  ANP1101     0.2180
     28  N1        45.4020   22.0350  -11.9700 N.2   1101  ANP1101     0.0021
     29  C2        46.5580   21.3450  -11.7880 C.3   1101  ANP1101     0.5254
     30  N3        46.5200   20.0490  -11.3700 N.2   1101  ANP1101    -0.0055
     31  C4        45.3320   19.4340  -11.1360 C.2   1101  ANP1101     0.3518
@<TRIPOS>BOND
     1     3     1    2
     2    11     9    2
     3    28    29    1
     4    28    26    2
     5    27    26    1
     6    29    30    1
     7    26    25    1
     8    30    31    2
     9    25    31    1
    10    25    24    2
    11    31    22    1
    12    24    23    1
    13     8     1    1
    14     8     5    1
    15     1     2    1
    16     1     4    1
    17    22    23    1
    18    22    21    1
    19     9    12    1
    20     9    10    1
    21     9    13    1
    22    16    21    1
    23    16    15    1
    24    21    19    1
    25    12     5    1
    26    13    14    1
    27     5     7    2
    28     5     6    1
    29    15    14    1
    30    15    17    1
    31    20    19    1
    32    19    17    1
    33    17    18    1
