@<TRIPOS>MOLECULE
4gl4_NAD_A_1.pdb
 44 48 0 0 0
SMALL
GASTEIGER

@<TRIPOS>ATOM
      1  PA        68.4660   20.6320   43.8730 P.3   403  NAD403      0.2189
      2  O1A       68.3640   21.6570   42.7860 O.2   403  NAD403     -0.5170
      3  O2A       69.6020   20.6670   44.8470 O.3   403  NAD403     -0.4371
      4  O5B       68.4800   19.2230   43.1480 O.3   403  NAD403     -0.3112
      5  C5B       67.7930   19.0500   41.9130 C.3   403  NAD403      0.1813
      6  C4B       68.4280   17.8820   41.2070 C.3   403  NAD403      0.1821
      7  O4B       67.5910   17.4020   40.1330 O.3   403  NAD403     -0.3135
      8  C3B       69.7730   18.1980   40.5920 C.3   403  NAD403      0.2184
      9  O3B       70.6880   17.1810   41.0710 O.3   403  NAD403     -0.2174
     10  C2B       69.5880   18.0900   39.0790 C.3   403  NAD403      0.2570
     11  O2B       70.6920   17.4790   38.3670 O.3   403  NAD403     -0.2130
     12  C1B       68.4280   17.1100   39.0050 C.3   403  NAD403      0.3186
     13  N9A       67.6300   17.2200   37.7820 N.pl3 403  NAD403     -0.1439
     14  C8A       67.1560   18.3640   37.2000 C.3   403  NAD403      0.3377
     15  N7A       66.4200   18.0460   36.1290 N.2   403  NAD403     -0.2095
     16  C5A       66.4330   16.6960   36.0280 C.2   403  NAD403      0.2526
     17  C6A       65.8390   15.7300   35.1260 C.2   403  NAD403      0.4393
     18  N6A       65.1090   16.2210   34.1080 N.pl3 403  NAD403      0.2180
     19  N1A       66.0010   14.4150   35.3730 N.2   403  NAD403      0.0021
     20  C2A       66.7340   13.9790   36.4280 C.3   403  NAD403      0.5254
     21  N3A       67.3270   14.8130   37.2930 N.2   403  NAD403     -0.0055
     22  C4A       67.1920   16.1480   37.1360 C.2   403  NAD403      0.3518
     23  O3        67.1050   20.7440   44.6880 O.3   403  NAD403     -0.2703
     24  PN        66.7460   20.2710   46.1940 P.3   403  NAD403      0.2189
     25  O1N       67.1020   21.3830   47.1500 O.3   403  NAD403     -0.4371
     26  O2N       67.2760   18.8780   46.2950 O.2   403  NAD403     -0.5170
     27  O5D       65.1510   20.3230   45.9970 O.3   403  NAD403     -0.3112
     28  C5D       64.4850   19.4250   45.0980 C.3   403  NAD403      0.1813
     29  C4D       62.9670   19.6770   45.0410 C.3   403  NAD403      0.1799
     30  O4D       62.3670   19.4500   46.3330 O.3   403  NAD403     -0.3327
     31  C3D       62.6150   21.1210   44.6470 C.3   403  NAD403      0.2158
     32  O3D       61.4680   21.1800   43.7950 O.3   403  NAD403     -0.2175
     33  C2D       62.2220   21.7580   45.9370 C.3   403  NAD403      0.2309
     34  O2D       61.3040   22.8370   45.8190 O.3   403  NAD403     -0.2158
     35  C1D       61.4980   20.5840   46.5780 C.3   403  NAD403      0.2263
     36  N1N       61.2570   20.6900   48.0030 N.pl3 403  NAD403     -0.2787
     37  C2N       60.0680   20.2570   48.4270 C.3   403  NAD403      0.1244
     38  C3N       59.6960   20.2550   49.7710 C.2   403  NAD403      0.0544
     39  C7N       58.3420   19.7150   50.1500 C.2   403  NAD403      0.2818
     40  O7N       57.8950   19.9290   51.2600 O.2   403  NAD403     -0.2670
     41  N7N       57.6730   18.9180   49.2790 N.am  403  NAD403     -0.0839
     42  C4N       60.6320   20.6950   50.7290 C.2   403  NAD403      0.0033
     43  C5N       61.8970   21.0790   50.2810 C.2   403  NAD403      0.0157
     44  C6N       62.1970   21.0970   48.9090 C.2   403  NAD403      0.0633
@<TRIPOS>BOND
     1    18    17    1
     2    17    19    2
     3    17    16    1
     4    19    20    1
     5    16    15    2
     6    16    22    1
     7    15    14    1
     8    20    21    1
     9    22    21    2
    10    22    13    1
    11    14    13    1
    12    13    12    1
    13    11    10    1
    14    12    10    1
    15    12     7    1
    16    10     8    1
    17     7     6    1
    18     8     9    1
    19     8     6    1
    20     6     5    1
    21     5     4    1
    22     2     1    2
    23     4     1    1
    24    32    31    1
    25     1    23    1
    26     1     3    1
    27    31    29    1
    28    31    33    1
    29    23    24    1
    30    29    28    1
    31    29    30    1
    32    28    27    1
    33    34    33    1
    34    33    35    1
    35    27    24    1
    36    24    26    2
    37    24    25    1
    38    30    35    1
    39    35    36    1
    40    36    37    1
    41    36    44    1
    42    37    38    1
    43    44    43    2
    44    41    39   am
    45    38    39    1
    46    38    42    2
    47    39    40    2
    48    43    42    1
