@<TRIPOS>MOLECULE
4gl5_G29_A_1.pdb
 26 29 0 0 0
SMALL
GASTEIGER

@<TRIPOS>ATOM
      1  O1        88.3530   49.7720   48.3360 O.2   601  G29601     -0.2866
      2  C3        87.6400   50.5840   47.6970 C.2   601  G29601      0.1949
      3  C2        87.6670   50.5840   46.3050 C.2   601  G29601      0.0377
      4  C1        86.8990   51.4920   45.5780 C.2   601  G29601     -0.0197
      5  C10       85.9960   52.4620   46.2000 C.3   601  G29601      0.0361
      6  C19       84.6220   52.0750   45.6710 C.3   601  G29601      0.0085
      7  C9        86.3460   53.9030   45.8340 C.3   601  G29601      0.0074
      8  C11       86.5080   54.1270   44.3150 C.3   601  G29601      0.0010
      9  C12       86.5970   55.5990   43.8930 C.3   601  G29601      0.0069
     10  C4        86.8240   51.4850   48.3830 C.2   601  G29601      0.0361
     11  C5        86.0100   52.3920   47.7120 C.2   601  G29601     -0.0113
     12  C6        85.2050   53.3300   48.5420 C.3   601  G29601      0.1352
     13  O         83.7910   53.1020   48.5500 O.3   601  G29601     -0.3384
     14  C23       83.3390   51.8090   48.9860 C.3   601  G29601      0.2180
     15  C24       83.1920   51.5590   50.4460 C.1   601  G29601     -0.0585
     16  C25       83.0490   51.2930   51.5990 C.1   601  G29601     -0.0876
     17  C26       82.8990   50.9720   53.0330 C.3   601  G29601      0.0900
     18  C7        85.4690   54.7490   48.0440 C.3   601  G29601      0.0339
     19  C8        85.3420   54.8390   46.5270 C.3   601  G29601      0.0038
     20  C14       85.5770   56.2510   46.0320 C.3   601  G29601      0.0071
     21  C13       85.4480   56.3770   44.5200 C.3   601  G29601      0.0515
     22  C18       84.1170   55.9140   43.9320 C.3   601  G29601      0.0073
     23  C15       84.7530   57.3750   46.6440 C.3   601  G29601      0.0082
     24  C16       84.9790   58.5450   45.6820 C.3   601  G29601      0.0645
     25  C17       85.5020   57.8770   44.4310 C.2   601  G29601      0.1498
     26  O2        85.9160   58.5080   43.4730 O.2   601  G29601     -0.2961
@<TRIPOS>BOND
     1    26    25    2
     2     9     8    1
     3     9    21    1
     4    22    21    1
     5     8     7    1
     6    25    21    1
     7    25    24    1
     8    21    20    1
     9     4     5    1
    10     4     3    2
    11     6     5    1
    12    24    23    1
    13     7     5    1
    14     7    19    1
    15    20    19    1
    16    20    23    1
    17     5    11    1
    18     3     2    1
    19    19    18    1
    20     2     1    2
    21     2    10    1
    22    11    10    2
    23    11    12    1
    24    18    12    1
    25    12    13    1
    26    13    14    1
    27    14    15    1
    28    15    16    3
    29    16    17    1
