@<TRIPOS>MOLECULE
4gl5_HEM_A_1.pdb
 43 50 0 0 0
SMALL
GASTEIGER

@<TRIPOS>ATOM
      1  CHA       86.4850   52.4520   41.1040 C.2   600  HEM600      0.0000
      2  CHB       81.9530   51.1830   42.1670 C.2   600  HEM600      0.0000
      3  CHC       83.4380   46.6920   43.2450 C.2   600  HEM600      0.0000
      4  CHD       87.9700   47.8780   42.0330 C.2   600  HEM600      0.0000
      5  C1A       85.1210   52.4840   41.2640 C.ar  600  HEM600      0.0000
      6  C2A       84.2570   53.6010   40.9470 C.ar  600  HEM600      0.0000
      7  C3A       83.0100   53.2460   41.2360 C.ar  600  HEM600      0.0000
      8  C4A       83.0390   51.9000   41.7470 C.ar  600  HEM600      0.0000
      9  CMA       81.7470   54.1080   41.0630 C.3   600  HEM600      0.0000
     10  CAA       84.7020   54.9590   40.3680 C.3   600  HEM600      0.0000
     11  CBA       84.8240   54.8300   38.8520 C.3   600  HEM600      0.0000
     12  CGA       84.6500   56.1790   38.2080 C.2   600  HEM600      0.0000
     13  O1A       85.4300   57.1110   38.5310 O.co2 600  HEM600      0.0000
     14  O2A       83.7320   56.3240   37.3640 O.co2 600  HEM600      0.0000
     15  C1B       81.9740   49.8880   42.6170 C.2   600  HEM600      0.0000
     16  C2B       80.8660   49.1730   43.2060 C.2   600  HEM600      0.0000
     17  C3B       81.2870   47.9510   43.5020 C.2   600  HEM600      0.0000
     18  C4B       82.6680   47.8290   43.1100 C.2   600  HEM600      0.0000
     19  CMB       79.4480   49.7300   43.4520 C.3   600  HEM600      0.0000
     20  CAB       80.4560   46.8280   44.1440 C.2   600  HEM600      0.0000
     21  CBB       79.3950   46.3520   43.4820 C.2   600  HEM600      0.0000
     22  C1C       84.7820   46.6080   42.9830 C.ar  600  HEM600      0.0000
     23  C2C       85.5990   45.4210   43.1190 C.ar  600  HEM600      0.0000
     24  C3C       86.8600   45.7490   42.7910 C.ar  600  HEM600      0.0000
     25  C4C       86.8710   47.1560   42.4370 C.ar  600  HEM600      0.0000
     26  CMC       85.0770   44.0370   43.5720 C.3   600  HEM600      0.0000
     27  CAC       88.0930   44.8120   42.7820 C.2   600  HEM600      0.0000
     28  CBC       88.3550   44.0050   43.8220 C.2   600  HEM600      0.0000
     29  C1D       88.0040   49.2220   41.7030 C.2   600  HEM600      0.0000
     30  C2D       89.2040   49.9640   41.3850 C.2   600  HEM600      0.0000
     31  C3D       88.7430   51.3890   41.0930 C.2   600  HEM600      0.0000
     32  C4D       87.3130   51.3730   41.2640 C.2   600  HEM600      0.0000
     33  CMD       90.6430   49.4250   41.3560 C.3   600  HEM600      0.0000
     34  CAD       89.6260   52.5800   40.7070 C.3   600  HEM600      0.0000
     35  CBD       89.6820   52.6690   39.1910 C.3   600  HEM600      0.0000
     36  CGD       90.4690   53.9000   38.8130 C.2   600  HEM600      0.0000
     37  O1D       91.4270   53.7740   38.0040 O.co2 600  HEM600      0.0000
     38  O2D       90.1510   55.0120   39.3230 O.co2 600  HEM600      0.0000
     39  NA        84.3400   51.4600   41.7460 N.ar  600  HEM600      0.0000
     40  NB        83.0580   49.0420   42.5730 N.2   600  HEM600      0.0000
     41  NC        85.5850   47.6460   42.5540 N.ar  600  HEM600      0.0000
     42  ND        86.9140   50.0920   41.6210 N.2   600  HEM600      0.0000
     43 FE         84.9420   49.5740   42.1060 Fe    600  HEM600      0.0000
@<TRIPOS>BOND
     1    14    12   ar
     2    37    36   ar
     3    12    13   ar
     4    12    11    1
     5    36    35    1
     6    36    38   ar
     7    11    10    1
     8    35    34    1
     9    10     6    1
    10    34    31    1
    11     6     7   ar
    12     6     5   ar
    13     9     7    1
    14    31    32    1
    15    31    30    2
    16     1     5    2
    17     1    32    1
    18     7     8   ar
    19     5    39   ar
    20    32    42    2
    21    33    30    1
    22    30    29    1
    23    42    29    1
    24    42    43    1
    25    29     4    2
    26    39     8   ar
    27    39    43    1
    28     8     2    2
    29     4    25    1
    30    43    41    1
    31    43    40    1
    32     2    15    1
    33    25    41   ar
    34    25    24   ar
    35    41    22   ar
    36    40    15    2
    37    40    18    1
    38    15    16    1
    39    27    24    1
    40    27    28    2
    41    24    23   ar
    42    22    23   ar
    43    22     3    1
    44    18     3    2
    45    18    17    1
    46    23    26    1
    47    16    19    1
    48    16    17    2
    49    21    20    2
    50    17    20    1
