@<TRIPOS>MOLECULE
4gl7_0XJ_A_1.pdb
 27 30 0 0 0
SMALL
GASTEIGER

@<TRIPOS>ATOM
      1  C8        86.2250   55.2780   46.7320 C.3   601  0XJ601      0.0038
      2  C5        86.9030   52.7270   47.7490 C.2   601  0XJ601     -0.0113
      3  C6        86.1010   53.6080   48.6490 C.3   601  0XJ601      0.1352
      4  C2        88.5050   51.0410   46.1740 C.2   601  0XJ601      0.0377
      5  C4        87.6650   51.7110   48.3270 C.2   601  0XJ601      0.0361
      6  O2        86.7660   59.2070   44.0850 O.2   601  0XJ601     -0.2961
      7  C17       86.2770   58.4610   44.9290 C.2   601  0XJ601      0.1498
      8  C13       86.2300   56.9570   44.8900 C.3   601  0XJ601      0.0515
      9  C18       84.8490   56.5180   44.3980 C.3   601  0XJ601      0.0073
     10  C12       87.3410   56.2370   44.1540 C.3   601  0XJ601      0.0069
     11  C11       87.2450   54.7460   44.4610 C.3   601  0XJ601      0.0010
     12  C16       85.6420   58.9880   46.1870 C.3   601  0XJ601      0.0645
     13  C15       85.5750   57.7420   47.0700 C.3   601  0XJ601      0.0082
     14  C14       86.4510   56.7210   46.3630 C.3   601  0XJ601      0.0071
     15  C9        87.2250   54.4250   45.9620 C.3   601  0XJ601      0.0074
     16  C7        86.3420   55.0600   48.2400 C.3   601  0XJ601      0.0339
     17  C10       86.8990   52.9640   46.2530 C.3   601  0XJ601      0.0361
     18  C19       85.5270   52.5910   45.7020 C.3   601  0XJ601      0.0085
     19  C1        87.7830   52.0500   45.5520 C.2   601  0XJ601     -0.0197
     20  C3        88.4540   50.8720   47.5420 C.2   601  0XJ601      0.1949
     21  O1        89.1390   49.9500   48.0320 O.2   601  0XJ601     -0.2866
     22  O         84.6850   53.3900   48.6400 O.3   601  0XJ601     -0.3384
     23  C20       84.2750   52.0960   49.1260 C.3   601  0XJ601      0.2180
     24  C21       83.9470   51.9490   50.5760 C.1   601  0XJ601     -0.0585
     25  C22       83.6060   51.8400   51.7220 C.1   601  0XJ601     -0.0886
     26  C23       83.2480   51.7110   53.1530 C.3   601  0XJ601      0.0762
     27  C24       84.2610   50.8520   53.9010 C.3   601  0XJ601      0.0150
@<TRIPOS>BOND
     1     6     7    2
     2    10    11    1
     3    10     8    1
     4     9     8    1
     5    11    15    1
     6     8     7    1
     7     8    14    1
     8     7    12    1
     9    19     4    2
    10    19    17    1
    11    18    17    1
    12    15    17    1
    13    15     1    1
    14     4    20    1
    15    12    13    1
    16    17     2    1
    17    14     1    1
    18    14    13    1
    19     1    16    1
    20    20    21    2
    21    20     5    1
    22     2     5    2
    23     2     3    1
    24    16     3    1
    25    22     3    1
    26    22    23    1
    27    23    24    1
    28    24    25    3
    29    25    26    1
    30    26    27    1
