@<TRIPOS>MOLECULE
4gl7_HEM_A_1.pdb
 43 50 0 0 0
SMALL
GASTEIGER

@<TRIPOS>ATOM
      1  CHA       87.3300   53.0690   41.2520 C.2   600  HEM600      0.0000
      2  CHB       82.8010   51.6560   42.2530 C.2   600  HEM600      0.0000
      3  CHC       84.3850   47.2170   43.1900 C.2   600  HEM600      0.0000
      4  CHD       88.8640   48.5820   42.2050 C.2   600  HEM600      0.0000
      5  C1A       85.9710   53.0370   41.4460 C.2   600  HEM600      0.0000
      6  C2A       85.1170   54.1770   41.2460 C.2   600  HEM600      0.0000
      7  C3A       83.8580   53.8050   41.5110 C.2   600  HEM600      0.0000
      8  C4A       83.8820   52.4060   41.8870 C.2   600  HEM600      0.0000
      9  CMA       82.6040   54.7090   41.4290 C.3   600  HEM600      0.0000
     10  CAA       85.6220   55.5720   40.7920 C.3   600  HEM600      0.0000
     11  CBA       86.1270   55.4820   39.3490 C.3   600  HEM600      0.0000
     12  CGA       85.5230   56.5530   38.4670 C.2   600  HEM600      0.0000
     13  O1A       86.0250   57.7250   38.5290 O.co2 600  HEM600      0.0000
     14  O2A       84.5550   56.2120   37.7080 O.co2 600  HEM600      0.0000
     15  C1B       82.8560   50.3800   42.7300 C.ar  600  HEM600      0.0000
     16  C2B       81.8370   49.6510   43.4690 C.ar  600  HEM600      0.0000
     17  C3B       82.3020   48.4320   43.7140 C.ar  600  HEM600      0.0000
     18  C4B       83.6160   48.3440   43.1480 C.ar  600  HEM600      0.0000
     19  CMB       80.4480   50.1530   43.9110 C.3   600  HEM600      0.0000
     20  CAB       81.5910   47.2840   44.4610 C.2   600  HEM600      0.0000
     21  CBB       80.8060   46.4400   43.7870 C.2   600  HEM600      0.0000
     22  C1C       85.7250   47.2150   42.9840 C.2   600  HEM600      0.0000
     23  C2C       86.5640   46.0590   43.1390 C.2   600  HEM600      0.0000
     24  C3C       87.8290   46.4320   42.8740 C.2   600  HEM600      0.0000
     25  C4C       87.7780   47.8410   42.5460 C.2   600  HEM600      0.0000
     26  CMC       86.0180   44.6680   43.5540 C.3   600  HEM600      0.0000
     27  CAC       89.1360   45.5770   42.8870 C.2   600  HEM600      0.0000
     28  CBC       89.1270   44.2380   42.9440 C.2   600  HEM600      0.0000
     29  C1D       88.8730   49.9100   41.8940 C.ar  600  HEM600      0.0000
     30  C2D       90.0770   50.6540   41.6520 C.ar  600  HEM600      0.0000
     31  C3D       89.6020   52.0680   41.3620 C.ar  600  HEM600      0.0000
     32  C4D       88.1740   52.0220   41.4450 C.ar  600  HEM600      0.0000
     33  CMD       91.5040   50.0850   41.7110 C.3   600  HEM600      0.0000
     34  CAD       90.4380   53.2760   41.0200 C.3   600  HEM600      0.0000
     35  CBD       90.5420   53.2150   39.5090 C.3   600  HEM600      0.0000
     36  CGD       91.4950   54.3060   39.0930 C.2   600  HEM600      0.0000
     37  O1D       92.6810   53.9940   38.7660 O.co2 600  HEM600      0.0000
     38  O2D       91.0730   55.4980   39.1090 O.co2 600  HEM600      0.0000
     39  NA        85.1800   51.9640   41.8170 N.2   600  HEM600      0.0000
     40  NB        83.9310   49.5540   42.5510 N.ar  600  HEM600      0.0000
     41  NC        86.4830   48.2930   42.6010 N.2   600  HEM600      0.0000
     42  ND        87.7660   50.7380   41.7580 N.ar  600  HEM600      0.0000
     43 FE         85.7910   50.1700   42.1650 Fe    600  HEM600      0.0000
@<TRIPOS>BOND
     1    14    12   ar
     2    12    13   ar
     3    12    11    1
     4    37    36   ar
     5    36    38   ar
     6    36    35    1
     7    11    10    1
     8    35    34    1
     9    10     6    1
    10    34    31    1
    11     6     5    1
    12     6     7    2
    13     1    32    2
    14     1     5    1
    15    31    32   ar
    16    31    30   ar
    17     9     7    1
    18    32    42   ar
    19     5    39    2
    20     7     8    1
    21    30    33    1
    22    30    29   ar
    23    42    29   ar
    24    42    43    1
    25    39     8    1
    26    39    43    1
    27     8     2    2
    28    29     4    2
    29    43    40    1
    30    43    41    1
    31     4    25    1
    32     2    15    1
    33    25    41    2
    34    25    24    1
    35    40    15   ar
    36    40    18   ar
    37    41    22    1
    38    15    16   ar
    39    24    27    1
    40    24    23    2
    41    27    28    2
    42    22    23    1
    43    22     3    2
    44    23    26    1
    45    18     3    1
    46    18    17   ar
    47    16    17   ar
    48    16    19    1
    49    17    20    1
    50    21    20    2
