@<TRIPOS>MOLECULE
4gl8_III_C_1.pdb
 22 21 0 0 0
SMALL
GASTEIGER

@<TRIPOS>ATOM
      1  N         89.8480   59.9980   15.9110 N.3     0  UNK0       -0.1231
      2  CA        90.2680   60.2920   14.5080 C.3     0  UNK0        0.1693
      3  C         89.4900   61.4830   13.9970 C.2     0  UNK0        0.2592
      4  O         88.3860   61.7550   14.4510 O.2     0  UNK0       -0.2718
      5  CB        90.1010   59.0520   13.6050 C.3     0  UNK0        0.0284
      6  CG        91.1980   57.9830   13.7800 C.3     0  UNK0        0.0021
      7  N         90.0610   62.2040   13.0420 N.am    1  UNK1       -0.1966
      8  CA        89.3760   63.3200   12.3880 C.3     1  UNK1        0.1728
      9  C         88.2790   62.7570   11.5280 C.2     1  UNK1        0.2616
     10  O         88.5480   61.9310   10.6660 O.2     1  UNK1       -0.2715
     11  CB        90.3980   64.1420   11.5840 C.3     1  UNK1        0.0334
     12  N         87.0360   63.1920   11.7700 N.am    2  UNK2       -0.1963
     13  CA        85.8400   62.6860   11.0710 C.3     2  UNK2        0.1728
     14  C         85.3180   63.5480    9.9060 C.2     2  UNK2        0.2617
     15  O         85.2530   64.7720   10.0340 O.2     2  UNK2       -0.2715
     16  CB        84.7470   62.6370   12.1530 C.3     2  UNK2        0.0334
     17  N         84.8730   62.8980    8.8090 N.am    3  UNK3       -0.1942
     18  CA        84.4130   63.5590    7.5670 C.3     3  UNK3        0.1979
     19  C         83.1870   64.4250    7.7730 C.2     3  UNK3        0.3842
     20  O         82.9080   65.3580    6.9720 O.co2   3  UNK3       -0.2437
     21  CB        84.0950   62.5360    6.4480 C.3     3  UNK3        0.0356
     22  OXT       82.4400   64.1960    8.7480 O.co2   3  UNK3       -0.2437
@<TRIPOS>BOND
     1    21    18    1
     2    20    19   ar
     3    18    19    1
     4    18    17    1
     5    19    22   ar
     6    17    14   am
     7    14    15    2
     8    14    13    1
     9    10     9    2
    10    13    12    1
    11    13    16    1
    12     9    12   am
    13     9     8    1
    14    11     8    1
    15     8     7    1
    16     7     3   am
    17     5     6    1
    18     5     2    1
    19     3     4    2
    20     3     2    1
    21     2     1    1
