@<TRIPOS>MOLECULE
4gl9_IZA_A_1.pdb
 23 26 0 0 0
SMALL
GASTEIGER

@<TRIPOS>ATOM
      1  O0       -73.1140   13.5510   14.0530 O.2   2001  IZA2001    -0.2219
      2  C11      -73.0260   13.8740   12.8790 C.1   2001  IZA2001     0.1545
      3  N2       -72.2130   13.0410   12.0300 N.2   2001  IZA2001    -0.1747
      4  C12      -72.0530   13.3410   10.6470 C.2   2001  IZA2001     0.1112
      5  C13      -72.7330   14.5230   10.0840 C.2   2001  IZA2001     0.0249
      6  C9       -73.5730   15.3850   10.9540 C.ar  2001  IZA2001     0.0456
      7  C1       -74.2270   16.5430   10.3540 C.ar  2001  IZA2001     0.1744
      8  C10      -73.7330   15.0950   12.3130 C.ar  2001  IZA2001     0.0859
      9  C8       -74.5810   15.9870   13.1340 C.ar  2001  IZA2001     0.0158
     10  C7       -74.7880   15.7510   14.5250 C.ar  2001  IZA2001     0.0304
     11  C6       -75.5880   16.5950   15.2890 C.ar  2001  IZA2001     0.1402
     12  F1       -75.7580   16.3470   16.5830 F     2001  IZA2001    -0.2042
     13  C5       -76.2060   17.7020   14.6950 C.ar  2001  IZA2001     0.0297
     14  C4       -76.0150   17.9480   13.3370 C.ar  2001  IZA2001     0.0050
     15  C3       -75.1970   17.0820   12.5580 C.ar  2001  IZA2001     0.0339
     16  C0       -75.0160   17.3700   11.1250 C.ar  2001  IZA2001     0.1737
     17  N1       -75.4940   18.3640   10.3000 N.2   2001  IZA2001    -0.3411
     18  C2       -75.0060   18.1450    9.0560 C.1   2001  IZA2001     0.1113
     19  N0       -74.2300   17.0390    9.0670 N.2   2001  IZA2001    -0.3411
     20  C14      -75.2820   18.9950    7.8600 C.3   2001  IZA2001     0.0954
     21  C17      -76.3660   19.9640    8.1900 C.3   2001  IZA2001     0.0170
     22  C16      -75.7120   18.1310    6.7220 C.3   2001  IZA2001     0.0170
     23  C15      -74.0450   19.7380    7.4800 C.3   2001  IZA2001     0.0170
@<TRIPOS>BOND
     1    22    20    1
     2    23    20    1
     3    20    21    1
     4    20    18    1
     5    18    19    2
     6    18    17    2
     7    19     7    2
     8     5     4    2
     9     5     6    1
    10    17    16    2
    11     7     6   ar
    12     7    16   ar
    13     4     3    1
    14     6     8   ar
    15    16    15   ar
    16     3     2    2
    17     8     2    1
    18     8     9   ar
    19    15     9   ar
    20    15    14   ar
    21     2     1    2
    22     9    10   ar
    23    14    13   ar
    24    10    11   ar
    25    13    11   ar
    26    11    12    1
