@<TRIPOS>MOLECULE
4glb_XXH_A_1.pdb
 11 11 0 0 0
SMALL
GASTEIGER

@<TRIPOS>ATOM
      1  O3       -36.1570   -3.3390   10.3720 O.2   301  XXH301     -0.2831
      2  C4       -37.2900   -5.1940   11.2390 C.ar  301  XXH301      0.0423
      3  C5       -37.0590   -4.1490   10.2240 C.2   301  XXH301      0.2342
      4  C6       -37.3340   -4.8450   12.5850 C.ar  301  XXH301      0.0050
      5  N1       -37.9360   -8.1470   14.1540 N.pl3 301  XXH301      0.0577
      6  C7       -37.5470   -5.8300   13.5450 C.ar  301  XXH301      0.0242
      7  C3       -37.4580   -6.5230   10.8460 C.ar  301  XXH301      0.0050
      8  C2       -37.6750   -7.5100   11.8080 C.ar  301  XXH301      0.0242
      9  C1       -37.7190   -7.1650   13.1650 C.ar  301  XXH301      0.1429
     10  O1       -38.4500   -9.2230   13.8750 O.2   301  XXH301     -0.1261
     11  O2       -37.6120   -7.9280   15.3110 O.2   301  XXH301     -0.1261
@<TRIPOS>BOND
     1     3     1    2
     2     3     2    1
     3     7     2   ar
     4     7     8   ar
     5     2     4   ar
     6     8     9   ar
     7     4     6   ar
     8     9     6   ar
     9     9     5    1
    10    10     5    2
    11     5    11    2
