@<TRIPOS>MOLECULE
4gld_III_B_1.pdb
 46 47 0 0 0
SMALL
GASTEIGER

@<TRIPOS>ATOM
      1  N        -12.0430   27.5760   -5.6480 N.3     1  PHE1       -0.1227
      2  CA       -10.8290   27.4960   -4.8500 C.3     1  PHE1        0.1736
      3  C        -10.8670   26.1670   -4.1340 C.2     1  PHE1        0.2595
      4  O        -11.9230   25.5360   -4.1080 O.2     1  PHE1       -0.2718
      5  CB       -10.7460   28.6980   -3.9910 C.3     1  PHE1        0.0547
      6  CG       -10.7860   29.9990   -4.7450 C.ar    1  PHE1       -0.0202
      7  CD1      -10.0780   30.1590   -5.8730 C.ar    1  PHE1       -0.0042
      8  CD2      -11.5520   31.0770   -4.2790 C.ar    1  PHE1       -0.0042
      9  CE1      -10.1150   31.3430   -6.5460 C.ar    1  PHE1       -0.0003
     10  CE2      -11.5540   32.2650   -4.9220 C.ar    1  PHE1       -0.0003
     11  CZ       -10.8530   32.3930   -6.0550 C.ar    1  PHE1       -0.0000
     12  N         -9.7990   25.7160   -3.5040 N.am    2  LEU2       -0.1966
     13  CA       -10.0860   24.5010   -2.8170 C.3     2  LEU2        0.1728
     14  C        -10.8110   23.3610   -3.6660 C.2     2  LEU2        0.2616
     15  O        -11.8110   22.7110   -3.2340 O.2     2  LEU2       -0.2715
     16  CB       -10.7400   24.7790   -1.4210 C.3     2  LEU2        0.0311
     17  CG       -12.2850   24.7340   -1.4640 C.3     2  LEU2        0.0022
     18  CD1      -12.8720   23.7510   -0.5260 C.3     2  LEU2        0.0001
     19  CD2      -12.8240   26.0560   -1.0960 C.3     2  LEU2        0.0001
     20  N        -10.2900   23.1660   -4.8580 N.am    3  ALA3       -0.1963
     21  CA        -9.9960   21.8420   -5.4220 C.3     3  ALA3        0.1728
     22  C         -8.5780   21.5710   -5.0280 C.2     3  ALA3        0.2616
     23  O         -8.2990   21.0080   -4.0000 O.2     3  ALA3       -0.2715
     24  CB       -10.1960   21.7650   -6.9420 C.3     3  ALA3        0.0334
     25  N         -7.6810   22.1110   -5.8190 N.am    4  TYR4       -0.1960
     26  CA        -6.3590   21.5550   -6.1700 C.3     4  TYR4        0.1771
     27  C         -5.3350   21.6360   -5.0150 C.2     4  TYR4        0.2620
     28  O         -5.6890   21.4590   -3.8660 O.2     4  TYR4       -0.2715
     29  CB        -5.7940   22.1360   -7.5130 C.3     4  TYR4        0.0574
     30  CG        -6.4120   21.6070   -8.8430 C.ar    4  TYR4       -0.0198
     31  CD1       -5.7970   20.5810   -9.5720 C.ar    4  TYR4       -0.0009
     32  CD2       -7.5590   22.1230   -9.3660 C.ar    4  TYR4       -0.0009
     33  CE1       -6.3190   20.1030  -10.7880 C.ar    4  TYR4        0.0417
     34  CE2       -8.0980   21.6220  -10.5420 C.ar    4  TYR4        0.0417
     35  CZ        -7.4390   20.6330  -11.2590 C.ar    4  TYR4        0.1957
     36  OH        -7.9490   20.1190  -12.3870 O.3     4  TYR4       -0.2866
     37  N         -4.0600   21.6690   -5.3140 N.am    5  LYS5       -0.1941
     38  CA        -2.9680   20.9630   -4.6100 C.3     5  LYS5        0.1978
     39  C         -3.0730   19.4820   -4.9300 C.2     5  LYS5        0.3842
     40  O         -2.2000   18.9140   -5.6030 O.co2   5  LYS5       -0.2437
     41  CB        -2.9860   21.0720   -3.1060 C.3     5  LYS5        0.0333
     42  CG        -1.6750   20.5990   -2.5150 C.3     5  LYS5        0.0039
     43  CD        -1.3230   19.0960   -2.5820 C.3     5  LYS5        0.0206
     44  CE        -0.1680   18.6570   -3.5380 C.3     5  LYS5        0.1093
     45  NZ         0.6550   17.4230   -3.0120 N.3     5  LYS5       -0.1314
     46  OXT       -4.0410   18.8430   -4.4860 O.co2   5  LYS5       -0.2437
@<TRIPOS>BOND
     1    36    35    1
     2    35    33   ar
     3    35    34   ar
     4    33    31   ar
     5    34    32   ar
     6    31    30   ar
     7    32    30   ar
     8    30    29    1
     9    29    26    1
    10    24    21    1
    11     9    11   ar
    12     9     7   ar
    13    26    25    1
    14    26    27    1
    15    11    10   ar
    16     7     6   ar
    17    25    22   am
    18     1     2    1
    19    40    39   ar
    20    21    22    1
    21    21    20    1
    22    37    27   am
    23    37    38    1
    24    22    23    2
    25    27    28    2
    26    39    38    1
    27    39    46   ar
    28    10     8   ar
    29    20    14   am
    30     2     3    1
    31     2     5    1
    32     6     8   ar
    33     6     5    1
    34    38    41    1
    35     3     4    2
    36     3    12   am
    37    14    15    2
    38    14    13    1
    39    44    45    1
    40    44    43    1
    41    12    13    1
    42    41    42    1
    43    13    16    1
    44    43    42    1
    45    17    16    1
    46    17    19    1
    47    17    18    1
