@<TRIPOS>MOLECULE
4glj_RHB_A_1.pdb
 33 37 0 0 0
SMALL
GASTEIGER

@<TRIPOS>ATOM
      1  O2        45.4410   48.5860   58.4260 O.2   301  RHB301     -0.4209
      2  C26       46.3990   48.4030   57.6510 C.ar  301  RHB301      0.3457
      3  C19       46.2890   47.4430   56.5120 C.ar  301  RHB301      0.0760
      4  C14       45.1270   46.8150   56.0660 C.ar  301  RHB301      0.0062
      5  C15       45.2220   45.9650   54.9720 C.ar  301  RHB301      0.0002
      6  C16       46.4150   45.7160   54.3230 C.ar  301  RHB301      0.0000
      7  C17       47.5590   46.3280   54.7720 C.ar  301  RHB301      0.0002
      8  C18       47.4770   47.1910   55.8550 C.ar  301  RHB301      0.0065
      9  C9        43.7380   46.9380   56.6110 C.ar  301  RHB301      0.0054
     10  C8        42.7990   45.8210   56.2900 C.ar  301  RHB301      0.0170
     11  C13       43.1920   44.7210   55.5420 C.3   301  RHB301      0.0567
     12  C12       42.3160   43.6740   55.2440 C.2   301  RHB301     -0.0067
     13  C11       41.0260   43.6980   55.7240 C.2   301  RHB301      0.0469
     14  N1        40.0960   42.6860   55.3960 N.pl3 301  RHB301     -0.3077
     15  C35       40.3610   42.4440   53.9650 C.3   301  RHB301      0.0908
     16  C36       40.5220   43.8120   53.3220 C.3   301  RHB301      0.0232
     17  C22       40.0340   41.4220   56.1860 C.3   301  RHB301      0.0908
     18  C23       39.0430   41.5750   57.3510 C.3   301  RHB301      0.0232
     19  C10       40.6380   44.8200   56.4430 C.2   301  RHB301      0.0514
     20  C7        41.5090   45.8610   56.7420 C.ar  301  RHB301      0.1428
     21  O1        41.0730   46.9290   57.4840 O.2   301  RHB301     -0.4536
     22  C1        41.8580   48.0010   57.8150 C.ar  301  RHB301      0.1494
     23  C2        43.1860   48.0750   57.4160 C.ar  301  RHB301      0.0691
     24  C6        41.2910   49.0140   58.5730 C.ar  301  RHB301      0.0522
     25  C5        42.0300   50.1190   58.9490 C.ar  301  RHB301      0.0540
     26  C4        43.3600   50.2100   58.5610 C.ar  301  RHB301      0.0523
     27  C3        43.9360   49.1920   57.7950 C.ar  301  RHB301      0.1528
     28  N2        41.4040   51.1290   59.7030 N.pl3 301  RHB301     -0.3073
     29  C24       41.0270   50.6660   61.0540 C.3   301  RHB301      0.0908
     30  C25       39.8570   51.4990   61.5400 C.3   301  RHB301      0.0232
     31  C33       42.2520   52.3380   59.7580 C.3   301  RHB301      0.0908
     32  C34       41.3630   53.5460   59.9820 C.3   301  RHB301      0.0232
     33  O3        47.4660   49.0360   57.7680 O.2   301  RHB301     -0.2445
@<TRIPOS>BOND
     1    16    15    1
     2    15    14    1
     3     6     7   ar
     4     6     5   ar
     5     7     8   ar
     6     5     4   ar
     7    12    11    1
     8    12    13    2
     9    14    13    1
    10    14    17    1
    11    11    10    1
    12    13    19    1
    13     8     3   ar
    14     4     3   ar
    15     4     9   ar
    16    17    18    1
    17    10     9   ar
    18    10    20   ar
    19    19    20    2
    20     3     2   ar
    21     9    23    1
    22    20    21   ar
    23    23    27   ar
    24    23    22   ar
    25    21    22   ar
    26     2    33    2
    27     2     1   ar
    28    27     1   ar
    29    27    26   ar
    30    22    24   ar
    31    26    25   ar
    32    24    25   ar
    33    25    28    1
    34    28    31    1
    35    28    29    1
    36    31    32    1
    37    29    30    1
