@<TRIPOS>MOLECULE
4gll_NAD_A_1.pdb
 44 48 0 0 0
SMALL
GASTEIGER

@<TRIPOS>ATOM
      1  PA        48.3100   23.0500   38.6730 P.3   800  NAD800      0.2189
      2  O1A       47.6680   21.8350   38.2670 O.3   800  NAD800     -0.4371
      3  O2A       48.5810   23.9890   37.6510 O.2   800  NAD800     -0.5170
      4  O5B       47.4270   23.7250   39.7350 O.3   800  NAD800     -0.3112
      5  C5B       47.3790   25.1010   39.9680 C.3   800  NAD800      0.1813
      6  C4B       45.9410   25.5680   39.8960 C.3   800  NAD800      0.1821
      7  O4B       45.8440   26.9420   40.1690 O.3   800  NAD800     -0.3135
      8  C3B       45.3260   25.3780   38.5470 C.3   800  NAD800      0.2184
      9  O3B       44.1810   24.6060   38.7840 O.3   800  NAD800     -0.2174
     10  C2B       45.0270   26.7730   38.0490 C.3   800  NAD800      0.2570
     11  O2B       43.9040   26.9160   37.2160 O.3   800  NAD800     -0.2130
     12  C1B       44.9170   27.5560   39.3260 C.3   800  NAD800      0.3186
     13  N9A       45.2290   28.9630   39.1690 N.pl3 800  NAD800     -0.1439
     14  C8A       46.3210   29.4600   38.6320 C.3   800  NAD800      0.3377
     15  N7A       46.3040   30.7750   38.6690 N.2   800  NAD800     -0.2095
     16  C5A       45.1770   31.1500   39.2360 C.2   800  NAD800      0.2526
     17  C6A       44.5210   32.4090   39.5560 C.2   800  NAD800      0.4393
     18  N6A       45.0970   33.5590   39.2690 N.pl3 800  NAD800      0.2180
     19  N1A       43.3380   32.3580   40.1370 N.2   800  NAD800      0.0021
     20  C2A       42.7520   31.2240   40.4130 C.3   800  NAD800      0.5254
     21  N3A       43.2580   30.0420   40.1470 N.2   800  NAD800     -0.0055
     22  C4A       44.4540   29.9430   39.5550 C.2   800  NAD800      0.3518
     23  O3        49.6310   22.6720   39.3740 O.3   800  NAD800     -0.2703
     24  PN        49.9410   21.9210   40.6860 P.3   800  NAD800      0.2189
     25  O1N       48.7620   21.3540   41.2530 O.3   800  NAD800     -0.4371
     26  O2N       51.0700   21.1070   40.3710 O.2   800  NAD800     -0.5170
     27  O5D       50.4130   23.1300   41.4720 O.3   800  NAD800     -0.3112
     28  C5D       49.6830   23.5660   42.5830 C.3   800  NAD800      0.1813
     29  C4D       50.5030   24.2780   43.6170 C.3   800  NAD800      0.1799
     30  O4D       51.5570   23.4930   44.0740 O.3   800  NAD800     -0.3327
     31  C3D       51.1070   25.4770   42.9570 C.3   800  NAD800      0.2158
     32  O3D       50.8970   26.6090   43.7770 O.3   800  NAD800     -0.2175
     33  C2D       52.5360   25.1090   42.8170 C.3   800  NAD800      0.2309
     34  O2D       53.3200   26.2530   42.9030 O.3   800  NAD800     -0.2158
     35  C1D       52.7470   24.2090   43.9870 C.3   800  NAD800      0.2263
     36  N1N       53.8190   23.3050   43.7130 N.pl3 800  NAD800     -0.2787
     37  C2N       53.6420   22.2530   42.9620 C.3   800  NAD800      0.1244
     38  C3N       54.6860   21.4030   42.7000 C.2   800  NAD800      0.0544
     39  C7N       54.5150   20.1900   41.8760 C.2   800  NAD800      0.2818
     40  O7N       55.4590   19.5100   41.6780 O.2   800  NAD800     -0.2670
     41  N7N       53.3610   19.8550   41.3870 N.am  800  NAD800     -0.0839
     42  C4N       55.9150   21.6590   43.2100 C.2   800  NAD800      0.0033
     43  C5N       56.0620   22.7610   43.9850 C.2   800  NAD800      0.0157
     44  C6N       54.9920   23.5640   44.2250 C.2   800  NAD800      0.0633
@<TRIPOS>BOND
     1    11    10    1
     2     3     1    2
     3    10     8    1
     4    10    12    1
     5     2     1    1
     6     8     9    1
     7     8     6    1
     8    14    15    1
     9    14    13    1
    10    15    16    2
    11     1    23    1
    12     1     4    1
    13    13    12    1
    14    13    22    1
    15    16    22    1
    16    16    17    1
    17    18    17    1
    18    12     7    1
    19    23    24    1
    20    22    21    2
    21    17    19    2
    22     4     5    1
    23     6     5    1
    24     6     7    1
    25    19    20    1
    26    21    20    1
    27    26    24    2
    28    24    25    1
    29    24    27    1
    30    41    39   am
    31    27    28    1
    32    40    39    2
    33    39    38    1
    34    28    29    1
    35    38    37    1
    36    38    42    2
    37    33    34    1
    38    33    31    1
    39    33    35    1
    40    31    29    1
    41    31    32    1
    42    37    36    1
    43    42    43    1
    44    29    30    1
    45    36    35    1
    46    36    44    1
    47    43    44    2
    48    35    30    1
