@<TRIPOS>MOLECULE
4glo_NAD_A_1.pdb
 44 48 0 0 0
SMALL
GASTEIGER

@<TRIPOS>ATOM
      1  PA       123.0080  -18.5640  -10.0370 P.3   301  NAD301      0.2189
      2  O1A      122.8790  -17.6090   -8.9710 O.3   301  NAD301     -0.4371
      3  O2A      124.3190  -18.9960  -10.3950 O.2   301  NAD301     -0.5170
      4  O5B      122.1780  -18.0170  -11.2260 O.3   301  NAD301     -0.3112
      5  C5B      120.8800  -17.5750  -11.0440 C.3   301  NAD301      0.1813
      6  C4B      120.5320  -16.6720  -12.1920 C.3   301  NAD301      0.1821
      7  O4B      119.1760  -16.3180  -12.0330 O.3   301  NAD301     -0.3135
      8  C3B      121.3970  -15.4180  -12.1440 C.3   301  NAD301      0.2184
      9  O3B      121.7180  -14.9750  -13.4360 O.3   301  NAD301     -0.2174
     10  C2B      120.4200  -14.4580  -11.5370 C.3   301  NAD301      0.2570
     11  O2B      120.8190  -13.1860  -11.9210 O.3   301  NAD301     -0.2130
     12  C1B      119.0930  -14.9410  -12.1450 C.3   301  NAD301      0.3186
     13  N9A      117.9850  -14.3910  -11.4020 N.pl3 301  NAD301     -0.1439
     14  C8A      117.8070  -14.5890  -10.1140 C.3   301  NAD301      0.3377
     15  N7A      116.7130  -13.9700   -9.6800 N.2   301  NAD301     -0.2095
     16  C5A      116.2160  -13.2990  -10.7120 C.2   301  NAD301      0.2526
     17  C6A      115.0700  -12.4340  -10.8980 C.2   301  NAD301      0.4393
     18  N6A      114.3260  -12.2010   -9.8190 N.pl3 301  NAD301      0.2180
     19  N1A      114.8440  -11.9280  -12.1390 N.2   301  NAD301      0.0021
     20  C2A      115.6670  -12.2600  -13.1340 C.3   301  NAD301      0.5254
     21  N3A      116.7250  -13.0590  -13.0530 N.2   301  NAD301     -0.0055
     22  C4A      117.0630  -13.5830  -11.8690 C.2   301  NAD301      0.3518
     23  O3       122.1020  -19.6850   -9.5330 O.3   301  NAD301     -0.2703
     24  PN       122.2530  -21.2120   -9.6390 P.3   301  NAD301      0.2189
     25  O1N      123.0540  -21.7020   -8.5770 O.3   301  NAD301     -0.4371
     26  O2N      122.6040  -21.5690  -10.9130 O.2   301  NAD301     -0.5170
     27  O5D      120.8540  -21.6150   -9.1860 O.3   301  NAD301     -0.3112
     28  C5D      119.8540  -22.0390  -10.0780 C.3   301  NAD301      0.1813
     29  C4D      118.7300  -22.8740   -9.4880 C.3   301  NAD301      0.1799
     30  O4D      119.3160  -23.9890   -8.9350 O.3   301  NAD301     -0.3327
     31  C3D      117.9780  -22.1700   -8.3490 C.3   301  NAD301      0.2158
     32  O3D      116.6450  -22.5060   -8.4560 O.3   301  NAD301     -0.2175
     33  C2D      118.5530  -22.8090   -7.0800 C.3   301  NAD301      0.2309
     34  O2D      117.5880  -22.8280   -6.0240 O.3   301  NAD301     -0.2158
     35  C1D      118.9020  -24.1950   -7.5900 C.3   301  NAD301      0.2263
     36  N1N      119.9160  -24.8140   -6.7700 N.pl3 301  NAD301     -0.2787
     37  C2N      121.2150  -24.5220   -6.8110 C.3   301  NAD301      0.1244
     38  C3N      122.1320  -25.1480   -5.9960 C.2   301  NAD301      0.0544
     39  C7N      123.6230  -24.8880   -6.0230 C.2   301  NAD301      0.2818
     40  O7N      124.3310  -25.5540   -5.3090 O.2   301  NAD301     -0.2670
     41  N7N      124.0450  -23.9370   -6.8440 N.am  301  NAD301     -0.0839
     42  C4N      121.6860  -26.0700   -5.1240 C.2   301  NAD301      0.0033
     43  C5N      120.3740  -26.3450   -5.0680 C.2   301  NAD301      0.0157
     44  C6N      119.5140  -25.6910   -5.9140 C.2   301  NAD301      0.0633
@<TRIPOS>BOND
     1     9     8    1
     2    20    21    1
     3    20    19    1
     4    21    22    2
     5     6     8    1
     6     6     7    1
     7     6     5    1
     8    12     7    1
     9    12    10    1
    10    12    13    1
    11     8    10    1
    12    19    17    2
    13    11    10    1
    14    22    13    1
    15    22    16    1
    16    13    14    1
    17     4     5    1
    18     4     1    1
    19    26    24    2
    20    17    16    1
    21    17    18    1
    22    16    15    2
    23     3     1    2
    24    14    15    1
    25    28    29    1
    26    28    27    1
    27     1    23    1
    28     1     2    1
    29    24    23    1
    30    24    27    1
    31    24    25    1
    32    29    30    1
    33    29    31    1
    34    30    35    1
    35    32    31    1
    36    31    33    1
    37    35    33    1
    38    35    36    1
    39    33    34    1
    40    41    39   am
    41    37    36    1
    42    37    38    1
    43    36    44    1
    44    39    38    1
    45    39    40    2
    46    38    42    2
    47    44    43    2
    48    42    43    1
