@<TRIPOS>MOLECULE
4glq_PVN_A_1.pdb
 43 46 0 0 0
SMALL
GASTEIGER

@<TRIPOS>ATOM
      1  C31        6.6210   86.8290  149.4180 C.3   1000  PVN1000     0.0244
      2  C32        7.0280   85.6360  150.3000 C.3   1000  PVN1000     0.0047
      3  C3         7.8680   87.3450  148.7210 C.2   1000  PVN1000    -0.0142
      4  C2         8.1780   88.6290  148.7240 C.2   1000  PVN1000     0.0549
      5  C21        7.4060   89.7580  149.3560 C.3   1000  PVN1000     0.0430
      6  C1         9.4290   88.7140  147.9610 C.1   1000  PVN1000     0.1456
      7  O1         9.9970   89.7780  147.7680 O.2   1000  PVN1000    -0.2226
      8  N1         9.8770   87.5180  147.5330 N.2   1000  PVN1000    -0.2002
      9  C4         8.8790   86.5250  147.9560 C.3   1000  PVN1000     0.1404
     10  C5         8.3160   85.9100  146.6570 C.3   1000  PVN1000     0.0879
     11  C6         9.0580   84.6120  146.5040 C.2   1000  PVN1000     0.1067
     12  C7         8.6220   83.3690  146.8640 C.2   1000  PVN1000     0.0018
     13  C41        7.2610   83.0630  147.4460 C.3   1000  PVN1000     0.0331
     14  N2        10.3260   84.5190  146.0170 N.2   1000  PVN1000    -0.4107
     15  C9        10.7220   83.2030  146.0480 C.2   1000  PVN1000     0.1114
     16  C8         9.6520   82.4590  146.5820 C.2   1000  PVN1000     0.0024
     17  C51        9.6160   80.9670  146.8170 C.3   1000  PVN1000     0.0402
     18  C52        9.4110   80.6630  148.3090 C.3   1000  PVN1000     0.1188
     19  C53       10.2830   81.5130  149.2030 C.2   1000  PVN1000     0.3652
     20  O54        9.8120   82.3190  149.9910 O.co2 1000  PVN1000    -0.2456
     21  O55       11.6040   81.3510  149.1450 O.co2 1000  PVN1000    -0.2456
     22  C10       12.1160   82.6900  145.5870 C.3   1000  PVN1000     0.1170
     23  C11       12.2680   82.7220  144.0380 C.2   1000  PVN1000     0.1114
     24  C12       12.6700   81.6560  143.2060 C.2   1000  PVN1000     0.0024
     25  C61       13.0380   80.2500  143.6510 C.3   1000  PVN1000     0.0402
     26  C62       11.8510   79.2830  143.6380 C.3   1000  PVN1000     0.1188
     27  C63       12.2970   77.9090  144.0800 C.2   1000  PVN1000     0.3652
     28  O64       13.5600   77.5210  143.8430 O.co2 1000  PVN1000    -0.2456
     29  O65       11.5220   77.1570  144.6490 O.co2 1000  PVN1000    -0.2456
     30  N3        12.0560   83.8010  143.2860 N.2   1000  PVN1000    -0.4104
     31  C14       12.2940   83.5170  142.0010 C.2   1000  PVN1000     0.1114
     32  C13       12.6900   82.1510  141.9300 C.2   1000  PVN1000     0.0021
     33  C71       13.0730   81.3400  140.7110 C.3   1000  PVN1000     0.0331
     34  C15       12.1660   84.5600  140.9720 C.3   1000  PVN1000     0.1181
     35  C16       12.1100   84.5100  139.5900 C.2   1000  PVN1000     0.1254
     36  C17       12.5570   85.5550  138.7470 C.2   1000  PVN1000     0.0128
     37  C81       13.1930   86.8420  139.2180 C.3   1000  PVN1000     0.0339
     38  N4        11.6040   83.5140  138.7650 N.2   1000  PVN1000    -0.3375
     39  C19       11.6980   83.9110  137.4720 C.1   1000  PVN1000     0.2000
     40  O19       11.3130   83.2620  136.4950 O.2   1000  PVN1000    -0.2096
     41  C18       12.3230   85.1820  137.4570 C.2   1000  PVN1000     0.0706
     42  C91       12.6720   86.0160  136.2450 C.3   1000  PVN1000     0.0390
     43  C92       11.4950   86.9420  135.9920 C.3   1000  PVN1000     0.0058
@<TRIPOS>BOND
     1    43    42    1
     2    42    41    1
     3    40    39    2
     4    41    39    1
     5    41    36    2
     6    39    38    2
     7    36    37    1
     8    36    35    1
     9    38    35    2
    10    35    34    1
    11    33    32    1
    12    34    31    1
    13    32    31    1
    14    32    24    2
    15    31    30    2
    16    24    25    1
    17    24    23    1
    18    30    23    2
    19    26    25    1
    20    26    27    1
    21    28    27   ar
    22    23    22    1
    23    27    29   ar
    24    22    15    1
    25    14    15    2
    26    14    11    2
    27    15    16    1
    28    11    10    1
    29    11    12    1
    30    16    17    1
    31    16    12    2
    32    10     9    1
    33    17    18    1
    34    12    13    1
    35     8     9    1
    36     8     6    2
    37     7     6    2
    38     9     3    1
    39     6     4    1
    40    18    19    1
    41     3     4    2
    42     3     1    1
    43     4     5    1
    44    21    19   ar
    45    19    20   ar
    46     1     2    1
