@<TRIPOS>MOLECULE
4glt_GSH_A_1.pdb
 20 19 0 0 0
SMALL
GASTEIGER

@<TRIPOS>ATOM
      1  N1       -25.2350  -13.6720    4.1440 N.3   301  GSH301     -0.1208
      2  CA1      -25.6380  -14.1930    5.4690 C.3   301  GSH301      0.1948
      3  C1       -27.0360  -14.6920    5.2660 C.2   301  GSH301      0.3819
      4  O11      -27.5020  -15.5700    6.0120 O.co2 301  GSH301     -0.2441
      5  O12      -27.6860  -14.2100    4.3140 O.co2 301  GSH301     -0.2441
      6  CB1      -25.5220  -13.0780    6.5250 C.3   301  GSH301      0.0402
      7  CG1      -25.8540  -13.5550    7.9460 C.3   301  GSH301      0.0889
      8  CD1      -25.7470  -12.4090    8.9490 C.2   301  GSH301      0.2418
      9  OE1      -25.2980  -11.3250    8.6060 O.2   301  GSH301     -0.2733
     10  N2       -26.1640  -12.6630   10.1960 N.am  301  GSH301     -0.1968
     11  CA2      -26.0430  -11.7750   11.3570 C.3   301  GSH301      0.1843
     12  C2       -26.9470  -10.5680   11.3090 C.2   301  GSH301      0.2627
     13  O2       -28.0690  -10.6440   10.8280 O.2   301  GSH301     -0.2714
     14  CB2      -24.5900  -11.3720   11.5730 C.3   301  GSH301      0.0997
     15  SG2      -23.5850  -12.7830   12.0880 S.3   301  GSH301     -0.0797
     16  N3       -26.4740   -9.4390   11.8280 N.am  301  GSH301     -0.1917
     17  CA3      -27.2070   -8.1840   11.7690 C.3   301  GSH301      0.2285
     18  C3       -28.0990   -7.9530   12.9720 C.2   301  GSH301      0.3865
     19  O31      -28.4250   -6.7780   13.2540 O.co2 301  GSH301     -0.2437
     20  O32      -28.4910   -8.9410   13.6360 O.co2 301  GSH301     -0.2437
@<TRIPOS>BOND
     1     1     2    1
     2     5     3   ar
     3     3     2    1
     4     3     4   ar
     5     2     6    1
     6     6     7    1
     7     7     8    1
     8     9     8    2
     9     8    10   am
    10    10    11    1
    11    13    12    2
    12    12    11    1
    13    12    16   am
    14    11    14    1
    15    14    15    1
    16    17    16    1
    17    17    18    1
    18    18    19   ar
    19    18    20   ar
