@<TRIPOS>MOLECULE
4glw_NMN_B_1.pdb
 22 23 0 0 0
SMALL
GASTEIGER

@<TRIPOS>ATOM
      1  O3P      -28.0210    4.6060    1.5050 O.2   403  NMN403     -0.2224
      2  P        -27.7110    6.0940    1.5460 P.3   403  NMN403      0.5327
      3  O1P      -28.6530    6.8700    2.4260 O.3   403  NMN403     -0.1145
      4  O2P      -26.2640    6.4500    1.8220 O.3   403  NMN403     -0.1145
      5  O5R      -28.0120    6.6650    0.0500 O.3   403  NMN403     -0.2675
      6  C5R      -28.7970    5.9530   -0.9170 C.3   403  NMN403      0.1859
      7  C4R      -27.9230    5.2650   -1.9740 C.3   403  NMN403      0.1801
      8  O4R      -27.0280    4.2500   -1.4520 O.3   403  NMN403     -0.3327
      9  C3R      -28.7960    4.5230   -2.9680 C.3   403  NMN403      0.2158
     10  O3R      -29.1850    5.3690   -4.0600 O.3   403  NMN403     -0.2175
     11  C2R      -27.9700    3.2870   -3.3580 C.3   403  NMN403      0.2309
     12  O2R      -27.1830    3.4940   -4.5340 O.3   403  NMN403     -0.2158
     13  C1R      -27.0620    3.0020   -2.1700 C.3   403  NMN403      0.2263
     14  N1       -27.7370    1.9740   -1.3710 N.pl3 403  NMN403     -0.2787
     15  C2       -29.0130    2.2230   -1.1050 C.3   403  NMN403      0.1244
     16  C3       -29.8310    1.3930   -0.3830 C.2   403  NMN403      0.0544
     17  C7       -31.1950    1.9480   -0.2480 C.2   403  NMN403      0.2818
     18  O7       -31.3330    2.8550    0.5370 O.2   403  NMN403     -0.2670
     19  N7       -32.1690    1.5170   -1.0420 N.am  403  NMN403     -0.0839
     20  C4       -29.3400    0.2060    0.1260 C.2   403  NMN403      0.0033
     21  C5       -27.9890   -0.0460   -0.1550 C.2   403  NMN403      0.0157
     22  C6       -27.1960    0.8410   -0.9160 C.2   403  NMN403      0.0633
@<TRIPOS>BOND
     1    12    11    1
     2    10     9    1
     3    11     9    1
     4    11    13    1
     5     9     7    1
     6    13     8    1
     7    13    14    1
     8     7     8    1
     9     7     6    1
    10    14    15    1
    11    14    22    1
    12    15    16    1
    13    19    17   am
    14     6     5    1
    15    22    21    2
    16    16    17    1
    17    16    20    2
    18    17    18    2
    19    21    20    1
    20     5     2    1
    21     1     2    2
    22     2     4    1
    23     2     3    1
