@<TRIPOS>MOLECULE
4glw_0XT_A_1.pdb
 15 16 0 0 0
SMALL
GASTEIGER

@<TRIPOS>ATOM
      1  C5       -10.4340   -3.2040  -20.7560 C.2   402  0XT402      0.1768
      2  C6       -12.9480   -2.2240  -20.2890 C.1   402  0XT402      0.1882
      3  C8        -9.0900   -3.7820  -21.0240 C.3   402  0XT402      0.0728
      4  C10      -12.0820   -1.6450  -21.2100 C.2   402  0XT402      0.2641
      5  C11      -14.5520   -0.5980  -20.7280 C.1   402  0XT402      0.2528
      6  C12      -12.5270   -0.5810  -21.8800 C.2   402  0XT402      0.2739
      7  N4       -12.5530   -3.3240  -19.6300 N.2   402  0XT402     -0.2974
      8  N14      -15.7990   -0.0580  -20.5420 N.pl3 402  0XT402     -0.0226
      9  N13      -13.7270   -0.0820  -21.6580 N.2   402  0XT402     -0.3033
     10  N9       -14.1480   -1.6870  -20.0490 N.2   402  0XT402     -0.2561
     11  C2       -11.2940   -3.8000  -19.8100 C.2   402  0XT402      0.3141
     12  O1       -10.8890   -4.9020  -19.0730 O.2   402  0XT402     -0.4456
     13  C3       -11.8560   -5.6070  -18.3260 C.3   402  0XT402      0.2554
     14  N7       -10.8450   -2.1340  -21.4540 N.2   402  0XT402     -0.3843
     15  N15      -11.7000   -0.0360  -22.7910 N.pl3 402  0XT402     -0.0887
@<TRIPOS>BOND
     1    15     6    1
     2     6     9    2
     3     6     4    1
     4     9     5    2
     5    14     4    2
     6    14     1    2
     7     4     2    1
     8     3     1    1
     9     1    11    1
    10     5     8    1
    11     5    10    2
    12     2    10    2
    13     2     7    2
    14    11     7    2
    15    11    12    1
    16    12    13    1
