@<TRIPOS>MOLECULE
4glx_0XS_A_1.pdb
 19 20 0 0 0
SMALL
GASTEIGER

@<TRIPOS>ATOM
      1  C4        27.3170    5.1160    6.8920 C.2   603  0XS603      0.0210
      2  C6        30.9620    4.3210    6.3730 C.3   603  0XS603      0.4477
      3  C7        26.7970    4.5390    5.7390 C.2   603  0XS603      0.0829
      4  C8        27.6240    3.9060    4.8310 C.1   603  0XS603      0.1386
      5  C12       25.4640    4.5940    5.4910 C.2   603  0XS603      0.0034
      6  C14       25.0110    4.0110    4.3310 C.3   603  0XS603      0.1730
      7  C15       25.8760    3.3470    3.4330 C.2   603  0XS603      0.2213
      8  O18       23.0340    3.2520    3.4550 O.2   603  0XS603     -0.2708
      9  C16       23.5490    4.0680    4.2060 C.2   603  0XS603      0.2727
     10  N19       22.8580    4.8650    5.0420 N.am  603  0XS603     -0.0871
     11  C2        28.6810    5.0710    7.1400 C.2   603  0XS603      0.0698
     12 BR1        29.5110    5.8950    8.6760 Br    603  0XS603     -0.0463
     13  N17       25.4940    2.7530    2.2670 N.pl3 603  0XS603     -0.0961
     14  N13       27.1710    3.3180    3.7190 N.2   603  0XS603     -0.3252
     15  N5        28.9400    3.9010    5.0610 N.2   603  0XS603     -0.3353
     16  C3        29.4810    4.4460    6.1860 C.2   603  0XS603      0.2211
     17  F9        31.5450    5.3980    6.8760 F     603  0XS603     -0.1635
     18  F10       31.1390    3.3080    7.2280 F     603  0XS603     -0.1635
     19  F11       31.4750    4.0060    5.1880 F     603  0XS603     -0.1635
@<TRIPOS>BOND
     1    13     7    1
     2     7    14    2
     3     7     6    1
     4     8     9    2
     5    14     4    2
     6     9     6    1
     7     9    10   am
     8     6     5    1
     9     4    15    2
    10     4     3    1
    11    15    16    2
    12    19     2    1
    13     5     3    2
    14     3     1    1
    15    16     2    1
    16    16    11    1
    17     2    17    1
    18     2    18    1
    19     1    11    2
    20    11    12    1
