@<TRIPOS>MOLECULE
4gm7_HEM_A_1.pdb
 43 50 0 0 0
SMALL
GASTEIGER

@<TRIPOS>ATOM
      1  CHA      -18.4890    0.2720   28.3050 C.2   601  HEM601      0.0000
      2  CHB      -18.3040    4.9750   28.2720 C.2   601  HEM601      0.0000
      3  CHC      -16.4640    4.6230   23.9340 C.2   601  HEM601      0.0000
      4  CHD      -16.4310   -0.1500   23.9550 C.2   601  HEM601      0.0000
      5  C1A      -18.5920    1.5100   28.7130 C.2   601  HEM601      0.0000
      6  C2A      -19.1060    1.8890   30.0030 C.2   601  HEM601      0.0000
      7  C3A      -19.0740    3.2200   30.0350 C.2   601  HEM601      0.0000
      8  C4A      -18.5310    3.6650   28.7390 C.2   601  HEM601      0.0000
      9  CMA      -19.5340    4.0890   31.1930 C.3   601  HEM601      0.0000
     10  CAA      -19.6000    0.8920   31.1020 C.3   601  HEM601      0.0000
     11  CBA      -18.4770    0.1160   31.7900 C.3   601  HEM601      0.0000
     12  CGA      -18.9350   -0.7970   32.9250 C.2   601  HEM601      0.0000
     13  O1A      -18.3880   -1.9480   33.0990 O.co2 601  HEM601      0.0000
     14  O2A      -19.8480   -0.3240   33.6690 O.co2 601  HEM601      0.0000
     15  C1B      -17.8030    5.3530   27.0320 C.ar  601  HEM601      0.0000
     16  C2B      -17.6280    6.7060   26.5120 C.ar  601  HEM601      0.0000
     17  C3B      -17.1280    6.5480   25.2650 C.ar  601  HEM601      0.0000
     18  C4B      -16.9650    5.1400   25.0600 C.ar  601  HEM601      0.0000
     19  CMB      -17.9620    8.0220   27.2040 C.3   601  HEM601      0.0000
     20  CAB      -16.7310    7.6290   24.1820 C.3   601  HEM601      0.0000
     21  CBB      -16.6610    8.9790   24.4530 C.3   601  HEM601      0.0000
     22  C1C      -16.2650    3.3310   23.5410 C.2   601  HEM601      0.0000
     23  C2C      -15.6470    2.9200   22.2710 C.2   601  HEM601      0.0000
     24  C3C      -15.6280    1.5630   22.2660 C.2   601  HEM601      0.0000
     25  C4C      -16.2400    1.1610   23.5380 C.2   601  HEM601      0.0000
     26  CMC      -15.1000    3.8580   21.1490 C.3   601  HEM601      0.0000
     27  CAC      -15.0800    0.5630   21.1730 C.2   601  HEM601      0.0000
     28  CBC      -14.0790    0.7930   20.2950 C.2   601  HEM601      0.0000
     29  C1D      -17.0650   -0.4690   25.1750 C.ar  601  HEM601      0.0000
     30  C2D      -17.4720   -1.8040   25.5380 C.ar  601  HEM601      0.0000
     31  C3D      -18.1030   -1.6780   26.8360 C.ar  601  HEM601      0.0000
     32  C4D      -18.0000   -0.2420   27.1410 C.ar  601  HEM601      0.0000
     33  CMD      -17.3820   -3.1620   24.8850 C.3   601  HEM601      0.0000
     34  CAD      -18.7240   -2.9320   27.5720 C.3   601  HEM601      0.0000
     35  CBD      -20.2260   -3.2260   27.0330 C.3   601  HEM601      0.0000
     36  CGD      -20.9540   -4.3550   27.6900 C.2   601  HEM601      0.0000
     37  O1D      -21.5190   -4.0930   28.7530 O.co2 601  HEM601      0.0000
     38  O2D      -20.9620   -5.4980   27.1480 O.co2 601  HEM601      0.0000
     39  NA       -18.2420    2.5750   27.9560 N.2   601  HEM601      0.0000
     40  NB       -17.3820    4.4340   26.1170 N.ar  601  HEM601      0.0000
     41  NC       -16.6300    2.2460   24.2990 N.2   601  HEM601      0.0000
     42  ND       -17.3920    0.4390   26.1700 N.ar  601  HEM601      0.0000
     43 FE        -17.1840    2.3420   26.2430 Fe    601  HEM601      0.0000
@<TRIPOS>BOND
     1    28    27    2
     2    26    23    1
     3    27    24    1
     4    24    23    2
     5    24    25    1
     6    23    22    1
     7    25     4    1
     8    25    41    2
     9    22     3    2
    10    22    41    1
    11     3    18    1
    12     4    29    2
    13    20    21    1
    14    20    17    1
    15    41    43    1
    16    33    30    1
    17    18    17   ar
    18    18    40   ar
    19    29    30   ar
    20    29    42   ar
    21    17    16   ar
    22    30    31   ar
    23    40    43    1
    24    40    15   ar
    25    42    43    1
    26    42    32   ar
    27    43    39    1
    28    16    15   ar
    29    16    19    1
    30    31    32   ar
    31    31    34    1
    32    15     2    1
    33    35    34    1
    34    35    36    1
    35    32     1    2
    36    38    36   ar
    37    36    37   ar
    38    39     5    2
    39    39     8    1
    40     2     8    2
    41     1     5    1
    42     5     6    1
    43     8     7    1
    44     6     7    2
    45     6    10    1
    46     7     9    1
    47    10    11    1
    48    11    12    1
    49    12    13   ar
    50    12    14   ar
