@<TRIPOS>MOLECULE
4gm7_HCI_A_1.pdb
 11 11 0 0 0
SMALL
GASTEIGER

@<TRIPOS>ATOM
      1  C1       -26.3440    5.3650   29.7840 C.2   622  HCI622      0.3652
      2  O1       -27.0960    5.5840   28.8210 O.co2 622  HCI622     -0.2456
      3  O2       -26.7540    4.9340   30.8740 O.co2 622  HCI622     -0.2456
      4  C2       -24.8740    5.6480   29.6290 C.3   622  HCI622      0.1187
      5  C3       -24.0500    4.5000   30.1950 C.3   622  HCI622      0.0382
      6  C1'      -23.1530    3.9740   29.1020 C.ar  622  HCI622     -0.0216
      7  C2'      -22.3920    2.8390   29.2910 C.ar  622  HCI622     -0.0043
      8  C3'      -21.5830    2.3820   28.2630 C.ar  622  HCI622     -0.0003
      9  C4'      -21.5290    3.0470   27.0540 C.ar  622  HCI622     -0.0000
     10  C5'      -22.2940    4.1760   26.8640 C.ar  622  HCI622     -0.0003
     11  C6'      -23.1010    4.6330   27.8880 C.ar  622  HCI622     -0.0043
@<TRIPOS>BOND
     1    10     9   ar
     2    10    11   ar
     3     9     8   ar
     4    11     6   ar
     5     8     7   ar
     6     2     1   ar
     7     6     7   ar
     8     6     5    1
     9     4     1    1
    10     4     5    1
    11     1     3   ar
