@<TRIPOS>MOLECULE
4gmc_1BI_B_1.pdb
 41 46 0 0 0
SMALL
GASTEIGER

@<TRIPOS>ATOM
      1  C1       -23.7390  -16.9060  -30.4580 C.ar  601  1BI601      0.0581
      2  C2       -25.1170  -16.4000  -30.3710 C.ar  601  1BI601      0.0218
      3  C3       -25.4360  -15.2330  -29.5410 C.ar  601  1BI601      0.0601
      4  C4       -24.3710  -14.5790  -28.8020 C.ar  601  1BI601      0.0132
      5  C5       -22.9840  -15.0910  -28.8910 C.ar  601  1BI601      0.0013
      6  C6       -22.6790  -16.2420  -29.7170 C.ar  601  1BI601      0.0047
      7  N7       -26.6680  -14.5510  -29.2710 N.ar  601  1BI601     -0.3191
      8  C8       -26.3920  -13.4590  -28.3610 C.ar  601  1BI601      0.0594
      9  C9       -24.9700  -13.4670  -28.0540 C.ar  601  1BI601     -0.0052
     10  C10      -24.1970  -12.4700  -27.1050 C.3   601  1BI601      0.0238
     11  C11      -23.6280  -13.2220  -25.8400 C.3   601  1BI601      0.0044
     12  C12      -22.8280  -12.2870  -24.8900 C.3   601  1BI601      0.0003
     13  C13      -21.7070  -11.5070  -25.6380 C.3   601  1BI601      0.0000
     14  C14      -22.1990  -10.7850  -26.9340 C.3   601  1BI601      0.0003
     15  C15      -23.0310  -11.7060  -27.8750 C.3   601  1BI601      0.0044
     16  C16      -27.4060  -12.5220  -27.8210 C.ar  601  1BI601      0.0562
     17  C17      -28.3030  -11.6950  -28.5600 C.ar  601  1BI601      0.0452
     18  C18      -29.0540  -11.0020  -27.6220 C.ar  601  1BI601      0.1798
     19  O19      -28.6700  -11.3540  -26.3470 O.2   601  1BI601     -0.4473
     20  C20      -27.6650  -12.2810  -26.4780 C.ar  601  1BI601      0.1811
     21  C21      -23.4120  -18.1240  -31.3290 C.2   601  1BI601      0.2857
     22  O22      -22.3100  -18.7340  -31.3910 O.2   601  1BI601     -0.2667
     23  N23      -24.6520  -18.4370  -32.1050 N.am  601  1BI601     -0.0549
     24  C24      -28.0340  -14.9010  -29.8410 C.3   601  1BI601      0.1919
     25  C25      -28.1640  -14.8130  -31.4120 C.2   601  1BI601      0.2489
     26  O26      -27.1990  -14.3680  -32.0980 O.2   601  1BI601     -0.2728
     27  N27      -29.4010  -15.2500  -32.0850 N.am  601  1BI601     -0.2728
     28  C28      -30.5940  -15.7920  -31.2890 C.3   601  1BI601      0.1255
     29  C29      -31.9150  -15.0640  -31.6930 C.3   601  1BI601      0.1636
     30  O30      -32.0850  -14.9480  -33.2580 O.3   601  1BI601     -0.3501
     31  C31      -30.8040  -14.4420  -34.0300 C.3   601  1BI601      0.1636
     32  C32      -29.5080  -15.1680  -33.5850 C.3   601  1BI601      0.1255
     33  S36      -24.6160  -19.6160  -33.0980 S.O2  601  1BI601      0.0956
     34  O37      -23.9480  -20.6830  -32.5770 O.2   601  1BI601     -0.1482
     35  O38      -25.9110  -19.9610  -33.3870 O.2   601  1BI601     -0.1482
     36  C39      -23.7770  -19.0350  -34.6060 C.ar  601  1BI601      0.1271
     37  C40      -22.3630  -18.7910  -34.5770 C.ar  601  1BI601      0.0203
     38  C41      -21.6830  -18.3310  -35.7470 C.ar  601  1BI601      0.0014
     39  C42      -22.4290  -18.1140  -36.9600 C.ar  601  1BI601      0.0001
     40  C43      -23.8520  -18.3590  -36.9960 C.ar  601  1BI601      0.0014
     41  C44      -24.5240  -18.8180  -35.8160 C.ar  601  1BI601      0.0203
@<TRIPOS>BOND
     1    40    39   ar
     2    40    41   ar
     3    39    38   ar
     4    41    36   ar
     5    38    37   ar
     6    36    37   ar
     7    36    33    1
     8    31    32    1
     9    31    30    1
    10    32    27    1
    11    35    33    2
    12    30    29    1
    13    33    34    2
    14    33    23    1
    15    23    21   am
    16    26    25    2
    17    27    25   am
    18    27    28    1
    19    29    28    1
    20    25    24    1
    21    22    21    2
    22    21     1    1
    23     1     2   ar
    24     1     6   ar
    25     2     3   ar
    26    24     7    1
    27     6     5   ar
    28     3     7   ar
    29     3     4   ar
    30     7     8   ar
    31     5     4   ar
    32     4     9   ar
    33    17    16   ar
    34    17    18   ar
    35     8     9   ar
    36     8    16    1
    37     9    10    1
    38    15    10    1
    39    15    14    1
    40    16    20   ar
    41    18    19   ar
    42    10    11    1
    43    14    13    1
    44    20    19   ar
    45    11    12    1
    46    13    12    1
