@<TRIPOS>MOLECULE
4gmd_ATM_A_1.pdb
 23 24 0 0 0
SMALL
GASTEIGER

@<TRIPOS>ATOM
      1  P         10.6090  -45.8450   27.6640 P.3   301  ATM301      0.5327
      2  OP1       11.3590  -46.0720   26.4090 O.2   301  ATM301     -0.2224
      3  OP2       10.8720  -46.9860   28.6800 O.3   301  ATM301     -0.1145
      4  OP3        9.1630  -45.7650   27.3490 O.3   301  ATM301     -0.1145
      5  O5'       11.0610  -44.5170   28.3750 O.3   301  ATM301     -0.2676
      6  C5'       11.2400  -43.3600   27.6600 C.3   301  ATM301      0.1853
      7  C4'       10.4590  -42.1910   28.0960 C.3   301  ATM301      0.1724
      8  O4'       11.2490  -41.0800   27.8670 O.3   301  ATM301     -0.3345
      9  C3'        9.2610  -42.0880   27.2020 C.3   301  ATM301      0.1731
     10  N3'        8.1400  -41.6660   27.9630 N.2   301  ATM301     -0.0969
     11  N4'        7.0010  -42.1300   27.3790 N.2   301  ATM301     -0.1663
     12  N5'        6.0550  -42.5410   26.8380 N.2   301  ATM301      0.0678
     13  C2'        9.6330  -41.1030   26.1590 C.3   301  ATM301      0.0819
     14  C1'       10.6170  -40.2390   26.8250 C.3   301  ATM301      0.2085
     15  N1        11.6320  -39.6060   26.0150 N.am  301  ATM301     -0.1794
     16  C2        11.6330  -38.2470   25.9010 C.1   301  ATM301      0.2844
     17  O2        10.7340  -37.5520   26.4700 O.2   301  ATM301     -0.1918
     18  N3        12.5890  -37.6350   25.1790 N.2   301  ATM301     -0.2455
     19  C4        13.5750  -38.3160   24.5570 C.1   301  ATM301      0.2134
     20  O4        14.4880  -37.6590   23.8720 O.2   301  ATM301     -0.2088
     21  C5        13.6100  -39.7310   24.6750 C.2   301  ATM301      0.0891
     22  C5A       14.7090  -40.5280   24.0120 C.3   301  ATM301      0.0462
     23  C6        12.6000  -40.3600   25.4270 C.2   301  ATM301      0.0877
@<TRIPOS>BOND
     1    20    19    2
     2    22    21    1
     3    19    21    1
     4    19    18    2
     5    21    23    2
     6    18    16    2
     7    23    15    1
     8    16    15   am
     9    16    17    2
    10    15    14    1
    11    13    14    1
    12    13     9    1
    13     2     1    2
    14    14     8    1
    15    12    11    2
    16     9    10    1
    17     9     7    1
    18     4     1    1
    19    11    10    2
    20     6     7    1
    21     6     5    1
    22     1     5    1
    23     1     3    1
    24     8     7    1
