@<TRIPOS>MOLECULE
4gme_CS2_C_1.pdb
 13 12 0 0 0
SMALL
GASTEIGER

@<TRIPOS>ATOM
      1  C2        29.7100   -6.3650  -19.0860 C.3   503  CS2503      0.2865
      2  C3        31.1230   -6.6060  -18.5530 C.3   503  CS2503      0.2260
      3  O1A       29.7040   -8.5560  -19.9170 O.co2 503  CS2503     -0.2427
      4  C1        29.0130   -7.6540  -19.4040 C.2   503  CS2503      0.3973
      5  O1B       27.7790   -7.7960  -19.1800 O.co2 503  CS2503     -0.2427
      6  O2        28.9790   -5.6140  -18.1250 O.3   503  CS2503     -0.2080
      7  O3        32.0300   -6.6320  -19.6570 O.3   503  CS2503     -0.2169
      8  C4        31.5950   -5.4800  -17.6400 C.3   503  CS2503      0.2180
      9  O4        31.7630   -4.3100  -18.4300 O.3   503  CS2503     -0.2175
     10  C5        32.9430   -5.8100  -17.0060 C.3   503  CS2503      0.2175
     11  O5        32.8810   -7.1330  -16.4550 O.3   503  CS2503     -0.2175
     12  C6        33.3240   -4.8570  -15.8790 C.3   503  CS2503      0.2175
     13  O6        34.5480   -5.3410  -15.2950 O.3   503  CS2503     -0.2175
@<TRIPOS>BOND
     1     3     4   ar
     2     7     2    1
     3     4     5   ar
     4     4     1    1
     5     1     2    1
     6     1     6    1
     7     2     8    1
     8     9     8    1
     9     8    10    1
    10    10    11    1
    11    10    12    1
    12    12    13    1
