@<TRIPOS>MOLECULE
4gmx_K85_C_1.pdb
 25 26 0 0 0
SMALL
GASTEIGER

@<TRIPOS>ATOM
      1  F19      -34.1220   67.6970   27.2290 F     1101  K851101    -0.1659
      2  C17      -33.3640   68.6460   26.7130 C.3   1101  K851101     0.4187
      3  F20      -33.3480   68.5090   25.4030 F     1101  K851101    -0.1659
      4  F18      -32.1260   68.5140   27.1480 F     1101  K851101    -0.1659
      5  C13      -33.9160   70.0020   27.0620 C.ar  1101  K851101     0.0751
      6  C14      -33.0730   71.0020   27.5440 C.ar  1101  K851101     0.0141
      7  C12      -35.2770   70.2700   26.8930 C.ar  1101  K851101     0.0408
      8  C11      -35.7910   71.5320   27.2090 C.ar  1101  K851101     0.1394
      9  O15      -37.1210   71.8420   27.0550 O.3   1101  K851101    -0.4714
     10  C16      -38.1440   70.8610   27.2190 C.3   1101  K851101     0.2525
     11  C10      -34.9410   72.5200   27.6890 C.ar  1101  K851101     0.0469
     12  C9       -33.5860   72.2560   27.8610 C.ar  1101  K851101     0.0665
     13  C6       -32.6900   73.3270   28.3730 C.1   1101  K851101     0.0495
     14  N7       -33.0150   74.6390   28.4360 N.2   1101  K851101    -0.1947
     15  C8       -31.9790   75.3330   28.9440 C.3   1101  K851101     0.2478
     16  N5       -31.4330   73.1650   28.8400 N.2   1101  K851101    -0.1264
     17  N4       -31.0180   74.4480   29.1890 N.pl3 1101  K851101    -0.1996
     18  C3       -29.6680   74.5720   29.7430 C.3   1101  K851101     0.1256
     19  C2       -28.6440   73.9530   28.7960 C.3   1101  K851101     0.1327
     20  C1       -28.2430   74.9440   27.7310 C.2   1101  K851101     0.3187
     21  O        -29.0650   75.6890   27.2230 O.2   1101  K851101    -0.2500
     22  O1'      -26.8440   74.9990   27.3370 O.3   1101  K851101    -0.4522
     23  C2'      -26.5970   75.2990   25.9630 C.3   1101  K851101     0.1691
     24  C4'      -25.2690   74.6660   25.5630 C.3   1101  K851101     0.0473
     25  C3'      -26.5600   76.8110   25.7720 C.3   1101  K851101     0.0473
@<TRIPOS>BOND
     1     3     2    1
     2    24    23    1
     3    25    23    1
     4    23    22    1
     5     2     5    1
     6     2     4    1
     7     2     1    1
     8     7     5   ar
     9     7     8   ar
    10     9     8    1
    11     9    10    1
    12     5     6   ar
    13     8    11   ar
    14    21    20    2
    15    22    20    1
    16     6    12   ar
    17    11    12   ar
    18    20    19    1
    19    12    13    1
    20    13    14    2
    21    13    16    2
    22    14    15    1
    23    19    18    1
    24    16    17    1
    25    15    17    1
    26    17    18    1
