@<TRIPOS>MOLECULE
4gmx_GNP_A_1.pdb
 32 34 0 0 0
SMALL
GASTEIGER

@<TRIPOS>ATOM
      1  PG         6.8070   38.0500   28.0710 P.3   301  GNP301      0.4884
      2  O1G        7.0110   36.7800   27.3280 O.2   301  GNP301     -0.2331
      3  O2G        8.1160   38.9690   28.0160 O.3   301  GNP301     -0.1240
      4  O3G        6.4180   37.7290   29.5880 O.3   301  GNP301     -0.1240
      5  N3B        5.4920   38.8820   27.3070 N.3   301  GNP301     -0.0163
      6  PB         4.9780   40.4500   27.8310 P.3   301  GNP301      0.4669
      7  O1B        6.1520   41.2880   28.1300 O.2   301  GNP301     -0.2351
      8  O2B        4.0090   40.3380   29.1100 O.3   301  GNP301     -0.1253
      9  O3A        4.0970   41.0450   26.6190 O.3   301  GNP301     -0.2360
     10  PA         4.6670   42.1010   25.5540 P.3   301  GNP301      0.2220
     11  O1A        5.7920   41.4310   24.8030 O.2   301  GNP301     -0.5170
     12  O2A        4.8790   43.4100   26.2750 O.3   301  GNP301     -0.4370
     13  O5'        3.4070   42.3030   24.5700 O.3   301  GNP301     -0.3111
     14  C5'        2.7170   41.1800   24.0200 C.3   301  GNP301      0.1813
     15  C4'        1.8400   41.5820   22.8360 C.3   301  GNP301      0.1799
     16  O4'        0.6550   42.2360   23.2980 O.3   301  GNP301     -0.3326
     17  C3'        2.5140   42.5510   21.8760 C.3   301  GNP301      0.2158
     18  O3'        2.1770   42.2140   20.5230 O.3   301  GNP301     -0.2175
     19  C2'        1.9380   43.9020   22.2480 C.3   301  GNP301      0.2310
     20  O2'        1.9330   44.8310   21.1550 O.3   301  GNP301     -0.2158
     21  C1'        0.5390   43.5300   22.7140 C.3   301  GNP301      0.2293
     22  N9        -0.0110   44.4810   23.7020 N.pl3 301  GNP301     -0.2354
     23  C8         0.5910   44.9240   24.8310 C.3   301  GNP301      0.2246
     24  N7        -0.2190   45.7820   25.5050 N.2   301  GNP301     -0.2322
     25  C5        -1.3630   45.8880   24.8020 C.2   301  GNP301      0.2182
     26  C6        -2.6350   46.6270   24.9390 C.1   301  GNP301      0.2372
     27  O6        -2.8410   47.3840   25.9180 O.2   301  GNP301     -0.2069
     28  N1        -3.5660   46.4580   23.9880 N.2   301  GNP301     -0.2485
     29  C2        -3.3800   45.6470   22.9260 C.1   301  GNP301      0.2531
     30  N2        -4.3660   45.5240   22.0050 N.pl3 301  GNP301     -0.0226
     31  N3        -2.2360   44.9440   22.7330 N.2   301  GNP301     -0.3074
     32  C4        -1.2180   45.0270   23.6190 C.2   301  GNP301      0.2300
@<TRIPOS>BOND
     1    18    17    1
     2    20    19    1
     3    17    19    1
     4    17    15    1
     5    30    29    1
     6    19    21    1
     7    21    16    1
     8    21    22    1
     9    31    29    2
    10    31    32    2
    11    15    16    1
    12    15    14    1
    13    29    28    2
    14    32    22    1
    15    32    25    1
    16    22    23    1
    17    28    26    2
    18    14    13    1
    19    13    10    1
    20    25    26    1
    21    25    24    2
    22    11    10    2
    23    23    24    1
    24    26    27    2
    25    10    12    1
    26    10     9    1
    27     9     6    1
    28     5     6    1
    29     5     1    1
    30     2     1    2
    31     6     7    2
    32     6     8    1
    33     3     1    1
    34     1     4    1
