@<TRIPOS>MOLECULE
4gn6_HEM_A_1.pdb
 43 50 0 0 0
SMALL
GASTEIGER

@<TRIPOS>ATOM
      1  CHA        8.1930   -0.5970   27.5350 C.2   602  HEM602      0.0000
      2  CHB        8.4550    4.4240   27.4870 C.2   602  HEM602      0.0000
      3  CHC       10.3030    4.2220   22.9490 C.2   602  HEM602      0.0000
      4  CHD       10.3090   -0.7740   23.1410 C.2   602  HEM602      0.0000
      5  C1A        8.1200    0.8050   27.8960 C.2   602  HEM602      0.0000
      6  C2A        7.6180    1.2230   29.2400 C.2   602  HEM602      0.0000
      7  C3A        7.6800    2.7000   29.2180 C.2   602  HEM602      0.0000
      8  C4A        8.2200    3.0420   27.8730 C.2   602  HEM602      0.0000
      9  CMA        7.3080    3.6520   30.3350 C.3   602  HEM602      0.0000
     10  CAA        7.1570    0.3300   30.3710 C.3   602  HEM602      0.0000
     11  CBA        8.3280    0.0390   31.2850 C.3   602  HEM602      0.0000
     12  CGA        7.9560   -1.0870   32.2210 C.2   602  HEM602      0.0000
     13  O1A        8.3300   -2.2480   31.9530 O.co2 602  HEM602      0.0000
     14  O2A        7.2890   -0.8220   33.2420 O.co2 602  HEM602      0.0000
     15  C1B        8.9860    4.8010   26.1850 C.ar  602  HEM602      0.0000
     16  C2B        9.0280    6.2140   25.7690 C.ar  602  HEM602      0.0000
     17  C3B        9.5650    6.1160   24.4280 C.ar  602  HEM602      0.0000
     18  C4B        9.7830    4.6870   24.2250 C.ar  602  HEM602      0.0000
     19  CMB        8.6250    7.4510   26.5170 C.3   602  HEM602      0.0000
     20  CAB        9.8510    7.2090   23.4620 C.2   602  HEM602      0.0000
     21  CBB        9.8990    8.4840   23.8630 C.2   602  HEM602      0.0000
     22  C1C       10.5100    2.8330   22.6120 C.2   602  HEM602      0.0000
     23  C2C       11.2470    2.4400   21.3700 C.2   602  HEM602      0.0000
     24  C3C       11.2310    0.9610   21.4330 C.2   602  HEM602      0.0000
     25  C4C       10.5130    0.5900   22.6940 C.2   602  HEM602      0.0000
     26  CMC       11.8360    3.3620   20.3290 C.3   602  HEM602      0.0000
     27  CAC       11.8360    0.0350   20.4310 C.2   602  HEM602      0.0000
     28  CBC       12.2400    0.4650   19.2420 C.2   602  HEM602      0.0000
     29  C1D        9.6580   -1.1380   24.4020 C.ar  602  HEM602      0.0000
     30  C2D        9.3370   -2.5560   24.6500 C.ar  602  HEM602      0.0000
     31  C3D        8.7160   -2.5030   25.9620 C.ar  602  HEM602      0.0000
     32  C4D        8.7520   -1.0670   26.2850 C.ar  602  HEM602      0.0000
     33  CMD        9.6040   -3.7560   23.8020 C.3   602  HEM602      0.0000
     34  CAD        8.1410   -3.6260   26.7630 C.3   602  HEM602      0.0000
     35  CBD        6.6820   -3.6810   26.3320 C.3   602  HEM602      0.0000
     36  CGD        6.0120   -4.8520   27.0010 C.2   602  HEM602      0.0000
     37  O1D        5.6160   -4.6750   28.1710 O.co2 602  HEM602      0.0000
     38  O2D        5.8900   -5.9280   26.3710 O.co2 602  HEM602      0.0000
     39  NA         8.4090    1.8980   26.9700 N.2   602  HEM602      0.0000
     40  NB         9.4070    3.9040   25.2670 N.ar  602  HEM602      0.0000
     41  NC         9.9650    1.7400   23.4110 N.2   602  HEM602      0.0000
     42  ND         9.3050   -0.2580   25.3710 N.ar  602  HEM602      0.0000
     43 FE          9.6310    1.8410   25.3830 Fe    602  HEM602      0.0000
@<TRIPOS>BOND
     1    28    27    2
     2    26    23    1
     3    27    24    1
     4    23    24    2
     5    23    22    1
     6    24    25    1
     7    22     3    2
     8    22    41    1
     9    25     4    1
    10    25    41    2
    11     3    18    1
    12     4    29    2
    13    41    43    1
    14    20    21    2
    15    20    17    1
    16    33    30    1
    17    18    17   ar
    18    18    40   ar
    19    29    30   ar
    20    29    42   ar
    21    17    16   ar
    22    30    31   ar
    23    40    43    1
    24    40    15   ar
    25    42    43    1
    26    42    32   ar
    27    43    39    1
    28    16    15   ar
    29    16    19    1
    30    31    32   ar
    31    31    34    1
    32    15     2    1
    33    32     1    2
    34    35    34    1
    35    35    36    1
    36    38    36   ar
    37    39     8    1
    38    39     5    2
    39    36    37   ar
    40     2     8    2
    41     1     5    1
    42     8     7    1
    43     5     6    1
    44     7     6    2
    45     7     9    1
    46     6    10    1
    47    10    11    1
    48    11    12    1
    49    13    12   ar
    50    12    14   ar
