@<TRIPOS>MOLECULE
4gn6_TYL_A_1.pdb
 11 11 0 0 0
SMALL
GASTEIGER

@<TRIPOS>ATOM
      1  C1         2.9970    4.2190   29.2650 C.ar  621  TYL621      0.0736
      2  C2         3.3930    4.8110   28.0850 C.ar  621  TYL621      0.0199
      3  C3         4.3140    4.2050   27.2440 C.ar  621  TYL621      0.0434
      4  C4         4.8490    3.0140   27.5870 C.ar  621  TYL621      0.1958
      5  C5         4.4700    2.3900   28.7710 C.ar  621  TYL621      0.0434
      6  C6         3.5380    2.9910   29.6230 C.ar  621  TYL621      0.0199
      7  N          2.0950    4.8620   30.0290 N.am  621  TYL621     -0.1792
      8  C          0.7880    4.7400   29.8350 C.2   621  TYL621      0.2461
      9  CM         0.1440    5.4950   28.7150 C.3   621  TYL621      0.0968
     10  O4         5.7300    2.4840   26.7230 O.3   621  TYL621     -0.2866
     11  O          0.1290    4.0440   30.5680 O.2   621  TYL621     -0.2730
@<TRIPOS>BOND
     1    10     4    1
     2     3     4   ar
     3     3     2   ar
     4     4     5   ar
     5     2     1   ar
     6     9     8    1
     7     5     6   ar
     8     1     6   ar
     9     1     7    1
    10     8     7   am
    11     8    11    2
