@<TRIPOS>MOLECULE
4gne_III_B_1.pdb
 48 47 0 0 0
SMALL
GASTEIGER

@<TRIPOS>ATOM
      1  N          8.7300  -30.7640    9.0740 N.3     1  ALA1       -0.1231
      2  CA         8.3660  -29.4180    8.5400 C.3     1  ALA1        0.1694
      3  C          8.8670  -28.3260    9.4820 C.2     1  ALA1        0.2592
      4  O          8.9730  -28.5400   10.6930 O.2     1  ALA1       -0.2718
      5  CB         6.8650  -29.3120    8.3630 C.3     1  ALA1        0.0304
      6  N          9.1650  -27.1600    8.9120 N.am    2  ARG2       -0.1966
      7  CA         9.8190  -26.0550    9.6010 C.3     2  ARG2        0.1729
      8  C          8.8580  -24.9820   10.0500 C.2     2  ARG2        0.2617
      9  O          7.7930  -24.8160    9.4620 O.2     2  ARG2       -0.2715
     10  CB        10.8050  -25.3920    8.6500 C.3     2  ARG2        0.0348
     11  CG        11.8770  -26.3230    8.1230 C.3     2  ARG2        0.0492
     12  CD        12.4430  -25.7750    6.8150 C.3     2  ARG2        0.2205
     13  NE        11.4060  -25.7590    5.7790 N.pl3   2  ARG2       -0.0865
     14  CZ        11.3790  -24.9370    4.7370 C.cat   2  ARG2        0.5346
     15  NH1       12.3610  -24.0600    4.5440 N.pl3   2  ARG2        0.1354
     16  NH2       10.3700  -25.0090    3.8740 N.pl3   2  ARG2        0.1354
     17  N          9.2790  -24.2130   11.0490 N.am    3  THR3       -0.1937
     18  CA         8.5620  -23.0110   11.4420 C.3     3  THR3        0.2028
     19  C          9.4070  -21.7410   11.3010 C.2     3  THR3        0.2642
     20  O         10.6470  -21.7700   11.2430 O.2     3  THR3       -0.2714
     21  CB         8.0530  -23.0720   12.8940 C.3     3  THR3        0.1808
     22  OG1        9.1690  -23.1600   13.7830 O.3     3  THR3       -0.2208
     23  CG2        7.1130  -24.2620   13.1020 C.3     3  THR3        0.0379
     24  N          8.7110  -20.6170   11.2380 N.am    4  LYS4       -0.1963
     25  CA         9.3420  -19.3220   11.3430 C.3     4  LYS4        0.1728
     26  C          8.5660  -18.5240   12.3870 C.2     4  LYS4        0.2616
     27  O          7.4340  -18.8820   12.7490 O.2     4  LYS4       -0.2715
     28  CB         9.3450  -18.5930    9.9950 C.3     4  LYS4        0.0311
     29  CG         8.0040  -18.4930    9.2970 C.3     4  LYS4        0.0038
     30  CD         8.1190  -17.6690    8.0230 C.3     4  LYS4        0.0206
     31  CE         8.2830  -16.1910    8.3210 C.3     4  LYS4        0.1093
     32  NZ         8.5760  -15.4120    7.0860 N.3     4  LYS4       -0.1314
     33  N          9.1830  -17.4540   12.8730 N.am    5  GLN5       -0.1963
     34  CA         8.5850  -16.6080   13.8850 C.3     5  GLN5        0.1733
     35  C          8.5340  -15.1900   13.3560 C.2     5  GLN5        0.2617
     36  O          9.5360  -14.6800   12.8440 O.2     5  GLN5       -0.2715
     37  CB         9.4270  -16.6510   15.1640 C.3     5  GLN5        0.0408
     38  CG         8.8360  -15.8320   16.2950 C.3     5  GLN5        0.0908
     39  CD         7.4990  -16.3550   16.7780 C.2     5  GLN5        0.2608
     40  OE1        6.5570  -15.5810   16.9850 O.2     5  GLN5       -0.2717
     41  NE2        7.4070  -17.6680   16.9710 N.am    5  GLN5       -0.0878
     42  N          7.3670  -14.5620   13.4760 N.am    6  THR6       -0.1951
     43  CA         7.2010  -13.1530   13.1120 C.3     6  THR6        0.1897
     44  C          6.6170  -12.3240   14.2540 C.2     6  THR6        0.2313
     45  O          6.2820  -12.8530   15.3170 O.2     6  THR6       -0.2863
     46  CB         6.3130  -13.0050   11.8730 C.3     6  THR6        0.1794
     47  OG1        5.0070  -13.5300   12.1560 O.3     6  THR6       -0.2208
     48  CG2        6.9160  -13.7800   10.7300 C.3     6  THR6        0.0378
@<TRIPOS>BOND
     1    16    14    1
     2    15    14    1
     3    14    13    2
     4    13    12    1
     5    12    11    1
     6    32    31    1
     7    30    31    1
     8    30    29    1
     9    11    10    1
    10     5     2    1
    11     2     1    1
    12     2     3    1
    13    10     7    1
    14     6     3   am
    15     6     7    1
    16    29    28    1
    17     9     8    2
    18     3     4    2
    19     7     8    1
    20    28    25    1
    21     8    17   am
    22    48    46    1
    23    17    18    1
    24    24    19   am
    25    24    25    1
    26    20    19    2
    27    19    18    1
    28    25    26    1
    29    18    21    1
    30    46    47    1
    31    46    43    1
    32    26    27    2
    33    26    33   am
    34    36    35    2
    35    33    34    1
    36    21    23    1
    37    21    22    1
    38    43    42    1
    39    43    44    1
    40    35    42   am
    41    35    34    1
    42    34    37    1
    43    44    45    2
    44    37    38    1
    45    38    39    1
    46    39    41   am
    47    39    40    2
