@<TRIPOS>MOLECULE
4gni_ATP_A_1.pdb
 31 33 0 0 0
SMALL
GASTEIGER

@<TRIPOS>ATOM
      1  PG       -20.8800   13.7680   -6.0010 P.3   502  ATP502      0.5373
      2  O1G      -20.9740   13.8980   -7.5040 O.2   502  ATP502     -0.2221
      3  O2G      -21.8250   12.7980   -5.3560 O.3   502  ATP502     -0.1143
      4  O3G      -19.4810   13.6170   -5.4510 O.3   502  ATP502     -0.1143
      5  PB       -21.4430   16.6430   -5.9970 P.3   502  ATP502      0.2277
      6  O1B      -22.8030   16.9070   -6.5550 O.3   502  ATP502     -0.4368
      7  O2B      -20.2290   16.9700   -6.7710 O.2   502  ATP502     -0.5168
      8  O3B      -21.3560   15.1600   -5.3800 O.3   502  ATP502     -0.2258
      9  PA       -20.5480   18.5390   -3.9220 P.3   502  ATP502      0.2189
     10  O1A      -21.6250   19.5310   -3.5710 O.3   502  ATP502     -0.4371
     11  O2A      -19.3370   18.9870   -4.6930 O.2   502  ATP502     -0.5170
     12  O3A      -21.3360   17.2940   -4.5330 O.3   502  ATP502     -0.2700
     13  O5'      -20.0100   17.8140   -2.5900 O.3   502  ATP502     -0.3112
     14  C5'      -20.8950   17.0120   -1.8030 C.3   502  ATP502      0.1813
     15  C4'      -20.3250   16.7630   -0.4100 C.3   502  ATP502      0.1821
     16  O4'      -19.8140   17.9820    0.1350 O.3   502  ATP502     -0.3135
     17  C3'      -21.3990   16.2660    0.5570 C.3   502  ATP502      0.2184
     18  O3'      -20.8830   15.1210    1.2440 O.3   502  ATP502     -0.2174
     19  C2'      -21.6070   17.4320    1.5100 C.3   502  ATP502      0.2570
     20  O2'      -22.0340   17.0170    2.8210 O.3   502  ATP502     -0.2130
     21  C1'      -20.2260   18.0740    1.4930 C.3   502  ATP502      0.3186
     22  N9       -20.2330   19.4740    1.9680 N.pl3 502  ATP502     -0.1439
     23  C8       -20.9480   20.5090    1.5090 C.3   502  ATP502      0.3377
     24  N7       -20.6710   21.6280    2.2270 N.2   502  ATP502     -0.2095
     25  C5       -19.7600   21.2840    3.1670 C.2   502  ATP502      0.2526
     26  C6       -19.0310   21.9540    4.2610 C.2   502  ATP502      0.4393
     27  N6       -19.2280   23.2730    4.5100 N.pl3 502  ATP502      0.2180
     28  N1       -18.1630   21.2100    4.9890 N.2   502  ATP502      0.0021
     29  C2       -17.9480   19.9050    4.7560 C.3   502  ATP502      0.5254
     30  N3       -18.5850   19.2340    3.7850 N.2   502  ATP502     -0.0055
     31  C4       -19.4830   19.8660    2.9890 C.2   502  ATP502      0.3518
@<TRIPOS>BOND
     1     2     1    2
     2     7     5    2
     3     6     5    1
     4     1     4    1
     5     1     8    1
     6     1     3    1
     7     5     8    1
     8     5    12    1
     9    11     9    2
    10    12     9    1
    11     9    10    1
    12     9    13    1
    13    13    14    1
    14    14    15    1
    15    15    16    1
    16    15    17    1
    17    16    21    1
    18    17    18    1
    19    17    19    1
    20    21    19    1
    21    21    22    1
    22    23    22    1
    23    23    24    1
    24    19    20    1
    25    22    31    1
    26    24    25    2
    27    31    25    1
    28    31    30    2
    29    25    26    1
    30    30    29    1
    31    26    27    1
    32    26    28    2
    33    29    28    1
