@<TRIPOS>MOLECULE
4gnk_GDP_A_1.pdb
 28 30 0 0 0
SMALL
GASTEIGER

@<TRIPOS>ATOM
      1  PB       -25.7520   32.8010  -53.5300 P.3   401  GDP401      0.5373
      2  O1B      -24.7390   32.5410  -54.6190 O.2   401  GDP401     -0.2221
      3  O2B      -27.1810   32.8930  -54.0060 O.3   401  GDP401     -0.1143
      4  O3B      -25.5440   31.9640  -52.2940 O.3   401  GDP401     -0.1143
      5  O3A      -25.3910   34.2960  -53.0700 O.3   401  GDP401     -0.2261
      6  PA       -26.4610   35.2440  -52.3370 P.3   401  GDP401      0.2231
      7  O1A      -27.6570   35.4270  -53.2420 O.2   401  GDP401     -0.5169
      8  O2A      -26.6290   34.7470  -50.9250 O.3   401  GDP401     -0.4370
      9  O5'      -25.6580   36.6370  -52.2610 O.3   401  GDP401     -0.3111
     10  C5'      -24.3110   36.6400  -51.7860 C.3   401  GDP401      0.1813
     11  C4'      -23.9980   37.8950  -50.9800 C.3   401  GDP401      0.1799
     12  O4'      -23.5830   38.9280  -51.8760 O.3   401  GDP401     -0.3326
     13  C3'      -25.1880   38.4120  -50.1840 C.3   401  GDP401      0.2158
     14  O3'      -24.7980   38.6550  -48.8310 O.3   401  GDP401     -0.2175
     15  C2'      -25.6040   39.6880  -50.8800 C.3   401  GDP401      0.2310
     16  O2'      -25.9460   40.7090  -49.9440 O.3   401  GDP401     -0.2158
     17  C1'      -24.3930   40.0880  -51.7080 C.3   401  GDP401      0.2293
     18  N9       -24.7910   40.6060  -53.0340 N.pl3 401  GDP401     -0.2354
     19  C8       -25.5590   39.9710  -53.9380 C.3   401  GDP401      0.2246
     20  N7       -25.7200   40.7400  -55.0450 N.2   401  GDP401     -0.2322
     21  C5       -25.0450   41.8870  -54.8560 C.2   401  GDP401      0.2182
     22  C6       -24.7960   43.1320  -55.6260 C.1   401  GDP401      0.2372
     23  O6       -25.2810   43.2900  -56.7660 O.2   401  GDP401     -0.2069
     24  N1       -24.0330   44.0860  -55.0690 N.2   401  GDP401     -0.2485
     25  C2       -23.4920   43.9430  -53.8390 C.1   401  GDP401      0.2531
     26  N2       -22.7300   44.9480  -53.3360 N.pl3 401  GDP401     -0.0226
     27  N3       -23.6810   42.8290  -53.0800 N.2   401  GDP401     -0.3074
     28  C4       -24.4310   41.7900  -53.5270 C.2   401  GDP401      0.2300
@<TRIPOS>BOND
     1    23    22    2
     2    22    24    2
     3    22    21    1
     4    24    25    2
     5    20    21    2
     6    20    19    1
     7    21    28    1
     8     2     1    2
     9     3     1    1
    10    19    18    1
    11    25    26    1
    12    25    27    2
    13     1     5    1
    14     1     4    1
    15    28    27    2
    16    28    18    1
    17     7     6    2
    18     5     6    1
    19    18    17    1
    20     6     9    1
    21     6     8    1
    22     9    10    1
    23    12    17    1
    24    12    11    1
    25    10    11    1
    26    17    15    1
    27    11    13    1
    28    15    13    1
    29    15    16    1
    30    13    14    1
