@<TRIPOS>MOLECULE
4gnv_NAG_A_1.pdb
 15 15 0 0 0
SMALL
GASTEIGER

@<TRIPOS>ATOM
      1  C1        20.0640   -8.1090    2.6970 C.3   401  NAG401      0.2917
      2  C2        19.8950   -6.9290    3.6700 C.3   401  NAG401      0.1871
      3  C3        19.6880   -7.3400    5.1390 C.3   401  NAG401      0.2095
      4  C4        18.6760   -8.4550    5.1630 C.3   401  NAG401      0.2136
      5  C5        19.1340   -9.5970    4.2470 C.3   401  NAG401      0.1835
      6  C6        18.1560  -10.7620    4.2690 C.3   401  NAG401      0.2142
      7  C7        20.9030   -4.6900    3.4760 C.2   401  NAG401      0.2421
      8  C8        22.1580   -3.8430    3.4570 C.3   401  NAG401      0.0964
      9  N2        21.0320   -6.0230    3.6130 N.am  401  NAG401     -0.1991
     10  O1        19.8430   -7.6690    1.3860 O.3   401  NAG401     -0.1879
     11  O3        19.2090   -6.2370    5.9060 O.3   401  NAG401     -0.2183
     12  O4        18.4990   -8.8340    6.5420 O.3   401  NAG401     -0.2176
     13  O5        19.1430   -9.1210    2.8960 O.3   401  NAG401     -0.3242
     14  O6        16.9950  -10.5840    3.5030 O.3   401  NAG401     -0.2176
     15  O7        19.8150   -4.1270    3.2870 O.2   401  NAG401     -0.2733
@<TRIPOS>BOND
     1    10     1    1
     2     1    13    1
     3     1     2    1
     4    13     5    1
     5    15     7    2
     6     8     7    1
     7     7     9   am
     8    14     6    1
     9     9     2    1
    10     2     3    1
    11     5     6    1
    12     5     4    1
    13     3     4    1
    14     3    11    1
    15     4    12    1
