@<TRIPOS>MOLECULE
4gny_SDS_A_1.pdb
 17 16 0 0 0
SMALL
GASTEIGER

@<TRIPOS>ATOM
      1  S         25.8550   41.9890   17.5910 S.3   201  SDS201     -0.0001
      2  O1S       26.0360   42.8360   16.4370 O.2   201  SDS201     -0.3452
      3  O2S       25.1200   40.7540   17.2560 O.3   201  SDS201     -0.2412
      4  O3S       27.1480   41.6690   18.2190 O.2   201  SDS201     -0.3452
      5  O4        25.0610   42.8460   18.4380 O.3   201  SDS201     -0.2682
      6  C1        23.8260   40.7930   16.7640 C.3   201  SDS201      0.1725
      7  C2        22.2520   28.4280   20.6220 C.3   201  SDS201      0.0000
      8  C3        22.5030   29.8840   20.3940 C.3   201  SDS201      0.0000
      9  C4        23.1210   30.1190   19.0630 C.3   201  SDS201      0.0000
     10  C5        23.7960   31.4470   19.0030 C.3   201  SDS201      0.0000
     11  C6        22.8720   32.5990   19.2180 C.3   201  SDS201      0.0000
     12  C7        23.3880   33.7660   18.4360 C.3   201  SDS201      0.0000
     13  C8        22.7940   35.0660   18.8480 C.3   201  SDS201      0.0000
     14  C9        23.4400   36.1220   18.0190 C.3   201  SDS201      0.0000
     15  C10       22.8300   37.4630   18.2380 C.3   201  SDS201      0.0001
     16  C11       23.6520   38.4760   17.5130 C.3   201  SDS201      0.0027
     17  C12       22.9680   39.8040   17.4880 C.3   201  SDS201      0.0346
@<TRIPOS>BOND
     1     2     1    2
     2     6     3    1
     3     6    17    1
     4     3     1    1
     5    17    16    1
     6    16    15    1
     7     1     4    2
     8     1     5    1
     9    14    15    1
    10    14    13    1
    11    12    13    1
    12    12    11    1
    13    10     9    1
    14    10    11    1
    15     9     8    1
    16     8     7    1
