@<TRIPOS>MOLECULE
4gnz_NAP_A_1.pdb
 48 52 0 0 0
SMALL
GASTEIGER

@<TRIPOS>ATOM
      1  PA        84.8250  -17.3620   15.9900 P.3   1001  NAP1001     0.2189
      2  O1A       83.4390  -17.5390   16.4620 O.3   1001  NAP1001    -0.4371
      3  O2A       85.1210  -18.1740   14.8020 O.2   1001  NAP1001    -0.5170
      4  O5B       85.8800  -17.7940   17.1200 O.3   1001  NAP1001    -0.3112
      5  C5B       85.9170  -17.2300   18.4090 C.3   1001  NAP1001     0.1813
      6  C4B       86.6450  -18.2040   19.3190 C.3   1001  NAP1001     0.1820
      7  O4B       85.8250  -19.3450   19.4860 O.3   1001  NAP1001    -0.3136
      8  C3B       87.9660  -18.7110   18.7610 C.3   1001  NAP1001     0.2157
      9  O3B       88.8700  -18.8900   19.8360 O.3   1001  NAP1001    -0.2175
     10  C2B       87.5760  -20.0670   18.2010 C.3   1001  NAP1001     0.2314
     11  O2B       88.6400  -20.9790   18.0840 O.3   1001  NAP1001    -0.2630
     12  C1B       86.5700  -20.5130   19.2470 C.3   1001  NAP1001     0.3158
     13  N9A       85.7440  -21.6530   18.8060 N.pl3 1001  NAP1001    -0.1439
     14  C8A       85.4740  -22.0600   17.5230 C.3   1001  NAP1001     0.3377
     15  N7A       84.7040  -23.1780   17.5910 N.2   1001  NAP1001    -0.2095
     16  C5A       84.4850  -23.4880   18.8920 C.2   1001  NAP1001     0.2526
     17  C6A       83.7770  -24.5040   19.5360 C.2   1001  NAP1001     0.4393
     18  N6A       83.1250  -25.4370   18.8690 N.pl3 1001  NAP1001     0.2180
     19  N1A       83.7480  -24.5480   20.9050 N.2   1001  NAP1001     0.0021
     20  C2A       84.4040  -23.5840   21.6350 C.3   1001  NAP1001     0.5254
     21  N3A       85.1070  -22.5870   21.0040 N.2   1001  NAP1001    -0.0055
     22  C4A       85.1490  -22.5350   19.6580 C.2   1001  NAP1001     0.3518
     23  O3        84.9740  -15.8020   15.6960 O.3   1001  NAP1001    -0.2703
     24  PN        86.0750  -15.0690   14.7990 P.3   1001  NAP1001     0.2189
     25  O1N       85.6760  -15.1690   13.3690 O.2   1001  NAP1001    -0.5170
     26  O2N       87.3520  -15.6250   15.3010 O.3   1001  NAP1001    -0.4371
     27  O5D       85.9750  -13.5430   15.2780 O.3   1001  NAP1001    -0.3112
     28  C5D       85.1480  -12.6720   14.5420 C.3   1001  NAP1001     0.1813
     29  C4D       83.8020  -12.5210   15.2440 C.3   1001  NAP1001     0.1799
     30  O4D       84.0000  -12.1750   16.6180 O.3   1001  NAP1001    -0.3327
     31  C3D       83.0180  -11.3750   14.6140 C.3   1001  NAP1001     0.2158
     32  O3D       81.6800  -11.7480   14.3480 O.3   1001  NAP1001    -0.2175
     33  C2D       83.0920  -10.2980   15.6930 C.3   1001  NAP1001     0.2309
     34  O2D       82.0470   -9.3480   15.6680 O.3   1001  NAP1001    -0.2158
     35  C1D       83.1160  -11.1220   16.9730 C.3   1001  NAP1001     0.2263
     36  N1N       83.5710  -10.2920   18.1000 N.pl3 1001  NAP1001    -0.2787
     37  C2N       82.6340   -9.7710   18.9680 C.3   1001  NAP1001     0.1244
     38  C3N       83.0590   -8.9530   20.0340 C.2   1001  NAP1001     0.0544
     39  C7N       82.1180   -8.5770   21.1370 C.2   1001  NAP1001     0.2818
     40  O7N       82.6840   -8.1710   22.3570 O.2   1001  NAP1001    -0.2670
     41  N7N       80.8040   -8.6430   20.9600 N.am  1001  NAP1001    -0.0839
     42  C4N       84.4330   -8.6810   20.2060 C.2   1001  NAP1001     0.0033
     43  C5N       85.3710   -9.2220   19.3190 C.2   1001  NAP1001     0.0157
     44  C6N       84.9210  -10.0280   18.2650 C.2   1001  NAP1001     0.0633
     45  P2B       89.6820  -20.8360   16.8570 P.3   1001  NAP1001     0.5328
     46  O1X       89.0080  -20.2630   15.6450 O.2   1001  NAP1001    -0.2224
     47  O2X       90.8170  -19.9170   17.2410 O.3   1001  NAP1001    -0.1145
     48  O3X       90.2280  -22.2160   16.6220 O.3   1001  NAP1001    -0.1145
@<TRIPOS>BOND
     1    25    24    2
     2    32    31    1
     3    28    29    1
     4    28    27    1
     5    31    29    1
     6    31    33    1
     7    24    27    1
     8    24    26    1
     9    24    23    1
    10     3     1    2
    11    29    30    1
    12    46    45    2
    13    34    33    1
    14    33    35    1
    15    23     1    1
    16     1     2    1
    17     1     4    1
    18    30    35    1
    19    48    45    1
    20    45    47    1
    21    45    11    1
    22    35    36    1
    23     4     5    1
    24    14    15    1
    25    14    13    1
    26    15    16    2
    27    11    10    1
    28    36    44    1
    29    36    37    1
    30    10     8    1
    31    10    12    1
    32    44    43    2
    33     5     6    1
    34     8     6    1
    35     8     9    1
    36    13    12    1
    37    13    22    1
    38    18    17    1
    39    16    17    1
    40    16    22    1
    41    37    38    1
    42    12     7    1
    43    43    42    1
    44     6     7    1
    45    17    19    2
    46    22    21    2
    47    38    42    2
    48    38    39    1
    49    19    20    1
    50    41    39   am
    51    21    20    1
    52    39    40    2
