@<TRIPOS>MOLECULE
4go0_NDP_A_1.pdb
 48 52 0 0 0
SMALL
GASTEIGER

@<TRIPOS>ATOM
      1  PA        84.4180  -17.4500   15.8190 P.3   1001  NDP1001     0.2189
      2  O1A       83.1850  -17.4260   16.6270 O.3   1001  NDP1001    -0.4371
      3  O2A       84.2240  -18.2390   14.5900 O.2   1001  NDP1001    -0.5170
      4  O5B       85.6140  -17.9480   16.7450 O.3   1001  NDP1001    -0.3112
      5  C5B       85.9190  -17.1920   17.8940 C.3   1001  NDP1001     0.1813
      6  C4B       86.4640  -18.0970   18.9990 C.3   1001  NDP1001     0.1820
      7  O4B       85.6570  -19.2430   19.2500 O.3   1001  NDP1001    -0.3136
      8  C3B       87.7950  -18.6450   18.5850 C.3   1001  NDP1001     0.2157
      9  O3B       88.5500  -18.7830   19.7600 O.3   1001  NDP1001    -0.2175
     10  C2B       87.4300  -20.0030   18.0330 C.3   1001  NDP1001     0.2314
     11  O2B       88.6200  -20.7410   17.8960 O.3   1001  NDP1001    -0.2630
     12  C1B       86.3610  -20.4480   19.0400 C.3   1001  NDP1001     0.3158
     13  N9A       85.4550  -21.5590   18.6250 N.pl3 1001  NDP1001    -0.1439
     14  C8A       85.0780  -21.8780   17.3430 C.3   1001  NDP1001     0.3377
     15  N7A       84.2650  -22.9610   17.3720 N.2   1001  NDP1001    -0.2095
     16  C5A       84.1180  -23.3460   18.6570 C.2   1001  NDP1001     0.2526
     17  C6A       83.4000  -24.3950   19.2370 C.2   1001  NDP1001     0.4393
     18  N6A       82.9020  -25.3130   18.4140 N.pl3 1001  NDP1001     0.2180
     19  N1A       83.3850  -24.6030   20.6170 N.2   1001  NDP1001     0.0021
     20  C2A       84.1160  -23.7250   21.3960 C.3   1001  NDP1001     0.5254
     21  N3A       84.8420  -22.6830   20.8080 N.2   1001  NDP1001    -0.0055
     22  C4A       84.8490  -22.4820   19.4570 C.2   1001  NDP1001     0.3518
     23  O3        84.9190  -15.9580   15.4280 O.3   1001  NDP1001    -0.2703
     24  PN        85.4660  -15.4390   13.9700 P.3   1001  NDP1001     0.2189
     25  O1N       84.6690  -15.8870   12.7690 O.2   1001  NDP1001    -0.5170
     26  O2N       86.9150  -15.7390   14.0030 O.3   1001  NDP1001    -0.4371
     27  O5D       85.2510  -13.8400   14.1690 O.3   1001  NDP1001    -0.3112
     28  C5D       84.1070  -13.1710   13.6710 C.3   1001  NDP1001     0.1813
     29  C4D       83.2750  -12.4940   14.7870 C.3   1001  NDP1001     0.1799
     30  O4D       83.8650  -12.1490   16.0650 O.3   1001  NDP1001    -0.3327
     31  C3D       82.6820  -11.1790   14.2700 C.3   1001  NDP1001     0.2158
     32  O3D       81.5100  -11.4640   13.5010 O.3   1001  NDP1001    -0.2175
     33  C2D       82.5880  -10.2650   15.5310 C.3   1001  NDP1001     0.2309
     34  O2D       81.3570   -9.5910   15.7740 O.3   1001  NDP1001    -0.2158
     35  C1D       82.9790  -11.1940   16.6870 C.3   1001  NDP1001     0.2263
     36  N1N       83.4030  -10.4920   17.9450 N.pl3 1001  NDP1001    -0.2787
     37  C2N       82.4370  -10.0110   18.8250 C.3   1001  NDP1001     0.1244
     38  C3N       82.7010   -9.1240   19.9030 C.2   1001  NDP1001     0.0544
     39  C7N       81.5940   -8.6390   20.8030 C.2   1001  NDP1001     0.2818
     40  O7N       81.7810   -8.5300   22.1900 O.2   1001  NDP1001    -0.2670
     41  N7N       80.4440   -8.3060   20.2560 N.am  1001  NDP1001    -0.0839
     42  C4N       84.1210   -8.6310   20.1780 C.2   1001  NDP1001     0.0033
     43  C5N       85.0900   -9.2080   19.1730 C.2   1001  NDP1001     0.0157
     44  C6N       84.7030  -10.0890   18.1340 C.2   1001  NDP1001     0.0633
     45  P2B       89.3820  -20.6930   16.4880 P.3   1001  NDP1001     0.5328
     46  O1X       88.3160  -20.3630   15.4690 O.2   1001  NDP1001    -0.2224
     47  O2X       90.5280  -19.7010   16.3170 O.3   1001  NDP1001    -0.1145
     48  O3X       89.9230  -22.1020   16.3720 O.3   1001  NDP1001    -0.1145
@<TRIPOS>BOND
     1    25    24    2
     2    32    31    1
     3    28    27    1
     4    28    29    1
     5    24    26    1
     6    24    27    1
     7    24    23    1
     8    31    29    1
     9    31    33    1
    10     3     1    2
    11    29    30    1
    12    23     1    1
    13    46    45    2
    14    33    34    1
    15    33    35    1
    16     1     2    1
    17     1     4    1
    18    30    35    1
    19    47    45    1
    20    48    45    1
    21    45    11    1
    22    35    36    1
    23     4     5    1
    24    14    15    1
    25    14    13    1
    26    15    16    2
    27     5     6    1
    28    11    10    1
    29    36    44    1
    30    36    37    1
    31    10     8    1
    32    10    12    1
    33    44    43    2
    34    18    17    1
    35     8     6    1
    36     8     9    1
    37    13    12    1
    38    13    22    1
    39    16    17    1
    40    16    22    1
    41    37    38    1
    42     6     7    1
    43    12     7    1
    44    43    42    1
    45    17    19    2
    46    22    21    2
    47    38    42    2
    48    38    39    1
    49    41    39   am
    50    19    20    1
    51    39    40    2
    52    21    20    1
