@<TRIPOS>MOLECULE
4go2_TAP_A_1.pdb
 48 53 0 0 0
SMALL
GASTEIGER

@<TRIPOS>ATOM
      1  PA        84.5760  -17.3070   15.6890 P.3   3009  TAP3009     0.2204
      2  O1A       83.2670  -17.6290   16.3780 O.3   3009  TAP3009    -0.4371
      3  O2A       84.8310  -17.8450   14.3010 O.2   3009  TAP3009    -0.5170
      4  O5B       85.7760  -17.8060   16.6620 O.3   3009  TAP3009    -0.3112
      5  C5B       85.8340  -17.1570   17.9430 C.3   3009  TAP3009     0.1813
      6  C4B       86.4830  -18.1370   18.9230 C.3   3009  TAP3009     0.1820
      7  O4B       85.6470  -19.3020   19.0930 O.3   3009  TAP3009    -0.3136
      8  C3B       87.8240  -18.6560   18.4060 C.3   3009  TAP3009     0.2157
      9  O3B       88.7850  -18.7490   19.4670 O.3   3009  TAP3009    -0.2175
     10  C2B       87.4820  -20.0570   17.9050 C.3   3009  TAP3009     0.2314
     11  O2B       88.6330  -20.9060   17.8150 O.3   3009  TAP3009    -0.2630
     12  C1B       86.4120  -20.5030   18.9040 C.3   3009  TAP3009     0.3158
     13  N9A       85.5900  -21.6790   18.4760 N.pl3 3009  TAP3009    -0.1439
     14  C8A       85.3530  -22.0960   17.2090 C.3   3009  TAP3009     0.3377
     15  N7A       84.5690  -23.2100   17.1810 N.2   3009  TAP3009    -0.2095
     16  C5A       84.2960  -23.5380   18.4610 C.2   3009  TAP3009     0.2526
     17  C6A       83.5230  -24.6060   19.1680 C.2   3009  TAP3009     0.4393
     18  N6A       82.8650  -25.5810   18.5030 N.pl3 3009  TAP3009     0.2180
     19  N1A       83.4920  -24.5730   20.5210 N.2   3009  TAP3009     0.0021
     20  C2A       84.1340  -23.6140   21.2260 C.3   3009  TAP3009     0.5254
     21  N3A       84.8510  -22.6210   20.6620 N.2   3009  TAP3009    -0.0055
     22  C4A       84.9750  -22.5260   19.3060 C.2   3009  TAP3009     0.3518
     23  O3        84.6920  -15.6870   15.6550 O.3   3009  TAP3009    -0.2513
     24  PN        85.8650  -14.8610   14.9120 P.3   3009  TAP3009     0.3991
     25  O1N       85.6030  -14.8920   13.4190 O.3   3009  TAP3009    -0.1422
     26  O2N       87.1930  -15.3110   15.4810 O.3   3009  TAP3009    -0.1422
     27  O5D       85.6210  -13.3580   15.4260 O.2   3009  TAP3009    -0.4599
     28  C5D       84.8260  -12.4570   14.6610 C.2   3009  TAP3009     0.0378
     29  C4D       83.4700  -12.2520   15.3300 C.3   3009  TAP3009     0.0966
     30  O4D       83.6510  -11.7770   16.6750 O.3   3009  TAP3009    -0.3433
     31  C3D       82.6590  -11.2050   14.5790 C.3   3009  TAP3009     0.2017
     32  O3D       81.2910  -11.6040   14.4490 O.3   3009  TAP3009    -0.2188
     33  C2D       82.8020   -9.9670   15.4520 C.3   3009  TAP3009     0.2421
     34  O2D       81.7080   -9.0410   15.3620 O.2   3009  TAP3009    -0.3709
     35  C1D       83.0250  -10.5030   16.8640 C.3   3009  TAP3009     0.1242
     36  N1N       83.5650  -12.1530   14.2130 N.3   3009  TAP3009    -0.2298
     37  C2N       83.0560  -11.2080   15.0290 C.3   3009  TAP3009     0.1358
     38  C3N       83.7040  -10.8350   16.2140 C.3   3009  TAP3009     0.1783
     39  C7N       83.1340   -9.7780   17.1300 C.1   3009  TAP3009     0.0063
     40  S7N       83.7340   -9.5620   18.5550 S.2   3009  TAP3009     0.0097
     41  N7N       82.1290   -8.9880   16.7470 N.2   3009  TAP3009    -0.0422
     42  C4N       84.9070  -11.4490   16.5400 C.3   3009  TAP3009     0.2005
     43  C5N       85.4180  -12.4150   15.6790 C.2   3009  TAP3009     0.1475
     44  C6N       84.7290  -12.7480   14.5150 C.3   3009  TAP3009     0.2844
     45  P2B       89.6290  -20.8350   16.5250 P.3   3009  TAP3009     0.5328
     46  O1X       88.8390  -20.1880   15.4240 O.2   3009  TAP3009    -0.2224
     47  O2X       90.8430  -20.0410   16.9590 O.3   3009  TAP3009    -0.1145
     48  O3X       89.8940  -22.3140   16.3400 O.3   3009  TAP3009    -0.1145
@<TRIPOS>BOND
     1    25    24    1
     2    36    44    1
     3    36    37    1
     4    36    29    1
     5     3     1    2
     6    32    31    1
     7    44    27    1
     8    31    37    1
     9    28    43    2
    10    24    26    1
    11    24    23    1
    12    37    29    1
    13    37    33    1
    14    34    33    1
    15    34    41    1
    16    46    45    2
    17    27    43    1
    18    33    38    1
    19    23     1    1
    20    43    42    1
    21     1     2    1
    22     1     4    1
    23    38    42    1
    24    38    30    1
    25    38    35    1
    26    48    45    1
    27    45    47    1
    28    45    11    1
    29    42    30    1
    30     4     5    1
    31    41    39    2
    32    35    39    1
    33    39    40    2
    34    15    14    1
    35    15    16    2
    36    14    13    1
    37    11    10    1
    38    10     8    1
    39    10    12    1
    40     5     6    1
    41     8     6    1
    42     8     9    1
    43    16    17    1
    44    16    22    1
    45    13    12    1
    46    13    22    1
    47    18    17    1
    48    12     7    1
    49     6     7    1
    50    17    19    2
    51    22    21    2
    52    19    20    1
    53    21    20    1
