@<TRIPOS>MOLECULE
4goj_GNP_A_1.pdb
 32 34 0 0 0
SMALL
GASTEIGER

@<TRIPOS>ATOM
      1  PG       -23.8650   -5.9950   17.4730 P.3   201  GNP201      0.4884
      2  O1G      -24.1650   -7.4230   17.2500 O.2   201  GNP201     -0.2331
      3  O2G      -25.0750   -5.1910   17.7870 O.3   201  GNP201     -0.1240
      4  O3G      -22.7120   -5.7400   18.3360 O.3   201  GNP201     -0.1240
      5  N3B      -23.3350   -5.4810   15.9840 N.3   201  GNP201     -0.0163
      6  PB       -22.8790   -3.8020   15.8030 P.3   201  GNP201      0.4669
      7  O1B      -24.0800   -3.0170   15.4810 O.2   201  GNP201     -0.2351
      8  O2B      -21.9980   -3.3460   16.9000 O.3   201  GNP201     -0.1253
      9  O3A      -21.9910   -3.8030   14.4660 O.3   201  GNP201     -0.2360
     10  PA       -20.3630   -3.8310   14.4430 P.3   201  GNP201      0.2220
     11  O1A      -19.8990   -5.0200   15.1400 O.3   201  GNP201     -0.4370
     12  O2A      -19.8320   -2.4970   14.7980 O.2   201  GNP201     -0.5170
     13  O5'      -20.1380   -4.0010   12.8300 O.3   201  GNP201     -0.3111
     14  C5'      -20.6340   -5.1570   12.1510 C.3   201  GNP201      0.1813
     15  C4'      -19.8800   -5.3490   10.8290 C.3   201  GNP201      0.1799
     16  O4'      -20.1460   -4.2120    9.9500 O.3   201  GNP201     -0.3326
     17  C3'      -18.3840   -5.3620   11.1010 C.3   201  GNP201      0.2158
     18  O3'      -17.7750   -6.3160   10.2310 O.3   201  GNP201     -0.2175
     19  C2'      -17.9710   -3.9530   10.7390 C.3   201  GNP201      0.2310
     20  O2'      -16.6370   -3.9280   10.2990 O.3   201  GNP201     -0.2158
     21  C1'      -18.9010   -3.6030    9.6010 C.3   201  GNP201      0.2293
     22  N9       -19.1300   -2.1300    9.4830 N.pl3 201  GNP201     -0.2354
     23  C8       -19.4670   -1.2630   10.4410 C.3   201  GNP201      0.2246
     24  N7       -19.5790   -0.0510    9.8940 N.2   201  GNP201     -0.2322
     25  C5       -19.3100   -0.1550    8.5960 C.2   201  GNP201      0.2182
     26  C6       -19.2810    0.7600    7.6190 C.1   201  GNP201      0.2372
     27  O6       -19.5310    1.9520    7.8240 O.2   201  GNP201     -0.2069
     28  N1       -18.9690    0.3550    6.3220 N.2   201  GNP201     -0.2485
     29  C2       -18.6920   -0.9940    6.0880 C.1   201  GNP201      0.2531
     30  N2       -18.3860   -1.4000    4.8680 N.pl3 201  GNP201     -0.0226
     31  N3       -18.7310   -1.8690    7.1030 N.2   201  GNP201     -0.3074
     32  C4       -19.0320   -1.4480    8.3430 C.2   201  GNP201      0.2300
@<TRIPOS>BOND
     1    30    29    1
     2    29    28    2
     3    29    31    2
     4    28    26    2
     5    31    32    2
     6    26    27    2
     7    26    25    1
     8    32    25    1
     9    32    22    1
    10    25    24    2
    11    22    21    1
    12    22    23    1
    13    21    16    1
    14    21    19    1
    15    24    23    1
    16    16    15    1
    17    18    17    1
    18    20    19    1
    19    19    17    1
    20    15    17    1
    21    15    14    1
    22    14    13    1
    23    13    10    1
    24    10     9    1
    25    10    12    2
    26    10    11    1
    27     9     6    1
    28     7     6    2
    29     6     5    1
    30     6     8    1
    31     5     1    1
    32     2     1    2
    33     1     3    1
    34     1     4    1
