@<TRIPOS>MOLECULE
4gok_GNP_A_1.pdb
 32 34 0 0 0
SMALL
GASTEIGER

@<TRIPOS>ATOM
      1  PG        83.3700   -7.7110   91.1670 P.3   201  GNP201      0.4884
      2  O1G       83.0600   -6.4050   90.4820 O.2   201  GNP201     -0.2331
      3  O2G       84.8020   -7.9440   91.5880 O.3   201  GNP201     -0.1240
      4  O3G       82.4050   -7.6580   92.3080 O.3   201  GNP201     -0.1240
      5  N3B       82.9030   -8.9470   90.2410 N.3   201  GNP201     -0.0163
      6  PB        81.4410   -9.1510   89.6160 P.3   201  GNP201      0.4669
      7  O1B       80.3290   -9.5380   90.5040 O.3   201  GNP201     -0.1253
      8  O2B       81.0940   -7.8350   89.0200 O.2   201  GNP201     -0.2351
      9  O3A       81.5730  -10.3110   88.5950 O.3   201  GNP201     -0.2360
     10  PA        81.3970  -10.2090   87.0450 P.3   201  GNP201      0.2220
     11  O1A       82.5420   -9.4040   86.5600 O.2   201  GNP201     -0.5170
     12  O2A       80.0790   -9.7330   86.5890 O.3   201  GNP201     -0.4370
     13  O5'       81.6120  -11.6970   86.5440 O.3   201  GNP201     -0.3111
     14  C5'       82.6940  -12.5380   87.0780 C.3   201  GNP201      0.1813
     15  C4'       82.9270  -13.7750   86.2140 C.3   201  GNP201      0.1799
     16  O4'       81.7940  -14.6770   86.3520 O.3   201  GNP201     -0.3326
     17  C3'       83.0340  -13.5540   84.6970 C.3   201  GNP201      0.2158
     18  O3'       84.0830  -14.3590   84.1070 O.3   201  GNP201     -0.2175
     19  C2'       81.6460  -13.9060   84.1450 C.3   201  GNP201      0.2310
     20  O2'       81.6280  -14.4460   82.8380 O.3   201  GNP201     -0.2158
     21  C1'       81.1830  -14.9860   85.1020 C.3   201  GNP201      0.2293
     22  N9        79.7070  -15.1030   85.1610 N.pl3 201  GNP201     -0.2354
     23  C8        78.7420  -14.1690   85.4640 C.3   201  GNP201      0.2246
     24  N7        77.5150  -14.6340   85.3790 N.2   201  GNP201     -0.2322
     25  C5        77.6580  -15.9450   85.0160 C.2   201  GNP201      0.2182
     26  C6        76.6960  -16.9630   84.7830 C.1   201  GNP201      0.2372
     27  O6        75.4470  -16.8600   84.8670 O.2   201  GNP201     -0.2069
     28  N1        77.2880  -18.1890   84.3970 N.2   201  GNP201     -0.2485
     29  C2        78.6550  -18.3670   84.2880 C.1   201  GNP201      0.2531
     30  N2        79.1710  -19.5300   83.9510 N.pl3 201  GNP201     -0.0226
     31  N3        79.5360  -17.4240   84.5130 N.2   201  GNP201     -0.3074
     32  C4        78.9810  -16.2370   84.8740 C.2   201  GNP201      0.2300
@<TRIPOS>BOND
     1    20    19    1
     2    30    29    1
     3    18    17    1
     4    19    17    1
     5    19    21    1
     6    29    28    2
     7    29    31    2
     8    28    26    2
     9    31    32    2
    10    17    15    1
    11    26    27    2
    12    26    25    1
    13    32    25    1
    14    32    22    1
    15    25    24    2
    16    21    22    1
    17    21    16    1
    18    22    23    1
    19    24    23    1
    20    15    16    1
    21    15    14    1
    22    13    10    1
    23    13    14    1
    24    11    10    2
    25    12    10    1
    26    10     9    1
    27     9     6    1
    28     8     6    2
    29     6     5    1
    30     6     7    1
    31     5     1    1
    32     2     1    2
    33     1     3    1
    34     1     4    1
