@<TRIPOS>MOLECULE
4gos_BMA_A_1.pdb
 11 11 0 0 0
SMALL
GASTEIGER

@<TRIPOS>ATOM
      1  C1        26.1350   32.9230   71.0690 C.3   203  BMA203      0.1777
      2  C2        26.0740   32.0360   72.3180 C.3   203  BMA203      0.2141
      3  C3        24.7570   32.2870   73.0510 C.3   203  BMA203      0.2173
      4  C4        24.5360   33.7790   73.3040 C.3   203  BMA203      0.2142
      5  C5        24.7530   34.5520   71.9960 C.3   203  BMA203      0.1810
      6  C6        24.6620   36.0700   72.1390 C.3   203  BMA203      0.2141
      7  O2        27.1860   32.3430   73.1280 O.3   203  BMA203     -0.2176
      8  O3        24.7260   31.5610   74.2740 O.3   203  BMA203     -0.2175
      9  O4        23.2120   33.9570   73.7930 O.3   203  BMA203     -0.2176
     10  O5        26.0220   34.2710   71.4190 O.3   203  BMA203     -0.3481
     11  O6        24.6060   36.4850   70.7920 O.3   203  BMA203     -0.2176
@<TRIPOS>BOND
     1    11     6    1
     2     1    10    1
     3     1     2    1
     4    10     5    1
     5     5     6    1
     6     5     4    1
     7     2     3    1
     8     2     7    1
     9     3     4    1
    10     3     8    1
    11     4     9    1
