@<TRIPOS>MOLECULE
4gos_MAN_A_1.pdb
 11 11 0 0 0
SMALL
GASTEIGER

@<TRIPOS>ATOM
      1  C1        24.4590   37.8870   70.5830 C.3   205  MAN205      0.1777
      2  C2        24.3790   38.0840   69.0790 C.3   205  MAN205      0.2141
      3  C3        25.7150   37.6160   68.4800 C.3   205  MAN205      0.2173
      4  C4        26.8680   38.3870   69.1110 C.3   205  MAN205      0.2142
      5  C5        26.8040   38.4290   70.6340 C.3   205  MAN205      0.1810
      6  C6        27.7080   39.5630   71.1410 C.3   205  MAN205      0.2141
      7  O2        24.1080   39.4600   68.8470 O.3   205  MAN205     -0.2176
      8  O3        25.7670   37.7260   67.0530 O.3   205  MAN205     -0.2175
      9  O4        28.1200   37.8700   68.6990 O.3   205  MAN205     -0.2176
     10  O5        25.5100   38.6500   71.1290 O.3   205  MAN205     -0.3481
     11  O6        27.9860   39.4700   72.5210 O.3   205  MAN205     -0.2176
@<TRIPOS>BOND
     1     8     3    1
     2     3     2    1
     3     3     4    1
     4     9     4    1
     5     7     2    1
     6     2     1    1
     7     4     5    1
     8     1    10    1
     9     5    10    1
    10     5     6    1
    11     6    11    1
