@<TRIPOS>MOLECULE
4gox_A3P_A_1.pdb
 27 29 0 0 0
SMALL
GASTEIGER

@<TRIPOS>ATOM
      1  P1       -34.0730   -8.9620  -14.2940 P.3   401  A3P401      0.5327
      2  O1P      -33.0520   -8.7280  -13.2070 O.3   401  A3P401     -0.1145
      3  O2P      -35.0020   -7.7770  -14.4570 O.3   401  A3P401     -0.1145
      4  O3P      -33.5400   -9.5780  -15.5580 O.2   401  A3P401     -0.2224
      5  P2       -38.9400  -12.4260  -10.1650 P.3   401  A3P401      0.5327
      6  O4P      -39.0840  -13.8460   -9.6960 O.3   401  A3P401     -0.1145
      7  O5P      -38.1750  -11.4980   -9.2720 O.3   401  A3P401     -0.1145
      8  O6P      -40.2370  -11.8600  -10.6950 O.2   401  A3P401     -0.2224
      9  O5'      -38.0240  -12.5000  -11.4790 O.3   401  A3P401     -0.2675
     10  C5'      -37.4580  -11.3090  -12.0510 C.3   401  A3P401      0.1859
     11  C4'      -36.9100  -11.6370  -13.4360 C.3   401  A3P401      0.1796
     12  O4'      -37.9240  -12.1070  -14.3150 O.3   401  A3P401     -0.3136
     13  C3'      -36.3200  -10.4540  -14.1780 C.3   401  A3P401      0.1928
     14  O3'      -35.0060  -10.1580  -13.7170 O.3   401  A3P401     -0.2673
     15  C2'      -36.3750  -10.8970  -15.6240 C.3   401  A3P401      0.2543
     16  O2'      -35.1800  -11.5680  -16.0330 O.3   401  A3P401     -0.2131
     17  C1'      -37.5340  -11.8790  -15.6720 C.3   401  A3P401      0.3185
     18  N9       -38.6280  -11.2150  -16.4180 N.pl3 401  A3P401     -0.1439
     19  C8       -39.3970  -10.1920  -15.9470 C.3   401  A3P401      0.3377
     20  N7       -40.2750   -9.7770  -16.8880 N.2   401  A3P401     -0.2095
     21  C5       -40.0630  -10.5370  -17.9780 C.2   401  A3P401      0.2526
     22  C6       -40.6260  -10.5920  -19.3410 C.2   401  A3P401      0.4393
     23  N6       -41.6290   -9.7550  -19.6630 N.pl3 401  A3P401      0.2180
     24  N1       -40.1410  -11.5220  -20.2020 N.2   401  A3P401      0.0021
     25  C2       -39.1520  -12.3840  -19.8530 C.3   401  A3P401      0.5254
     26  N3       -38.5610  -12.3630  -18.6360 N.2   401  A3P401     -0.0055
     27  C4       -38.9720  -11.4840  -17.6750 C.2   401  A3P401      0.3518
@<TRIPOS>BOND
     1    24    25    1
     2    24    22    2
     3    25    26    1
     4    23    22    1
     5    22    21    1
     6    26    27    2
     7    21    27    1
     8    21    20    2
     9    27    18    1
    10    20    19    1
    11    18    19    1
    12    18    17    1
    13    16    15    1
    14    17    15    1
    15    17    12    1
    16    15    13    1
    17     4     1    2
    18     3     1    1
    19    12    11    1
    20     1    14    1
    21     1     2    1
    22    13    14    1
    23    13    11    1
    24    11    10    1
    25    10     9    1
    26     9     5    1
    27     8     5    2
    28     5     6    1
    29     5     7    1
