@<TRIPOS>MOLECULE
4gp1_DMA_A_1.pdb
 14 13 0 0 0
SMALL
GASTEIGER

@<TRIPOS>ATOM
      1  C1        17.8720    0.8340  -23.4000 C.3   402  DMA402      0.1747
      2  O1        17.8080    1.4580  -24.6680 O.3   402  DMA402     -0.3089
      3  C2        17.0580   -0.4430  -23.3180 C.2   402  DMA402     -0.0024
      4  C3        16.9930   -1.2780  -22.2640 C.2   402  DMA402     -0.0454
      5  C4        17.7620   -1.0750  -21.0070 C.3   402  DMA402      0.0261
      6  C5        16.1420   -2.4940  -22.3210 C.3   402  DMA402      0.0261
      7  PA        16.4710    1.6800  -25.5010 P.3   402  DMA402      0.2233
      8  O1A       15.9740    0.3820  -25.7880 O.2   402  DMA402     -0.5169
      9  O2A       15.5710    2.5330  -24.7770 O.3   402  DMA402     -0.4370
     10  O3A       16.9590    2.4320  -26.8140 O.3   402  DMA402     -0.2261
     11  PB        17.7220    1.8790  -28.0590 P.3   402  DMA402      0.5373
     12  O1B       16.8480    1.0100  -28.7850 O.2   402  DMA402     -0.2221
     13  O2B       18.8870    1.2030  -27.5860 O.3   402  DMA402     -0.1143
     14  O3B       18.0440    3.0680  -28.7650 O.3   402  DMA402     -0.1143
@<TRIPOS>BOND
     1    12    11    2
     2    14    11    1
     3    11    13    1
     4    11    10    1
     5    10     7    1
     6     8     7    2
     7     7     9    1
     8     7     2    1
     9     2     1    1
    10     1     3    1
    11     3     4    2
    12     6     4    1
    13     4     5    1
