@<TRIPOS>MOLECULE
4gp2_DMA_A_1.pdb
 14 13 0 0 0
SMALL
GASTEIGER

@<TRIPOS>ATOM
      1  C1        14.1140   10.4310   12.1170 C.3   403  DMA403      0.1747
      2  O1        13.6710   10.9230   13.3750 O.3   403  DMA403     -0.3089
      3  C2        14.6580    9.0680   12.4470 C.2   403  DMA403     -0.0024
      4  C3        15.3840    8.3690   11.5820 C.2   403  DMA403     -0.0454
      5  C4        15.6740    8.9510   10.2330 C.3   403  DMA403      0.0261
      6  C5        15.8980    7.0150   11.9870 C.3   403  DMA403      0.0261
      7  PA        12.3830   11.8620   13.5810 P.3   403  DMA403      0.2233
      8  O1A       11.3780   11.7040   12.4290 O.2   403  DMA403     -0.5169
      9  O2A       11.9330   11.6540   15.0160 O.3   403  DMA403     -0.4370
     10  O3A       13.0650   13.3270   13.4830 O.3   403  DMA403     -0.2261
     11  PB        13.7200   13.9930   12.1630 P.3   403  DMA403      0.5373
     12  O1B       12.6790   13.7370   11.0970 O.2   403  DMA403     -0.2221
     13  O2B       15.0410   13.2880   11.9300 O.3   403  DMA403     -0.1143
     14  O3B       13.8810   15.4340   12.5600 O.3   403  DMA403     -0.1143
@<TRIPOS>BOND
     1     5     4    1
     2    12    11    2
     3     4     6    1
     4     4     3    2
     5    13    11    1
     6     1     3    1
     7     1     2    1
     8    11    14    1
     9    11    10    1
    10     8     7    2
    11     2     7    1
    12    10     7    1
    13     7     9    1
