@<TRIPOS>MOLECULE
4gp4_HEM_A_1.pdb
 43 50 0 0 0
SMALL
GASTEIGER

@<TRIPOS>ATOM
      1  CHA       -0.6130   -3.5760   34.6270 C.2   602  HEM602      0.0000
      2  CHB        1.5610   -7.5240   36.7640 C.2   602  HEM602      0.0000
      3  CHC        5.8980   -5.2770   36.1820 C.2   602  HEM602      0.0000
      4  CHD        3.5670   -1.8560   33.3410 C.2   602  HEM602      0.0000
      5  C1A       -0.3390   -4.9310   35.2290 C.2   602  HEM602      0.0000
      6  C2A       -1.3850   -5.9780   35.4670 C.2   602  HEM602      0.0000
      7  C3A       -0.7530   -7.0630   35.9190 C.2   602  HEM602      0.0000
      8  C4A        0.6740   -6.7060   36.2100 C.2   602  HEM602      0.0000
      9  CMA       -1.4390   -8.3340   36.3700 C.3   602  HEM602      0.0000
     10  CAA       -2.8440   -5.8660   35.0590 C.3   602  HEM602      0.0000
     11  CBA       -3.6700   -5.2770   36.1990 C.3   602  HEM602      0.0000
     12  CGA       -4.9850   -4.7950   35.6360 C.2   602  HEM602      0.0000
     13  O1A       -5.8730   -4.3770   36.3680 O.co2 602  HEM602      0.0000
     14  O2A       -5.1820   -4.8330   34.3250 O.co2 602  HEM602      0.0000
     15  C1B        3.0160   -7.1720   36.9050 C.ar  602  HEM602      0.0000
     16  C2B        3.8840   -7.9190   37.5910 C.ar  602  HEM602      0.0000
     17  C3B        5.2230   -7.2710   37.4460 C.ar  602  HEM602      0.0000
     18  C4B        4.9550   -6.1300   36.5310 C.ar  602  HEM602      0.0000
     19  CMB        3.6300   -9.2350   38.2890 C.3   602  HEM602      0.0000
     20  CAB        6.4150   -7.7670   37.7510 C.3   602  HEM602      0.0000
     21  CBB        6.7380   -8.1340   39.1760 C.3   602  HEM602      0.0000
     22  C1C        5.6650   -4.1840   35.2100 C.2   602  HEM602      0.0000
     23  C2C        6.6210   -3.4480   34.6590 C.2   602  HEM602      0.0000
     24  C3C        5.9190   -2.5030   33.7650 C.2   602  HEM602      0.0000
     25  C4C        4.6210   -2.7170   33.9420 C.2   602  HEM602      0.0000
     26  CMC        8.1230   -3.6170   34.7970 C.3   602  HEM602      0.0000
     27  CAC        6.5650   -1.3170   33.1410 C.2   602  HEM602      0.0000
     28  CBC        7.8170   -1.3640   32.7090 C.2   602  HEM602      0.0000
     29  C1D        2.2880   -1.9380   33.6620 C.ar  602  HEM602      0.0000
     30  C2D        1.2590   -0.8920   33.3390 C.ar  602  HEM602      0.0000
     31  C3D        0.0820   -1.3840   33.7210 C.ar  602  HEM602      0.0000
     32  C4D        0.3500   -2.7340   34.3000 C.ar  602  HEM602      0.0000
     33  CMD        1.4330    0.2520   32.3640 C.3   602  HEM602      0.0000
     34  CAD       -1.2700   -0.9030   33.2330 C.3   602  HEM602      0.0000
     35  CBD       -1.8520    0.1030   34.2340 C.3   602  HEM602      0.0000
     36  CGD       -3.2210    0.5890   33.7910 C.2   602  HEM602      0.0000
     37  O1D       -3.7140    1.5970   34.2620 O.co2 602  HEM602      0.0000
     38  O2D       -3.9020   -0.0860   32.8780 O.co2 602  HEM602      0.0000
     39  NA         0.9290   -5.5060   35.6610 N.2   602  HEM602      0.0000
     40  NB         3.6150   -6.0360   36.4570 N.ar  602  HEM602      0.0000
     41  NC         4.4660   -3.8130   34.7390 N.2   602  HEM602      0.0000
     42  ND         1.6760   -2.9790   34.2570 N.ar  602  HEM602      0.0000
     43 FE          2.6210   -4.4290   35.3400 Fe    602  HEM602      0.0000
@<TRIPOS>BOND
     1    33    30    1
     2    28    27    2
     3    38    36   ar
     4    27    24    1
     5    34    31    1
     6    34    35    1
     7    30    29   ar
     8    30    31   ar
     9     4    29    2
    10     4    25    1
    11    29    42   ar
    12    31    32   ar
    13    24    25    1
    14    24    23    2
    15    36    35    1
    16    36    37   ar
    17    25    41    2
    18    42    32   ar
    19    42    43    1
    20    32     1    2
    21    14    12   ar
    22     1     5    1
    23    23    26    1
    24    23    22    1
    25    41    22    1
    26    41    43    1
    27    10     6    1
    28    10    11    1
    29    22     3    2
    30     5     6    1
    31     5    39    2
    32    43    39    1
    33    43    40    1
    34     6     7    2
    35    12    11    1
    36    12    13   ar
    37    39     8    1
    38     7     8    1
    39     7     9    1
    40     3    18    1
    41     8     2    2
    42    40    18   ar
    43    40    15   ar
    44    18    17   ar
    45     2    15    1
    46    15    16   ar
    47    17    16   ar
    48    17    20    1
    49    16    19    1
    50    20    21    1
