@<TRIPOS>MOLECULE
4gp5_HEM_A_1.pdb
 43 50 0 0 0
SMALL
GASTEIGER

@<TRIPOS>ATOM
      1  CHA        0.5200   -3.8780  -34.8420 C.2   602  HEM602      0.0000
      2  CHB       -1.6340   -7.8930  -36.6960 C.2   602  HEM602      0.0000
      3  CHC       -5.8990   -5.4930  -36.2730 C.2   602  HEM602      0.0000
      4  CHD       -3.6170   -2.1560  -33.5310 C.2   602  HEM602      0.0000
      5  C1A        0.2930   -5.3000  -35.2110 C.ar  602  HEM602      0.0000
      6  C2A        1.3420   -6.3400  -35.3320 C.ar  602  HEM602      0.0000
      7  C3A        0.7660   -7.3400  -36.0620 C.ar  602  HEM602      0.0000
      8  C4A       -0.7020   -7.0340  -36.2770 C.ar  602  HEM602      0.0000
      9  CMA        1.4030   -8.6760  -36.4470 C.3   602  HEM602      0.0000
     10  CAA        2.7750   -6.1360  -34.8420 C.3   602  HEM602      0.0000
     11  CBA        3.6600   -5.4770  -35.8990 C.3   602  HEM602      0.0000
     12  CGA        5.0740   -5.1370  -35.4390 C.2   602  HEM602      0.0000
     13  O1A        5.9730   -4.8000  -36.2400 O.co2 602  HEM602      0.0000
     14  O2A        5.3990   -5.2010  -34.1470 O.co2 602  HEM602      0.0000
     15  C1B       -3.0900   -7.5350  -36.8560 C.2   602  HEM602      0.0000
     16  C2B       -3.9980   -8.3090  -37.4470 C.2   602  HEM602      0.0000
     17  C3B       -5.3150   -7.6800  -37.1540 C.2   602  HEM602      0.0000
     18  C4B       -4.9930   -6.4340  -36.4380 C.2   602  HEM602      0.0000
     19  CMB       -3.7790   -9.3970  -38.4780 C.3   602  HEM602      0.0000
     20  CAB       -6.5180   -8.0040  -37.5920 C.3   602  HEM602      0.0000
     21  CBB       -6.8430   -7.8770  -39.0540 C.3   602  HEM602      0.0000
     22  C1C       -5.7000   -4.3850  -35.3170 C.ar  602  HEM602      0.0000
     23  C2C       -6.6500   -3.8190  -34.5610 C.ar  602  HEM602      0.0000
     24  C3C       -5.9380   -3.0040  -33.5860 C.ar  602  HEM602      0.0000
     25  C4C       -4.6540   -3.1410  -33.8920 C.ar  602  HEM602      0.0000
     26  CMC       -8.1370   -3.7560  -34.7700 C.3   602  HEM602      0.0000
     27  CAC       -6.5600   -1.8340  -32.8960 C.2   602  HEM602      0.0000
     28  CBC       -7.8190   -1.7670  -32.4740 C.2   602  HEM602      0.0000
     29  C1D       -2.3130   -2.3640  -33.6130 C.2   602  HEM602      0.0000
     30  C2D       -1.2800   -1.3390  -33.2430 C.2   602  HEM602      0.0000
     31  C3D       -0.1020   -1.9410  -33.4360 C.2   602  HEM602      0.0000
     32  C4D       -0.4010   -3.1540  -34.2550 C.2   602  HEM602      0.0000
     33  CMD       -1.5470   -0.1130  -32.4030 C.3   602  HEM602      0.0000
     34  CAD        1.2870   -1.5080  -32.9710 C.3   602  HEM602      0.0000
     35  CBD        1.8730   -0.5640  -34.0220 C.3   602  HEM602      0.0000
     36  CGD        3.2240    0.0370  -33.6530 C.2   602  HEM602      0.0000
     37  O1D        3.5310    1.1150  -34.1410 O.co2 602  HEM602      0.0000
     38  O2D        4.0850   -0.5720  -32.8270 O.co2 602  HEM602      0.0000
     39  NA        -0.9570   -5.9350  -35.5490 N.ar  602  HEM602      0.0000
     40  NB        -3.6670   -6.3450  -36.5460 N.2   602  HEM602      0.0000
     41  NC        -4.4950   -4.1250  -34.8020 N.ar  602  HEM602      0.0000
     42  ND        -1.6900   -3.4430  -34.1220 N.2   602  HEM602      0.0000
     43 FE         -2.6020   -4.8060  -35.3030 Fe    602  HEM602      0.0000
@<TRIPOS>BOND
     1    21    20    1
     2    19    16    1
     3    20    17    1
     4    16    17    2
     5    16    15    1
     6    17    18    1
     7    15     2    1
     8    15    40    2
     9     2     8    2
    10    40    18    1
    11    40    43    1
    12     9     7    1
    13    18     3    2
    14     8     7   ar
    15     8    39   ar
    16     3    22    1
    17    13    12   ar
    18     7     6   ar
    19    11    12    1
    20    11    10    1
    21    39    43    1
    22    39     5   ar
    23    12    14   ar
    24     6     5   ar
    25     6    10    1
    26    22    41   ar
    27    22    23   ar
    28    43    41    1
    29    43    42    1
    30     5     1    2
    31     1    32    1
    32    41    25   ar
    33    26    23    1
    34    23    24   ar
    35    32    42    2
    36    32    31    1
    37    37    36   ar
    38    42    29    1
    39    35    36    1
    40    35    34    1
    41    25    24   ar
    42    25     4    1
    43    36    38   ar
    44    29     4    2
    45    29    30    1
    46    24    27    1
    47    31    30    2
    48    31    34    1
    49    30    33    1
    50    27    28    2
