@<TRIPOS>MOLECULE
4gp6_ADP_A_1.pdb
 27 29 0 0 0
SMALL
GASTEIGER

@<TRIPOS>ATOM
      1  PB        38.7130    7.0870  163.3880 P.3   1001  ADP1001     0.5373
      2  O1B       39.4900    5.8950  163.8980 O.3   1001  ADP1001    -0.1143
      3  O2B       39.2490    7.6680  162.0970 O.2   1001  ADP1001    -0.2221
      4  O3B       38.3590    8.1520  164.4010 O.3   1001  ADP1001    -0.1143
      5  PA        36.7310    5.0240  163.4740 P.3   1001  ADP1001     0.2231
      6  O1A       36.8240    5.0050  164.9880 O.3   1001  ADP1001    -0.4370
      7  O2A       37.2790    3.8730  162.6610 O.2   1001  ADP1001    -0.5169
      8  O3A       37.2920    6.4430  162.9590 O.3   1001  ADP1001    -0.2261
      9  O5'       35.1820    5.1720  163.0890 O.3   1001  ADP1001    -0.3111
     10  C5'       34.5110    6.3560  163.5100 C.3   1001  ADP1001     0.1813
     11  C4'       33.0430    6.0230  163.7030 C.3   1001  ADP1001     0.1821
     12  O4'       32.4410    5.8320  162.4190 O.3   1001  ADP1001    -0.3135
     13  C3'       32.8790    4.7300  164.4760 C.3   1001  ADP1001     0.2184
     14  O3'       31.7110    4.8120  165.2930 O.3   1001  ADP1001    -0.2174
     15  C2'       32.7210    3.6930  163.3810 C.3   1001  ADP1001     0.2570
     16  O2'       31.9410    2.5630  163.7600 O.3   1001  ADP1001    -0.2130
     17  C1'       32.0330    4.4740  162.2850 C.3   1001  ADP1001     0.3186
     18  N9        32.4140    3.9780  160.9510 N.pl3 1001  ADP1001    -0.1439
     19  C8        33.6310    3.5480  160.5470 C.3   1001  ADP1001     0.3377
     20  N7        33.5840    3.1640  159.2430 N.2   1001  ADP1001    -0.2095
     21  C5        32.3250    3.3560  158.8180 C.2   1001  ADP1001     0.2526
     22  C6        31.5880    3.1610  157.5570 C.2   1001  ADP1001     0.4393
     23  N6        32.2260    2.6720  156.4680 N.pl3 1001  ADP1001     0.2180
     24  N1        30.2740    3.4840  157.5490 N.2   1001  ADP1001     0.0021
     25  C2        29.6280    3.9680  158.6250 C.3   1001  ADP1001     0.5254
     26  N3        30.2450    4.1710  159.8020 N.2   1001  ADP1001    -0.0055
     27  C4        31.5570    3.8830  159.9480 C.2   1001  ADP1001     0.3518
@<TRIPOS>BOND
     1    23    22    1
     2    24    22    2
     3    24    25    1
     4    22    21    1
     5    25    26    1
     6    21    20    2
     7    21    27    1
     8    20    19    1
     9    26    27    2
    10    27    18    1
    11    19    18    1
    12    18    17    1
    13     3     1    2
    14    17    12    1
    15    17    15    1
    16    12    11    1
    17     7     5    2
    18     8     1    1
    19     8     5    1
    20     9     5    1
    21     9    10    1
    22    15    16    1
    23    15    13    1
    24     1     2    1
    25     1     4    1
    26     5     6    1
    27    10    11    1
    28    11    13    1
    29    13    14    1
