@<TRIPOS>MOLECULE
4gp7_ATP_A_1.pdb
 31 33 0 0 0
SMALL
GASTEIGER

@<TRIPOS>ATOM
      1  PG        23.2770   19.2640   87.6590 P.3   1001  ATP1001     0.5373
      2  O1G       22.2120   18.5250   88.4130 O.3   1001  ATP1001    -0.1143
      3  O2G       22.7270   20.5160   87.0270 O.2   1001  ATP1001    -0.2221
      4  O3G       24.6080   19.4220   88.3360 O.3   1001  ATP1001    -0.1143
      5  PB        24.6820   18.3130   85.3120 P.3   1001  ATP1001     0.2277
      6  O1B       25.9920   18.7300   85.9410 O.3   1001  ATP1001    -0.4368
      7  O2B       24.1430   19.0140   84.0850 O.2   1001  ATP1001    -0.5168
      8  O3B       23.5130   18.2400   86.4190 O.3   1001  ATP1001    -0.2258
      9  PA        26.1130   15.8510   85.1910 P.3   1001  ATP1001     0.2189
     10  O1A       26.2450   15.6130   86.6690 O.3   1001  ATP1001    -0.4371
     11  O2A       27.3380   16.3490   84.4600 O.2   1001  ATP1001    -0.5170
     12  O3A       24.7910   16.7470   84.9270 O.3   1001  ATP1001    -0.2700
     13  O5'       25.5740   14.4830   84.5310 O.3   1001  ATP1001    -0.3112
     14  C5'       24.4520   13.8280   85.1390 C.3   1001  ATP1001     0.1813
     15  C4'       24.5830   12.3200   84.9550 C.3   1001  ATP1001     0.1821
     16  O4'       24.5330   11.9950   83.5580 O.3   1001  ATP1001    -0.3135
     17  C3'       25.9220   11.8290   85.4870 C.3   1001  ATP1001     0.2184
     18  O3'       25.7430   10.5890   86.1810 O.3   1001  ATP1001    -0.2174
     19  C2'       26.7370   11.5800   84.2400 C.3   1001  ATP1001     0.2570
     20  O2'       27.7030   10.5370   84.4090 O.3   1001  ATP1001    -0.2130
     21  C1'       25.7060   11.2850   83.1640 C.3   1001  ATP1001     0.3186
     22  N9        26.2600   11.7970   81.8900 N.pl3 1001  ATP1001    -0.1439
     23  C8        26.9230   12.9640   81.7750 C.3   1001  ATP1001     0.3377
     24  N7        27.3390   13.1700   80.5040 N.2   1001  ATP1001    -0.2095
     25  C5        26.9500   12.1110   79.7800 C.2   1001  ATP1001     0.2526
     26  C6        27.0790   11.7050   78.3630 C.2   1001  ATP1001     0.4393
     27  N6        27.7250   12.5120   77.4850 N.pl3 1001  ATP1001     0.2180
     28  N1        26.5350   10.5210   77.9940 N.2   1001  ATP1001     0.0021
     29  C2        25.9000    9.7320   78.8860 C.3   1001  ATP1001     0.5254
     30  N3        25.7460   10.0380   80.1920 N.2   1001  ATP1001    -0.0055
     31  C4        26.2460   11.1960   80.6960 C.2   1001  ATP1001     0.3518
@<TRIPOS>BOND
     1    27    26    1
     2    28    26    2
     3    28    29    1
     4    26    25    1
     5    29    30    1
     6    25    24    2
     7    25    31    1
     8    30    31    2
     9    24    23    1
    10    31    22    1
    11    23    22    1
    12    22    21    1
    13    21    16    1
    14    21    19    1
    15    16    15    1
    16     7     5    2
    17    19    20    1
    18    19    17    1
    19    11     9    2
    20    13    14    1
    21    13     9    1
    22    12     9    1
    23    12     5    1
    24    15    14    1
    25    15    17    1
    26     9    10    1
    27     5     6    1
    28     5     8    1
    29    17    18    1
    30     8     1    1
    31     3     1    2
    32     1     4    1
    33     1     2    1
