@<TRIPOS>MOLECULE
4gp8_HEM_A_1.pdb
 43 50 0 0 0
SMALL
GASTEIGER

@<TRIPOS>ATOM
      1  CHA       -0.7050   -4.4770   34.9880 C.2   602  HEM602      0.0000
      2  CHB        1.4560   -8.3900   37.0990 C.2   602  HEM602      0.0000
      3  CHC        5.7940   -6.1790   36.5350 C.2   602  HEM602      0.0000
      4  CHD        3.4830   -2.7670   33.7270 C.2   602  HEM602      0.0000
      5  C1A       -0.4310   -5.8270   35.5540 C.2   602  HEM602      0.0000
      6  C2A       -1.4540   -6.9060   35.6920 C.2   602  HEM602      0.0000
      7  C3A       -0.8060   -8.0010   36.1480 C.2   602  HEM602      0.0000
      8  C4A        0.6170   -7.6240   36.4310 C.2   602  HEM602      0.0000
      9  CMA       -1.4350   -9.2590   36.7290 C.3   602  HEM602      0.0000
     10  CAA       -2.9170   -6.7760   35.2860 C.3   602  HEM602      0.0000
     11  CBA       -3.6560   -6.1780   36.4650 C.3   602  HEM602      0.0000
     12  CGA       -4.9510   -5.6460   35.9660 C.2   602  HEM602      0.0000
     13  O1A       -5.9090   -5.4390   36.7070 O.co2 602  HEM602      0.0000
     14  O2A       -5.0410   -5.4270   34.6810 O.co2 602  HEM602      0.0000
     15  C1B        2.9200   -8.1800   37.0480 C.ar  602  HEM602      0.0000
     16  C2B        3.7230   -8.8850   37.8410 C.ar  602  HEM602      0.0000
     17  C3B        5.0510   -8.2230   37.7680 C.ar  602  HEM602      0.0000
     18  C4B        4.8420   -7.0540   36.8510 C.ar  602  HEM602      0.0000
     19  CMB        3.5010  -10.3030   38.3400 C.3   602  HEM602      0.0000
     20  CAB        6.1880   -8.8040   38.0660 C.3   602  HEM602      0.0000
     21  CBB        6.7150   -8.5850   39.4510 C.3   602  HEM602      0.0000
     22  C1C        5.6000   -5.0660   35.5700 C.2   602  HEM602      0.0000
     23  C2C        6.5520   -4.3330   35.0020 C.2   602  HEM602      0.0000
     24  C3C        5.8260   -3.2860   34.2890 C.2   602  HEM602      0.0000
     25  C4C        4.5380   -3.4840   34.5070 C.2   602  HEM602      0.0000
     26  CMC        8.0590   -4.2980   35.2330 C.3   602  HEM602      0.0000
     27  CAC        6.4710   -2.3060   33.3790 C.2   602  HEM602      0.0000
     28  CBC        7.7710   -2.3740   33.2040 C.2   602  HEM602      0.0000
     29  C1D        2.1690   -2.9310   33.8850 C.ar  602  HEM602      0.0000
     30  C2D        1.1410   -1.8860   33.5200 C.ar  602  HEM602      0.0000
     31  C3D       -0.0260   -2.2730   34.0590 C.ar  602  HEM602      0.0000
     32  C4D        0.2540   -3.6220   34.6520 C.ar  602  HEM602      0.0000
     33  CMD        1.4840   -0.5090   32.9630 C.3   602  HEM602      0.0000
     34  CAD       -1.4090   -1.7910   33.6710 C.3   602  HEM602      0.0000
     35  CBD       -2.0730   -0.9660   34.7690 C.3   602  HEM602      0.0000
     36  CGD       -3.3110   -0.2450   34.2320 C.2   602  HEM602      0.0000
     37  O1D       -3.5080    0.9680   34.4650 O.co2 602  HEM602      0.0000
     38  O2D       -4.2090   -0.9300   33.4870 O.co2 602  HEM602      0.0000
     39  NA         0.8480   -6.4140   35.9110 N.2   602  HEM602      0.0000
     40  NB         3.5570   -7.1430   36.4420 N.ar  602  HEM602      0.0000
     41  NC         4.4090   -4.7120   35.0530 N.2   602  HEM602      0.0000
     42  ND         1.5870   -3.7590   34.7560 N.ar  602  HEM602      0.0000
     43 FE          2.5280   -5.3330   35.5920 Fe    602  HEM602      0.0000
@<TRIPOS>BOND
     1    33    30    1
     2    28    27    2
     3    27    24    1
     4    38    36   ar
     5    30    29   ar
     6    30    31   ar
     7    34    31    1
     8    34    35    1
     9     4    29    2
    10     4    25    1
    11    29    42   ar
    12    31    32   ar
    13    36    37   ar
    14    36    35    1
    15    24    25    1
    16    24    23    2
    17    25    41    2
    18    32    42   ar
    19    32     1    2
    20    14    12   ar
    21    42    43    1
    22     1     5    1
    23    23    26    1
    24    23    22    1
    25    41    22    1
    26    41    43    1
    27    10     6    1
    28    10    11    1
    29     5     6    1
    30     5    39    2
    31    22     3    2
    32    43    39    1
    33    43    40    1
    34     6     7    2
    35    39     8    1
    36    12    11    1
    37    12    13   ar
    38     7     8    1
    39     7     9    1
    40     8     2    2
    41    40    18   ar
    42    40    15   ar
    43     3    18    1
    44    18    17   ar
    45    15     2    1
    46    15    16   ar
    47    17    16   ar
    48    17    20    1
    49    16    19    1
    50    20    21    1
