@<TRIPOS>MOLECULE
4gpb_GFP_A_1.pdb
 16 16 0 0 0
SMALL
GASTEIGER

@<TRIPOS>ATOM
      1  C1        33.8660   23.0800   27.8590 C.3   900  GFP900      0.2804
      2  C2        34.2190   23.3930   26.3820 C.3   900  GFP900      0.2499
      3  C3        33.1130   22.7420   25.5740 C.3   900  GFP900      0.2220
      4  C4        32.7830   21.2830   25.9220 C.3   900  GFP900      0.2146
      5  C5        32.5390   21.1180   27.4340 C.3   900  GFP900      0.1835
      6  C6        32.2890   19.6800   27.8890 C.3   900  GFP900      0.2142
      7  O1        32.6860   23.7670   28.1900 O.3   900  GFP900     -0.2414
      8  O3        33.4640   22.6710   24.2080 O.3   900  GFP900     -0.2172
      9  O4        31.6360   20.8280   25.2000 O.3   900  GFP900     -0.2176
     10  O5        33.6860   21.6390   28.0770 O.3   900  GFP900     -0.3252
     11  O6        33.3090   18.8370   27.3830 O.3   900  GFP900     -0.2176
     12  F2        34.3820   24.7380   26.0880 F     900  GFP900     -0.2290
     13  P         32.4360   24.8060   29.3570 P.3   900  GFP900      0.5346
     14  O1P       33.6350   25.6920   29.3040 O.3   900  GFP900     -0.1145
     15  O2P       31.1190   25.4760   29.0420 O.2   900  GFP900     -0.2223
     16  O3P       32.3420   23.9620   30.5950 O.3   900  GFP900     -0.1145
@<TRIPOS>BOND
     1     8     3    1
     2     9     4    1
     3     3     4    1
     4     3     2    1
     5     4     5    1
     6    12     2    1
     7     2     1    1
     8    11     6    1
     9     5     6    1
    10     5    10    1
    11     1    10    1
    12     1     7    1
    13     7    13    1
    14    15    13    2
    15    14    13    1
    16    13    16    1
