@<TRIPOS>MOLECULE
4gpb_PLP_A_1.pdb
 15 15 0 0 0
SMALL
GASTEIGER

@<TRIPOS>ATOM
      1  N1        24.6550   25.6040   30.2620 N.ar  999  PLP999     -0.2452
      2  C2        23.5690   24.8080   30.4850 C.ar  999  PLP999      0.0978
      3  C2A       22.5260   25.2260   31.4550 C.3   999  PLP999      0.0555
      4  C3        23.4010   23.6510   29.8070 C.ar  999  PLP999      0.2049
      5  O3        22.1810   23.0200   29.8680 O.3   999  PLP999     -0.2857
      6  C4        24.3370   23.2730   28.8930 C.ar  999  PLP999      0.0182
      7  C4A       24.1000   22.0330   28.0360 C.3   999  PLP999      0.0342
      8  C5        25.4330   24.0840   28.6490 C.ar  999  PLP999      0.0261
      9  C6        25.5830   25.2400   29.3380 C.ar  999  PLP999      0.0965
     10  C5A       26.3800   23.8050   27.4660 C.3   999  PLP999      0.1815
     11  O4P       26.0980   24.6460   26.3240 O.3   999  PLP999     -0.2653
     12  P         27.0560   24.7820   25.0860 P.3   999  PLP999      0.5329
     13  O1P       27.6440   23.4780   24.7820 O.3   999  PLP999     -0.1145
     14  O2P       26.3250   25.5270   24.0390 O.2   999  PLP999     -0.2224
     15  O3P       28.2720   25.6500   25.6140 O.3   999  PLP999     -0.1145
@<TRIPOS>BOND
     1    14    12    2
     2    13    12    1
     3    12    15    1
     4    12    11    1
     5    11    10    1
     6    10     8    1
     7     7     6    1
     8     8     6   ar
     9     8     9   ar
    10     6     4   ar
    11     9     1   ar
    12     4     5    1
    13     4     2   ar
    14     1     2   ar
    15     2     3    1
