@<TRIPOS>MOLECULE
4gpj_0Q1_A_1.pdb
 23 26 0 0 0
SMALL
GASTEIGER

@<TRIPOS>ATOM
      1  CAU       32.9220   14.8880   -1.0770 C.3   201  0Q1201      0.0754
      2  CAT       32.5830   16.1240   -0.2780 C.ar  201  0Q1201      0.1544
      3  OAV       33.5890   16.9660    0.0910 O.2   201  0Q1201     -0.3581
      4  NAW       32.9790   18.0380    0.7860 N.ar  201  0Q1201     -0.0817
      5  CAB       31.6660   17.8070    0.8060 C.ar  201  0Q1201      0.1006
      6  CAA       30.7590   18.8380    1.5090 C.3   201  0Q1201      0.0556
      7  CAC       31.3610   16.6140    0.1370 C.ar  201  0Q1201      0.0496
      8  CAD       30.0990   16.0390   -0.1190 C.ar  201  0Q1201      0.0037
      9  CAR       29.7400   15.6080   -1.3700 C.ar  201  0Q1201     -0.0018
     10  CAQ       28.4470   15.0830   -1.5420 C.ar  201  0Q1201      0.0050
     11  CAE       29.1710   16.0120    0.9220 C.ar  201  0Q1201     -0.0002
     12  CAF       27.9020   15.4730    0.7700 C.ar  201  0Q1201     -0.0045
     13  CAG       27.5500   15.0100   -0.4810 C.ar  201  0Q1201     -0.0235
     14  CAH       26.2130   14.4090   -0.9050 C.3   201  0Q1201      0.0293
     15  CAI       26.4610   13.9200   -2.2620 C.3   201  0Q1201      0.0436
     16  CAJ       27.8070   14.5240   -2.7710 C.3   201  0Q1201      0.1640
     17  OAS       28.6250   13.5230   -3.3310 O.3   201  0Q1201     -0.2167
     18  CAK       27.7020   15.6030   -3.8520 C.ar  201  0Q1201      0.0089
     19  CAL       26.9400   16.7040   -3.5500 C.ar  201  0Q1201     -0.0016
     20  CAM       26.7330   17.7270   -4.4780 C.ar  201  0Q1201     -0.0002
     21  CAN       27.3270   17.6360   -5.7210 C.ar  201  0Q1201     -0.0000
     22  CAO       28.0870   16.5200   -6.0300 C.ar  201  0Q1201     -0.0002
     23  CAP       28.2710   15.4960   -5.0990 C.ar  201  0Q1201     -0.0016
@<TRIPOS>BOND
     1    22    21   ar
     2    22    23   ar
     3    21    20   ar
     4    23    18   ar
     5    20    19   ar
     6    18    19   ar
     7    18    16    1
     8    17    16    1
     9    16    15    1
    10    16    10    1
    11    15    14    1
    12    10     9   ar
    13    10    13   ar
    14     9     8   ar
    15     1     2    1
    16    14    13    1
    17    13    12   ar
    18     2     3   ar
    19     2     7   ar
    20     8     7    1
    21     8    11   ar
    22     3     4   ar
    23     7     5   ar
    24    12    11   ar
    25     4     5   ar
    26     5     6    1
