@<TRIPOS>MOLECULE
4gpn_6GB_A_1.pdb
 27 28 0 0 0
SMALL
GASTEIGER

@<TRIPOS>ATOM
      1  C1         0.3000    4.9290   27.7450 C.3   501  6GB501      0.2695
      2  C2        -1.0680    4.5280   27.2520 C.3   501  6GB501      0.2406
      3  C3        -1.0660    4.2940   25.8570 C.3   501  6GB501      0.2198
      4  C4        -0.5400    5.4210   25.1690 C.3   501  6GB501      0.2143
      5  C5         0.8820    5.7080   25.5960 C.3   501  6GB501      0.1807
      6  C6         1.0390    7.1660   25.9050 C.3   501  6GB501      0.1859
      7  O3P       -0.4090    9.4990   24.5390 O.3   501  6GB501     -0.1145
      8  P          0.7120    8.6950   23.8790 P.3   501  6GB501      0.5327
      9  O1P        1.5810    9.6280   23.0870 O.3   501  6GB501     -0.1145
     10  O2P        0.1370    7.6170   22.9640 O.2   501  6GB501     -0.2224
     11  O6         1.6230    8.0200   24.9670 O.3   501  6GB501     -0.2675
     12  O5         1.2660    4.9490   26.7200 O.3   501  6GB501     -0.3257
     13  O1         0.2690    6.1610   28.4090 O.3   501  6GB501     -0.3259
     14  O4        -0.5530    5.2530   23.7330 O.3   501  6GB501     -0.2176
     15  O3        -2.4240    3.9490   25.4180 O.3   501  6GB501     -0.2174
     16  O2        -1.4730    3.3530   27.9360 O.3   501  6GB501     -0.2149
     17  C1'       -1.3430   10.6120   28.5000 C.3   501  6GB501      0.3024
     18  O1'       -2.5030   11.3280   28.3740 O.3   501  6GB501     -0.1869
     19  C2'       -0.7030   10.8700   29.8810 C.3   501  6GB501      0.2434
     20  O2'       -0.2400   12.2430   29.9770 O.3   501  6GB501     -0.2148
     21  O5'       -1.6310    9.2470   28.2590 O.3   501  6GB501     -0.3237
     22  C5'       -0.5240    8.4360   28.5590 C.3   501  6GB501      0.1803
     23  C4'       -0.0440    8.6320   29.9590 C.3   501  6GB501      0.2143
     24  O4'        1.0410    7.7810   30.2160 O.3   501  6GB501     -0.2176
     25  C3'        0.3480   10.0210   30.1540 C.3   501  6GB501      0.2199
     26  O3'        0.8160   10.2090   31.5570 O.3   501  6GB501     -0.2174
     27  C6'       -0.8420    6.9850   28.3640 C.3   501  6GB501      0.1770
@<TRIPOS>BOND
     1    10     8    2
     2     9     8    1
     3    14     4    1
     4     8     7    1
     5     8    11    1
     6    11     6    1
     7     4     5    1
     8     4     3    1
     9    15     3    1
    10     5     6    1
    11     5    12    1
    12     3     2    1
    13    12     1    1
    14     2     1    1
    15     2    16    1
    16     1    13    1
    17    21    17    1
    18    21    22    1
    19    27    13    1
    20    27    22    1
    21    18    17    1
    22    17    19    1
    23    22    23    1
    24    19    20    1
    25    19    25    1
    26    23    25    1
    27    23    24    1
    28    25    26    1
