@<TRIPOS>MOLECULE
4gpt_GNP_A_1.pdb
 32 34 0 0 0
SMALL
GASTEIGER

@<TRIPOS>ATOM
      1  PG         6.5930   37.6590   27.8520 P.3   301  GNP301      0.4884
      2  O1G        6.7490   36.3960   27.0890 O.2   301  GNP301     -0.2331
      3  O2G        7.9040   38.5600   27.7820 O.3   301  GNP301     -0.1240
      4  O3G        6.1440   37.3270   29.3580 O.3   301  GNP301     -0.1240
      5  N3B        5.2870   38.5050   27.0840 N.3   301  GNP301     -0.0163
      6  PB         4.7650   40.0450   27.6250 P.3   301  GNP301      0.4669
      7  O1B        5.9480   40.8960   27.8520 O.2   301  GNP301     -0.2351
      8  O2B        3.8260   39.8810   28.9100 O.3   301  GNP301     -0.1253
      9  O3A        3.8460   40.6550   26.4550 O.3   301  GNP301     -0.2360
     10  PA         4.4150   41.6730   25.3520 P.3   301  GNP301      0.2220
     11  O1A        5.5730   41.0240   24.6600 O.2   301  GNP301     -0.5170
     12  O2A        4.6400   43.0160   25.9770 O.3   301  GNP301     -0.4370
     13  O5'        3.1240   41.8370   24.3880 O.3   301  GNP301     -0.3111
     14  C5'        2.5240   40.7290   23.7280 C.3   301  GNP301      0.1813
     15  C4'        1.6270   41.1940   22.5900 C.3   301  GNP301      0.1799
     16  O4'        0.4800   41.8510   23.1260 O.3   301  GNP301     -0.3326
     17  C3'        2.2950   42.2050   21.6570 C.3   301  GNP301      0.2158
     18  O3'        1.9340   41.9290   20.2970 O.3   301  GNP301     -0.2175
     19  C2'        1.7220   43.5470   22.0560 C.3   301  GNP301      0.2310
     20  O2'        1.7190   44.4890   20.9600 O.3   301  GNP301     -0.2158
     21  C1'        0.3250   43.1340   22.5210 C.3   301  GNP301      0.2293
     22  N9        -0.2380   44.0800   23.4880 N.pl3 301  GNP301     -0.2354
     23  C8         0.3600   44.5290   24.6260 C.3   301  GNP301      0.2246
     24  N7        -0.4340   45.4070   25.2950 N.2   301  GNP301     -0.2322
     25  C5        -1.5660   45.5100   24.5800 C.2   301  GNP301      0.2182
     26  C6        -2.8280   46.2510   24.7070 C.1   301  GNP301      0.2372
     27  O6        -3.0460   47.0160   25.6670 O.2   301  GNP301     -0.2069
     28  N1        -3.7460   46.0870   23.7500 N.2   301  GNP301     -0.2485
     29  C2        -3.5570   45.2700   22.6980 C.1   301  GNP301      0.2531
     30  N2        -4.5490   45.1640   21.7970 N.pl3 301  GNP301     -0.0226
     31  N3        -2.4330   44.5440   22.4950 N.2   301  GNP301     -0.3074
     32  C4        -1.4230   44.6400   23.3880 C.2   301  GNP301      0.2300
@<TRIPOS>BOND
     1    18    17    1
     2    20    19    1
     3    17    19    1
     4    17    15    1
     5    30    29    1
     6    19    21    1
     7    31    29    2
     8    31    32    2
     9    21    16    1
    10    21    22    1
    11    15    16    1
    12    15    14    1
    13    29    28    2
    14    32    22    1
    15    32    25    1
    16    22    23    1
    17    14    13    1
    18    28    26    2
    19    13    10    1
    20    25    26    1
    21    25    24    2
    22    23    24    1
    23    11    10    2
    24    26    27    2
    25    10    12    1
    26    10     9    1
    27     9     6    1
    28     5     6    1
    29     5     1    1
    30     2     1    2
    31     6     7    2
    32     6     8    1
    33     3     1    1
    34     1     4    1
