@<TRIPOS>MOLECULE
4gpt_51K_C_1.pdb
 26 28 0 0 0
SMALL
GASTEIGER

@<TRIPOS>ATOM
      1  F26      -31.9550   68.2010   26.8720 F     1101  51K1101    -0.1659
      2  C23      -33.1920   68.4090   26.4640 C.3   1101  51K1101     0.4186
      3  F24      -34.0640   67.5150   26.9080 F     1101  51K1101    -0.1659
      4  F25      -33.1910   68.3700   25.1550 F     1101  51K1101    -0.1659
      5  C17      -33.6590   69.7570   26.8720 C.ar  1101  51K1101     0.0720
      6  C16      -35.0060   69.9900   26.7650 C.ar  1101  51K1101     0.0077
      7  C18      -32.7940   70.7530   27.3190 C.ar  1101  51K1101     0.0139
      8  C13      -33.3090   71.9930   27.6560 C.ar  1101  51K1101     0.0635
      9  C14      -34.6670   72.2350   27.5450 C.ar  1101  51K1101     0.0139
     10  C15      -35.5030   71.2280   27.0880 C.ar  1101  51K1101     0.0720
     11  C19      -36.9640   71.4490   26.9630 C.3   1101  51K1101     0.4186
     12  F22      -37.5580   70.8900   28.0000 F     1101  51K1101    -0.1659
     13  F20      -37.2000   72.7510   26.8690 F     1101  51K1101    -0.1659
     14  F21      -37.4170   70.8190   25.9080 F     1101  51K1101    -0.1659
     15  C10      -32.4420   73.0770   28.1560 C.1   1101  51K1101     0.0494
     16  N9       -31.2250   72.9010   28.6890 N.2   1101  51K1101    -0.1264
     17  N8       -30.8130   74.1790   29.0180 N.pl3 1101  51K1101    -0.1997
     18  C12      -31.7420   75.0750   28.6950 C.3   1101  51K1101     0.2478
     19  N11      -32.7610   74.3920   28.1490 N.2   1101  51K1101    -0.1947
     20  C7       -29.4870   74.2680   29.6480 C.3   1101  51K1101     0.1237
     21  C6       -28.4080   73.6130   28.7970 C.3   1101  51K1101     0.1101
     22  C5       -28.0900   74.4910   27.6170 C.ar  1101  51K1101     0.2284
     23  N4       -26.9740   74.4270   26.8570 N.ar  1101  51K1101    -0.1112
     24  N3       -27.0620   75.4150   25.8610 N.ar  1101  51K1101    -0.1023
     25  C2       -28.2400   76.0570   26.0560 C.ar  1101  51K1101     0.3057
     26  O1       -28.8910   75.4880   27.1420 O.2   1101  51K1101    -0.4160
@<TRIPOS>BOND
     1     4     2    1
     2    24    25   ar
     3    24    23   ar
     4    14    11    1
     5    25    26   ar
     6     2     1    1
     7     2     5    1
     8     2     3    1
     9     6     5   ar
    10     6    10   ar
    11    23    22   ar
    12    13    11    1
    13     5     7   ar
    14    11    10    1
    15    11    12    1
    16    10     9   ar
    17    26    22   ar
    18     7     8   ar
    19     9     8   ar
    20    22    21    1
    21     8    15    1
    22    19    15    2
    23    19    18    1
    24    15    16    2
    25    16    17    1
    26    18    17    1
    27    21    20    1
    28    17    20    1
