@<TRIPOS>MOLECULE
4gq3_0RO_A_1.pdb
 25 28 0 0 0
SMALL
GASTEIGER

@<TRIPOS>ATOM
      1  CAB      -15.2880   17.2990   14.0380 C.3   601  0RO601      0.0133
      2  CAY      -14.2530   17.0130   12.9480 C.3   601  0RO601      0.0684
      3  CAC      -13.2740   18.1640   12.8140 C.3   601  0RO601      0.0133
      4  SAP      -13.4400   15.5070   13.4100 S.3   601  0RO601     -0.0801
      5  CAL      -14.9540   16.6980   11.6220 C.3   601  0RO601      0.1376
      6  NAM      -14.2880   15.4890   10.9870 N.2   601  0RO601     -0.2500
      7  CAR      -13.4980   14.8360   11.8620 C.2   601  0RO601      0.1546
      8  NAW      -12.7890   13.7530   11.5650 N.pl3 601  0RO601     -0.2805
      9  CAI      -12.9480   13.0760   10.2150 C.3   601  0RO601      0.1436
     10  CAK      -13.1620   11.5710   10.4820 C.3   601  0RO601      0.2236
     11  CAH      -11.9740   13.1510   12.6140 C.3   601  0RO601      0.1436
     12  CAJ      -11.1170   12.0070   12.0190 C.3   601  0RO601      0.2236
     13  NAX      -12.0090   11.0470   11.3130 N.pl3 601  0RO601     -0.1905
     14  C6       -11.9420    9.7020   11.5790 C.2   601  0RO601      0.3069
     15  N1       -13.1070    9.0910   11.2610 N.2   601  0RO601     -0.0403
     16  C2       -13.2520    7.7120   11.5250 C.3   601  0RO601      0.3916
     17  N3       -12.1920    6.9850   12.0310 N.2   601  0RO601     -0.2156
     18  C4       -11.0200    7.5900   12.2810 C.2   601  0RO601      0.1025
     19  SAQ       -9.6970    6.8680   12.9020 S.3   601  0RO601     -0.0764
     20  C5       -10.8580    8.9760   12.0930 C.3   601  0RO601      0.1732
     21  CAE       -9.5790    9.3540   12.4250 C.2   601  0RO601     -0.0057
     22  CAS       -8.8030    8.3390   12.8840 C.2   601  0RO601      0.0051
     23  CAG       -7.3230    8.3670   13.3530 C.3   601  0RO601      0.0327
     24  CAF       -6.4350    7.8480   12.1870 C.3   601  0RO601      0.0052
     25  CAA       -6.3710    8.8190   11.0140 C.3   601  0RO601      0.0004
@<TRIPOS>BOND
     1     9    10    1
     2     9     8    1
     3    10    13    1
     4     6     5    1
     5     6     7    2
     6    25    24    1
     7    15    16    1
     8    15    14    2
     9    13    14    1
    10    13    12    1
    11    16    17    1
    12     8     7    1
    13     8    11    1
    14    14    20    1
    15     5     2    1
    16     7     4    1
    17    12    11    1
    18    17    18    2
    19    20    18    1
    20    20    21    1
    21    24    23    1
    22    18    19    1
    23    21    22    2
    24     3     2    1
    25    22    19    1
    26    22    23    1
    27     2     4    1
    28     2     1    1
