@<TRIPOS>MOLECULE
4gq4_0RT_A_1.pdb
 27 30 0 0 0
SMALL
GASTEIGER

@<TRIPOS>ATOM
      1  FAC       -6.7250    6.4740   11.9360 F     601  0RT601     -0.1696
      2  CAZ       -6.3090    7.8100   12.1970 C.3   601  0RT601      0.4022
      3  FAD       -6.6780    8.2860   10.9120 F     601  0RT601     -0.1696
      4  FAE       -5.1690    7.8840   12.3710 F     601  0RT601     -0.1696
      5  CAM       -7.3680    8.3500   13.1430 C.3   601  0RT601      0.1359
      6  CAT       -8.7670    8.2900   12.8530 C.2   601  0RT601      0.0136
      7  SAR       -9.6990    6.8110   12.9990 S.3   601  0RT601     -0.0761
      8  CAG       -9.6040    9.2380   12.3110 C.2   601  0RT601     -0.0054
      9  C5       -10.9070    8.9110   12.0560 C.3   601  0RT601      0.1732
     10  C4       -11.0540    7.5130   12.3840 C.2   601  0RT601      0.1025
     11  N3       -12.2200    6.9060   12.1920 N.2   601  0RT601     -0.2156
     12  C2       -13.2060    7.5450   11.6540 C.3   601  0RT601      0.3916
     13  N1       -13.1800    8.8850   11.3140 N.2   601  0RT601     -0.0403
     14  C6       -12.0660    9.5380   11.5870 C.2   601  0RT601      0.3069
     15  NAY      -12.0760   10.9060   11.2930 N.pl3 601  0RT601     -0.1905
     16  CAK      -11.2120   11.8840   11.9440 C.3   601  0RT601      0.2236
     17  CAI      -12.0880   12.9190   12.6080 C.3   601  0RT601      0.1436
     18  CAJ      -13.2880   11.4210   10.6250 C.3   601  0RT601      0.2236
     19  CAH      -13.1780   12.8960   10.2840 C.3   601  0RT601      0.1436
     20  NAX      -12.9050   13.6350   11.6360 N.pl3 601  0RT601     -0.2805
     21  CAS      -13.6200   14.7320   11.9520 C.2   601  0RT601      0.1546
     22  SAQ      -13.5210   15.3680   13.5070 S.3   601  0RT601     -0.0801
     23  CBA      -14.3170   16.8820   13.0350 C.3   601  0RT601      0.0684
     24  CAA      -15.4050   17.1500   14.0430 C.3   601  0RT601      0.0133
     25  CAB      -13.2810   17.9190   12.8620 C.3   601  0RT601      0.0133
     26  CAL      -15.0390   16.5660   11.7470 C.3   601  0RT601      0.1376
     27  NAN      -14.3650   15.4460   11.1260 N.2   601  0RT601     -0.2500
@<TRIPOS>BOND
     1    19    18    1
     2    19    20    1
     3    18    15    1
     4     3     2    1
     5    27    26    1
     6    27    21    2
     7    15    14    1
     8    15    16    1
     9    13    14    2
    10    13    12    1
    11    14     9    1
    12    20    21    1
    13    20    17    1
    14    12    11    1
    15    26    23    1
    16     1     2    1
    17    16    17    1
    18    21    22    1
    19     9     8    1
    20     9    10    1
    21    11    10    2
    22     2     4    1
    23     2     5    1
    24     8     6    2
    25    10     7    1
    26     6     7    1
    27     6     5    1
    28    25    23    1
    29    23    22    1
    30    23    24    1
