@<TRIPOS>MOLECULE
4gq7_NAG_A_1.pdb
 14 14 0 0 0
SMALL
GASTEIGER

@<TRIPOS>ATOM
      1  C1       -13.7010   -6.4020   -1.1270 C.3   302  NAG302      0.1665
      2  C2       -14.9590   -6.6740   -0.3080 C.3   302  NAG302      0.1576
      3  C3       -16.0530   -7.3610   -1.1180 C.3   302  NAG302      0.2069
      4  C4       -16.2930   -6.5930   -2.4090 C.3   302  NAG302      0.2134
      5  C5       -14.9770   -6.4290   -3.1700 C.3   302  NAG302      0.1809
      6  C6       -15.1620   -5.6540   -4.4780 C.3   302  NAG302      0.2141
      7  C7       -14.7740   -7.0950    2.0970 C.2   302  NAG302      0.2420
      8  C8       -14.4620   -8.1010    3.1610 C.3   302  NAG302      0.0964
      9  N2       -14.6700   -7.5120    0.8410 N.am  302  NAG302     -0.2019
     10  O3       -17.2390   -7.4160   -0.3470 O.3   302  NAG302     -0.2184
     11  O4       -17.2180   -7.3050   -3.1980 O.3   302  NAG302     -0.2176
     12  O5       -14.0190   -5.7730   -2.3620 O.3   302  NAG302     -0.3489
     13  O6       -15.9270   -4.4840   -4.2660 O.3   302  NAG302     -0.2176
     14  O7       -15.1120   -5.9560    2.4080 O.2   302  NAG302     -0.2733
@<TRIPOS>BOND
     1     6    13    1
     2     6     5    1
     3    11     4    1
     4     5     4    1
     5     5    12    1
     6     4     3    1
     7    12     1    1
     8     1     2    1
     9     3    10    1
    10     3     2    1
    11     2     9    1
    12     9     7   am
    13     7    14    2
    14     7     8    1
