@<TRIPOS>MOLECULE
4gqb_0XU_A_1.pdb
 27 29 0 0 0
SMALL
GASTEIGER

@<TRIPOS>ATOM
      1  N        -27.8500  -36.5070   -6.9100 N.3   701  0XU701     -0.1208
      2  CA       -27.4800  -37.8070   -6.3360 C.3   701  0XU701      0.1944
      3  C        -26.3460  -38.4330   -7.1260 C.2   701  0XU701      0.3819
      4  O        -26.5040  -38.2380   -8.4720 O.co2 701  0XU701     -0.2441
      5  OXT      -25.4020  -39.0470   -6.6310 O.co2 701  0XU701     -0.2441
      6  CB       -28.6510  -38.7670   -6.0710 C.3   701  0XU701      0.0324
      7  CG       -29.5600  -39.1140   -7.2520 C.3   701  0XU701      0.0257
      8  CD       -30.9230  -39.6130   -6.7390 C.3   701  0XU701      0.1165
      9  NE       -31.7780  -40.2730   -7.7550 N.3   701  0XU701     -0.1280
     10  C5'      -31.6580  -38.4510   -6.1400 C.2   701  0XU701      0.0277
     11  C4'      -32.2090  -38.3120   -4.9340 C.2   701  0XU701      0.1505
     12  O4'      -32.9300  -37.1690   -4.6800 O.2   701  0XU701     -0.4414
     13  C3'      -32.1530  -39.2290   -3.7530 C.3   701  0XU701      0.2459
     14  O3'      -31.1190  -38.7660   -2.9000 O.3   701  0XU701     -0.2119
     15  C2'      -33.5040  -38.9170   -3.1230 C.3   701  0XU701      0.2756
     16  O2'      -33.5150  -38.9510   -1.7030 O.3   701  0XU701     -0.2112
     17  C1'      -33.7430  -37.4770   -3.5490 C.3   701  0XU701      0.3698
     18  N9       -35.1330  -37.1530   -3.8210 N.pl3 701  0XU701     -0.1327
     19  C8       -36.1020  -37.9080   -4.4340 C.3   701  0XU701      0.3386
     20  N7       -37.3010  -37.3180   -4.3830 N.2   701  0XU701     -0.2095
     21  C5       -37.0810  -36.1290   -3.6910 C.2   701  0XU701      0.2526
     22  C6       -37.8800  -35.0410   -3.3540 C.2   701  0XU701      0.4393
     23  N6       -39.2720  -34.9700   -3.6660 N.pl3 701  0XU701      0.2180
     24  N1       -37.3140  -34.0270   -2.6620 N.2   701  0XU701      0.0021
     25  C2       -35.9890  -34.0550   -2.3700 C.3   701  0XU701      0.5254
     26  N3       -35.1100  -35.0360   -2.6600 N.2   701  0XU701     -0.0054
     27  C4       -35.7300  -36.0270   -3.3370 C.2   701  0XU701      0.3527
@<TRIPOS>BOND
     1     4     3   ar
     2     9     8    1
     3     7     8    1
     4     7     6    1
     5     3     5   ar
     6     3     2    1
     7     1     2    1
     8     8    10    1
     9     2     6    1
    10    10    11    2
    11    11    12    1
    12    11    13    1
    13    12    17    1
    14    19    20    1
    15    19    18    1
    16    20    21    2
    17    18    17    1
    18    18    27    1
    19    13    15    1
    20    13    14    1
    21    21    22    1
    22    21    27    1
    23    23    22    1
    24    17    15    1
    25    22    24    2
    26    27    26    2
    27    15    16    1
    28    24    25    1
    29    26    25    1
