@<TRIPOS>MOLECULE
4gqq_0XR_A_1.pdb
 15 15 0 0 0
SMALL
GASTEIGER

@<TRIPOS>ATOM
      1  C5'        9.8770  -20.8740  121.0190 C.3   502  0XR502      0.0513
      2  C4'        9.1890  -19.5740  120.5900 C.3   502  0XR502      0.2086
      3  O2'        8.9770  -19.6330  119.1750 O.3   502  0XR502     -0.4485
      4  C3'        8.1490  -18.6400  118.7540 C.2   502  0XR502      0.3173
      5  O1'        7.6920  -17.8230  119.5530 O.2   502  0XR502     -0.2501
      6  C2'        7.7870  -18.5770  117.2690 C.3   502  0XR502      0.1142
      7  C1'        7.1010  -17.2520  116.9400 C.3   502  0XR502      0.0381
      8  C1         6.6500  -17.1900  115.4820 C.ar  502  0XR502     -0.0182
      9  C2         6.8780  -18.2440  114.6040 C.ar  502  0XR502      0.0411
     10  C6         5.9350  -16.0760  115.0580 C.ar  502  0XR502     -0.0008
     11  C5         5.4390  -16.0160  113.7590 C.ar  502  0XR502      0.0451
     12  C4         5.6610  -17.0740  112.8840 C.ar  502  0XR502      0.2342
     13  O4         5.1780  -17.0180  111.6150 O.3   502  0XR502     -0.2831
     14  C3         6.3800  -18.1870  113.3050 C.ar  502  0XR502      0.2339
     15  O3         6.5700  -19.2190  112.4400 O.3   502  0XR502     -0.2832
@<TRIPOS>BOND
     1    13    12    1
     2    15    14    1
     3    12    14   ar
     4    12    11   ar
     5    14     9   ar
     6    11    10   ar
     7     9     8   ar
     8    10     8   ar
     9     8     7    1
    10     7     6    1
    11     6     4    1
    12     4     3    1
    13     4     5    2
    14     3     2    1
    15     2     1    1
