@<TRIPOS>MOLECULE
4gqr_MYC_A_1.pdb
 23 25 0 0 0
SMALL
GASTEIGER

@<TRIPOS>ATOM
      1  C1        14.2640   13.8960   35.1200 C.ar  504  MYC504      0.0843
      2  C2        15.1520   14.3270   36.0970 C.ar  504  MYC504      0.2046
      3  C3        14.6650   14.9030   37.2670 C.ar  504  MYC504      0.1103
      4  C4        13.3060   15.0600   37.4600 C.ar  504  MYC504      0.1481
      5  C5        12.4130   14.6220   36.4780 C.ar  504  MYC504      0.0792
      6  C6        12.8910   14.0440   35.3170 C.ar  504  MYC504      0.2020
      7  C9        15.5370   15.2540   38.2980 C.2   504  MYC504      0.2132
      8  C10       14.9800   15.5290   39.5470 C.3   504  MYC504      0.2568
      9  C11       13.6000   15.5780   39.6650 C.3   504  MYC504      0.2260
     10  C14       12.9770   15.5700   40.9150 C.ar  504  MYC504      0.0268
     11  C15       13.7160   15.4030   42.0780 C.ar  504  MYC504      0.0449
     12  C16       13.0720   15.4200   43.3130 C.ar  504  MYC504      0.2373
     13  C17       11.7040   15.6020   43.3790 C.ar  504  MYC504      0.2727
     14  C18       10.9640   15.7630   42.2200 C.ar  504  MYC504      0.2373
     15  C19       11.6020   15.7480   40.9830 C.ar  504  MYC504      0.0449
     16  O12       12.8130   15.6930   38.5620 O.3   504  MYC504     -0.4713
     17  O13       16.7430   15.3300   38.1170 O.2   504  MYC504     -0.2883
     18  O23        9.6120   15.9310   42.2840 O.3   504  MYC504     -0.2830
     19  O24       11.0770   15.6400   44.5940 O.3   504  MYC504     -0.2797
     20  O25       13.8030   15.2570   44.4540 O.3   504  MYC504     -0.2830
     21  O27       15.7950   15.7350   40.6150 O.3   504  MYC504     -0.2104
     22  O29       12.0170   13.6150   34.3650 O.3   504  MYC504     -0.2864
     23  O30       16.4900   14.1920   35.9030 O.3   504  MYC504     -0.2863
@<TRIPOS>BOND
     1    22     6    1
     2     1     6   ar
     3     1     2   ar
     4     6     5   ar
     5    23     2    1
     6     2     3   ar
     7     5     4   ar
     8     3     4   ar
     9     3     7    1
    10     4    16    1
    11    17     7    2
    12     7     8    1
    13    16     9    1
    14     8     9    1
    15     8    21    1
    16     9    10    1
    17    10    15   ar
    18    10    11   ar
    19    15    14   ar
    20    11    12   ar
    21    14    18    1
    22    14    13   ar
    23    12    13   ar
    24    12    20    1
    25    13    19    1
