@<TRIPOS>MOLECULE
4gqs_0XV_A_1.pdb
 21 23 0 0 0
SMALL
GASTEIGER

@<TRIPOS>ATOM
      1  CAV      -79.2720   19.3530  -41.2090 C.3   502  0XV502      0.0726
      2  CAI      -78.7470   20.4510  -42.1300 C.ar  502  0XV502      0.1263
      3  OAH      -77.4600   20.9030  -42.0410 O.2   502  0XV502     -0.4576
      4  CAB      -77.2650   21.8730  -42.9780 C.ar  502  0XV502      0.1449
      5  CAC      -76.1250   22.6550  -43.3020 C.ar  502  0XV502      0.0375
      6  CAD      -76.1970   23.6100  -44.3430 C.ar  502  0XV502      0.0031
      7  CAE      -77.4060   23.7850  -45.0600 C.ar  502  0XV502      0.0002
      8  CAF      -78.5470   23.0090  -44.7420 C.ar  502  0XV502      0.0032
      9  CAA      -78.4720   22.0490  -43.6940 C.ar  502  0XV502      0.0403
     10  CAG      -79.3970   21.1510  -43.1520 C.ar  502  0XV502      0.0722
     11  CAJ      -80.8670   20.9810  -43.6200 C.2   502  0XV502      0.1982
     12  OAK      -81.2010   19.9010  -44.1090 O.2   502  0XV502     -0.2865
     13  CAL      -81.9400   22.1070  -43.4920 C.ar  502  0XV502      0.0386
     14  CAM      -83.2640   21.8660  -43.9550 C.ar  502  0XV502      0.0021
     15  CAN      -84.2530   22.8780  -43.8510 C.ar  502  0XV502      0.0168
     16  CAO      -85.6720   22.5900  -44.3590 C.3   502  0XV502      0.0344
     17  CAP      -83.9390   24.1470  -43.2830 C.ar  502  0XV502      0.1877
     18  OAW      -84.9000   25.1140  -43.1890 O.3   502  0XV502     -0.2872
     19  CAQ      -82.6160   24.3860  -42.8210 C.ar  502  0XV502      0.0168
     20  CAT      -82.2450   25.7400  -42.2050 C.3   502  0XV502      0.0344
     21  CAU      -81.6270   23.3780  -42.9230 C.ar  502  0XV502      0.0021
@<TRIPOS>BOND
     1     7     8   ar
     2     7     6   ar
     3     8     9   ar
     4    16    15    1
     5     6     5   ar
     6    12    11    2
     7    14    15   ar
     8    14    13   ar
     9    15    17   ar
    10     9    10   ar
    11     9     4   ar
    12    11    13    1
    13    11    10    1
    14    13    21   ar
    15     5     4   ar
    16    17    18    1
    17    17    19   ar
    18    10     2   ar
    19     4     3   ar
    20    21    19   ar
    21    19    20    1
    22     2     3   ar
    23     2     1    1
