@<TRIPOS>MOLECULE
4gqs_HEM_A_1.pdb
 43 50 0 0 0
SMALL
GASTEIGER

@<TRIPOS>ATOM
      1  CHA      -81.4570   15.8120  -42.0760 C.2   501  HEM501      0.0000
      2  CHB      -76.7580   15.5030  -42.8040 C.2   501  HEM501      0.0000
      3  CHC      -77.5240   15.5960  -47.4670 C.2   501  HEM501      0.0000
      4  CHD      -82.1780   15.3320  -46.6940 C.2   501  HEM501      0.0000
      5  C1A      -80.1060   15.6210  -41.7730 C.2   501  HEM501      0.0000
      6  C2A      -79.5140   15.6550  -40.4990 C.2   501  HEM501      0.0000
      7  C3A      -78.1490   15.5530  -40.7270 C.2   501  HEM501      0.0000
      8  C4A      -77.9870   15.4630  -42.1200 C.2   501  HEM501      0.0000
      9  CMA      -76.9830   15.5380  -39.6660 C.3   501  HEM501      0.0000
     10  CAA      -80.2790   15.7830  -39.1590 C.3   501  HEM501      0.0000
     11  CBA      -80.7030   14.5030  -38.4950 C.3   501  HEM501      0.0000
     12  CGA      -81.4450   14.6890  -37.1760 C.2   501  HEM501      0.0000
     13  O1A      -81.1140   14.0320  -36.1950 O.co2 501  HEM501      0.0000
     14  O2A      -82.3710   15.4790  -37.0710 O.co2 501  HEM501      0.0000
     15  C1B      -76.4570   15.5870  -44.1620 C.ar  501  HEM501      0.0000
     16  C2B      -75.1690   15.7370  -44.7420 C.ar  501  HEM501      0.0000
     17  C3B      -75.4110   15.7910  -46.1410 C.ar  501  HEM501      0.0000
     18  C4B      -76.8220   15.6680  -46.2710 C.ar  501  HEM501      0.0000
     19  CMB      -73.8660   15.8140  -43.9720 C.3   501  HEM501      0.0000
     20  CAB      -74.4900   15.9360  -47.2170 C.3   501  HEM501      0.0000
     21  CBB      -73.1550   15.3260  -47.4340 C.3   501  HEM501      0.0000
     22  C1C      -78.8680   15.3950  -47.7340 C.2   501  HEM501      0.0000
     23  C2C      -79.4170   15.2970  -48.9960 C.2   501  HEM501      0.0000
     24  C3C      -80.8140   15.3580  -48.8210 C.2   501  HEM501      0.0000
     25  C4C      -80.9970   15.4910  -47.4200 C.2   501  HEM501      0.0000
     26  CMC      -78.6290   15.1480  -50.3400 C.3   501  HEM501      0.0000
     27  CAC      -81.8530   15.3110  -49.7140 C.3   501  HEM501      0.0000
     28  CBC      -82.4570   14.1910  -50.3440 C.3   501  HEM501      0.0000
     29  C1D      -82.4190   15.4570  -45.3680 C.ar  501  HEM501      0.0000
     30  C2D      -83.6920   15.4820  -44.7800 C.ar  501  HEM501      0.0000
     31  C3D      -83.5160   15.5810  -43.4270 C.ar  501  HEM501      0.0000
     32  C4D      -82.1160   15.6110  -43.2680 C.ar  501  HEM501      0.0000
     33  CMD      -85.0520   15.4120  -45.5060 C.3   501  HEM501      0.0000
     34  CAD      -84.6140   15.6450  -42.3020 C.3   501  HEM501      0.0000
     35  CBD      -85.0040   14.2200  -41.7760 C.3   501  HEM501      0.0000
     36  CGD      -86.0750   14.1000  -40.6590 C.2   501  HEM501      0.0000
     37  O1D      -86.8740   13.1900  -40.6580 O.co2 501  HEM501      0.0000
     38  O2D      -86.1090   14.9450  -39.7550 O.co2 501  HEM501      0.0000
     39  NA       -79.1440   15.5020  -42.7390 N.2   501  HEM501      0.0000
     40  NB       -77.4010   15.5510  -45.0960 N.ar  501  HEM501      0.0000
     41  NC       -79.7960   15.5090  -46.8050 N.2   501  HEM501      0.0000
     42  ND       -81.5080   15.5340  -44.4520 N.ar  501  HEM501      0.0000
     43 FE        -79.4630   15.4770  -44.7830 Fe    501  HEM501      0.0000
@<TRIPOS>BOND
     1    28    27    1
     2    26    23    1
     3    27    24    1
     4    23    24    2
     5    23    22    1
     6    24    25    1
     7    22     3    2
     8    22    41    1
     9     3    18    1
    10    21    20    1
    11    25    41    2
    12    25     4    1
    13    20    17    1
    14    41    43    1
    15     4    29    2
    16    18    17   ar
    17    18    40   ar
    18    17    16   ar
    19    33    30    1
    20    29    30   ar
    21    29    42   ar
    22    40    43    1
    23    40    15   ar
    24    43    42    1
    25    43    39    1
    26    30    31   ar
    27    16    15   ar
    28    16    19    1
    29    42    32   ar
    30    15     2    1
    31    31    32   ar
    32    31    34    1
    33    32     1    2
    34     2     8    2
    35    39     8    1
    36    39     5    2
    37    34    35    1
    38     8     7    1
    39     1     5    1
    40    35    36    1
    41     5     6    1
    42     7     6    2
    43     7     9    1
    44    36    37   ar
    45    36    38   ar
    46     6    10    1
    47    10    11    1
    48    11    12    1
    49    12    14   ar
    50    12    13   ar
