@<TRIPOS>MOLECULE
4gqt_ADP_A_1.pdb
 27 29 0 0 0
SMALL
GASTEIGER

@<TRIPOS>ATOM
      1  PB        18.6770   18.7390    5.1030 P.3   500  ADP500      0.5373
      2  O1B       19.9190   18.4940    5.9170 O.3   500  ADP500     -0.1143
      3  O2B       18.4460   20.2240    4.8920 O.3   500  ADP500     -0.1143
      4  O3B       18.5170   17.8790    3.8800 O.2   500  ADP500     -0.2221
      5  PA        17.3760   17.6450    7.3860 P.3   500  ADP500      0.2231
      6  O1A       18.6330   16.8090    7.6390 O.3   500  ADP500     -0.4370
      7  O2A       15.9720   17.1660    7.6140 O.2   500  ADP500     -0.5169
      8  O3A       17.4230   18.1890    5.8900 O.3   500  ADP500     -0.2261
      9  O5'       17.4250   18.9740    8.2470 O.3   500  ADP500     -0.3111
     10  C5'       16.4860   20.0480    8.1050 C.3   500  ADP500      0.1813
     11  C4'       17.0340   21.4140    8.4540 C.3   500  ADP500      0.1821
     12  O4'       17.1230   21.5380    9.8750 O.3   500  ADP500     -0.3135
     13  C3'       18.4690   21.6650    8.0100 C.3   500  ADP500      0.2184
     14  O3'       18.5100   22.0790    6.6320 O.3   500  ADP500     -0.2174
     15  C2'       18.9530   22.7280    8.9560 C.3   500  ADP500      0.2570
     16  O2'       18.4850   24.0420    8.6200 O.3   500  ADP500     -0.2130
     17  C1'       18.2040   22.3870   10.2260 C.3   500  ADP500      0.3186
     18  N9        19.1610   21.6340   11.0580 N.pl3 500  ADP500     -0.1439
     19  C8        19.1710   20.2990   11.2630 C.3   500  ADP500      0.3377
     20  N7        20.1690   19.9540   12.0950 N.2   500  ADP500     -0.2095
     21  C5        20.8200   21.0840   12.4260 C.2   500  ADP500      0.2526
     22  C6        21.9900   21.3960   13.2530 C.2   500  ADP500      0.4393
     23  N6        22.6090   20.3470   13.8180 N.pl3 500  ADP500      0.2180
     24  N1        22.3860   22.6920   13.3880 N.2   500  ADP500      0.0021
     25  C2        21.7520   23.6770   12.7250 C.3   500  ADP500      0.5254
     26  N3        20.6590   23.4640   11.9180 N.2   500  ADP500     -0.0055
     27  C4        20.1920   22.1910   11.7080 C.2   500  ADP500      0.3518
@<TRIPOS>BOND
     1     4     1    2
     2     3     1    1
     3     1     8    1
     4     1     2    1
     5     8     5    1
     6    14    13    1
     7     5     7    2
     8     5     6    1
     9     5     9    1
    10    13    11    1
    11    13    15    1
    12    10     9    1
    13    10    11    1
    14    11    12    1
    15    16    15    1
    16    15    17    1
    17    12    17    1
    18    17    18    1
    19    18    19    1
    20    18    27    1
    21    19    20    1
    22    27    26    2
    23    27    21    1
    24    26    25    1
    25    20    21    2
    26    21    22    1
    27    25    24    1
    28    22    24    2
    29    22    23    1
