@<TRIPOS>MOLECULE
4gr0_R4B_A_1.pdb
 44 47 0 0 0
SMALL
GASTEIGER

@<TRIPOS>ATOM
      1  O4        -9.6010   26.0450   -4.7330 O.2   306  R4B306     -0.2733
      2  N1        -6.1200   22.2700   -5.8680 N.ar  306  R4B306     -0.0774
      3  O1        -7.2270   22.5580   -5.1980 O.2   306  R4B306     -0.3578
      4  C25       -8.6420   26.3650   -4.0050 C.2   306  R4B306      0.2423
      5  C17       -8.1980   25.4570   -2.9020 C.3   306  R4B306      0.0959
      6  C16       -8.2510   24.0430   -3.4520 C.3   306  R4B306      0.0770
      7  C14       -5.7580   23.9730   -4.4250 C.ar  306  R4B306      0.0580
      8  C13       -5.1900   23.1350   -5.4020 C.ar  306  R4B306      0.1227
      9  C12       -3.7880   23.1050   -5.8850 C.ar  306  R4B306      0.0209
     10  C11       -3.4430   22.2520   -6.9280 C.ar  306  R4B306      0.0016
     11  C10       -2.1190   22.2030   -7.3680 C.ar  306  R4B306      0.0001
     12  C7        -1.1650   23.0020   -6.7430 C.ar  306  R4B306      0.0000
     13  C8        -1.5210   23.8260   -5.6810 C.ar  306  R4B306      0.0001
     14  C9        -2.8330   23.8780   -5.2410 C.ar  306  R4B306      0.0016
     15  C15       -7.0930   23.5790   -4.3140 C.ar  306  R4B306      0.1549
     16 CL1         3.1990   20.4700   -8.3220 Cl    306  R4B306     -0.0822
     17  C1         2.3140   21.9380   -7.8040 C.ar  306  R4B306      0.0577
     18  C2         0.9530   21.8600   -7.5000 C.ar  306  R4B306      0.0114
     19  C3         2.9980   23.1440   -7.7060 C.ar  306  R4B306      0.0114
     20  C4         2.3280   24.2900   -7.3030 C.ar  306  R4B306      0.0009
     21  C5         0.9740   24.2160   -7.0030 C.ar  306  R4B306      0.0001
     22  C6         0.2800   23.0120   -7.1180 C.ar  306  R4B306      0.0008
     23  C18       -9.2530   25.5590   -1.8010 C.3   306  R4B306      0.1030
     24  P1        -8.7640   24.8480   -0.2020 P.3   306  R4B306      0.2749
     25  O2        -7.3260   25.2370    0.0620 O.3   306  R4B306     -0.1634
     26  O3        -9.0670   23.3730   -0.1970 O.2   306  R4B306     -0.2825
     27  C19       -9.7780   25.5930    1.0060 C.ar  306  R4B306      0.0563
     28  C20       -9.2110   25.9490    2.2180 C.ar  306  R4B306      0.0056
     29  C21      -10.0000   26.5340    3.2030 C.ar  306  R4B306      0.0069
     30  C22      -11.3470   26.7440    2.9640 C.ar  306  R4B306      0.0346
     31 BR1       -12.3740   27.5440    4.3510 Br    306  R4B306     -0.0490
     32  C23      -11.9210   26.3720    1.7500 C.ar  306  R4B306      0.0069
     33  C24      -11.1340   25.7940    0.7560 C.ar  306  R4B306      0.0056
     34  N2        -7.9810   27.5010   -4.1610 N.am  306  R4B306     -0.1978
     35  C26       -8.4690   28.5010   -5.1060 C.3   306  R4B306      0.1728
     36  C30       -7.7640   28.4380   -6.4610 C.2   306  R4B306      0.2616
     37  O7        -6.6020   28.0250   -6.5580 O.2   306  R4B306     -0.2715
     38  C27       -8.3560   29.8920   -4.5070 C.3   306  R4B306      0.0334
     39  N3        -8.4740   28.8340   -7.5120 N.am  306  R4B306     -0.1963
     40  C31       -7.8460   28.9790   -8.8150 C.3   306  R4B306      0.1745
     41  C35       -6.7690   30.0600   -8.7190 C.2   306  R4B306      0.2806
     42  O10       -5.6020   29.8270   -9.0490 O.2   306  R4B306     -0.2698
     43  C32       -8.8850   29.3380   -9.8750 C.3   306  R4B306      0.0334
     44  N4        -7.1650   31.2380   -8.2450 N.am  306  R4B306     -0.0863
@<TRIPOS>BOND
     1    43    40    1
     2    42    41    2
     3    40    41    1
     4    40    39    1
     5    41    44   am
     6    16    17    1
     7    17    19   ar
     8    17    18   ar
     9    19    20   ar
    10    39    36   am
    11    18    22   ar
    12    11    10   ar
    13    11    12   ar
    14    20    21   ar
    15    22    21   ar
    16    22    12    1
    17    10     9   ar
    18    12    13   ar
    19    37    36    2
    20    36    35    1
    21     9     8    1
    22     9    14   ar
    23     2     8   ar
    24     2     3   ar
    25    13    14   ar
    26     8     7   ar
    27     3    15   ar
    28    35    38    1
    29    35    34    1
    30     1     4    2
    31     7    15   ar
    32    15     6    1
    33    34     4   am
    34     4     5    1
    35     6     5    1
    36     5    23    1
    37    23    24    1
    38    24    26    2
    39    24    25    1
    40    24    27    1
    41    33    27   ar
    42    33    32   ar
    43    27    28   ar
    44    32    30   ar
    45    28    29   ar
    46    30    29   ar
    47    30    31    1
