@<TRIPOS>MOLECULE
4gr1_RGS_A_1.pdb
 40 39 0 0 0
SMALL
GASTEIGER

@<TRIPOS>ATOM
      1  C1        64.7310   37.3000   24.6980 C.2   481  RGS481      0.3819
      2  O1A       64.1880   36.3300   25.3360 O.co2 481  RGS481     -0.2441
      3  O1B       64.8400   38.5300   25.3200 O.co2 481  RGS481     -0.2441
      4  C2        65.4830   37.1300   23.1990 C.3   481  RGS481      0.1961
      5  N2        66.1010   35.7280   22.7250 N.3   481  RGS481     -0.1208
      6  C3        64.7460   37.7660   21.9140 C.3   481  RGS481      0.0540
      7  C4        65.5220   37.3430   20.6660 C.3   481  RGS481      0.1173
      8  N4        64.9180   37.4110   19.6350 N.am  481  RGS481     -0.2039
      9  C         64.0720   36.4020   19.1100 C.2   481  RGS481      0.2621
     10  O         63.6420   35.3900   19.7420 O.2   481  RGS481     -0.2715
     11  CA        63.4490   36.3850   17.6000 C.3   481  RGS481      0.1843
     12  N         63.5500   37.6600   17.2430 N.am  481  RGS481     -0.1963
     13  C5        63.3600   38.6140   16.6180 C.2   481  RGS481      0.2533
     14  O5        63.2830   38.8890   15.6220 O.2   481  RGS481     -0.2727
     15  C6        63.1630   39.4840   17.7580 C.3   481  RGS481      0.2004
     16  C7        63.5530   40.8980   18.0320 C.2   481  RGS481      0.3741
     17  O7A       63.8260   41.0990   19.3220 O.co2 481  RGS481     -0.2451
     18  O7B       63.4230   41.7950   17.0290 O.co2 481  RGS481     -0.2451
     19  CB        61.9030   36.4650   17.8830 C.3   481  RGS481      0.0997
     20  SG        61.2240   34.8060   17.7080 S.3   481  RGS481     -0.0797
     21  SG'       61.3290   34.7040   15.8310 S.3   481  RGS481     -0.0797
     22  CB'       62.3230   33.2990   15.4050 C.3   481  RGS481      0.0997
     23  CA'       63.0860   32.9490   16.7370 C.3   481  RGS481      0.1843
     24  N'        62.9050   31.5000   17.0420 N.am  481  RGS481     -0.1963
     25  C5'       63.5100   31.0150   18.2550 C.2   481  RGS481      0.2533
     26  O5'       64.1620   31.7120   19.2200 O.2   481  RGS481     -0.2727
     27  C6'       63.2400   29.4610   18.4340 C.3   481  RGS481      0.2004
     28  C7'       61.8710   29.4330   19.3610 C.2   481  RGS481      0.3741
     29  O11       60.6820   29.1790   18.7080 O.co2 481  RGS481     -0.2451
     30  O12       61.9930   29.7570   20.8140 O.co2 481  RGS481     -0.2451
     31  C'        64.6920   33.2130   16.6270 C.2   481  RGS481      0.2621
     32  O'        65.3910   32.6530   15.6460 O.2   481  RGS481     -0.2715
     33  N4'       65.1400   34.1250   17.6030 N.am  481  RGS481     -0.2039
     34  C4'       66.2720   34.5750   17.8370 C.3   481  RGS481      0.1173
     35  C3'       67.3410   34.7020   16.7360 C.3   481  RGS481      0.0540
     36  C2'       68.7010   35.3880   17.2720 C.3   481  RGS481      0.1961
     37  N2'       68.6270   36.2410   18.5310 N.3   481  RGS481     -0.1208
     38  C1'       69.3290   36.1310   16.0910 C.2   481  RGS481      0.3819
     39  O13       69.6390   35.2810   15.0930 O.co2 481  RGS481     -0.2441
     40  O14       69.4420   37.4250   16.1110 O.co2 481  RGS481     -0.2441
@<TRIPOS>BOND
     1    39    38   ar
     2    22    21    1
     3    22    23    1
     4    14    13    2
     5    32    31    2
     6    21    20    1
     7    38    40   ar
     8    38    36    1
     9    13    12   am
    10    13    15    1
    11    31    23    1
    12    31    33   am
    13    35    36    1
    14    35    34    1
    15    23    24    1
    16    18    16   ar
    17    24    25   am
    18    12    11    1
    19    36    37    1
    20    11    19    1
    21    11     9    1
    22    33    34    1
    23    20    19    1
    24    15    16    1
    25    16    17   ar
    26    25    27    1
    27    25    26    2
    28    27    28    1
    29    29    28   ar
    30     9     8   am
    31     9    10    2
    32    28    30   ar
    33     8     7    1
    34     7     6    1
    35     6     4    1
    36     5     4    1
    37     4     1    1
    38     1     3   ar
    39     1     2   ar
