@<TRIPOS>MOLECULE
4gr3_R45_A_1.pdb
 45 47 0 0 0
SMALL
GASTEIGER

@<TRIPOS>ATOM
      1  O4         9.7030   26.3050    4.6990 O.2   306  R45306     -0.2733
      2  N1         6.3090   22.4290    5.7260 N.ar  306  R45306     -0.0774
      3  O1         7.4530   22.7090    5.1200 O.2   306  R45306     -0.3578
      4  C25        8.8210   26.5950    3.8510 C.2   306  R45306      0.2423
      5  C17        8.4300   25.6130    2.7890 C.3   306  R45306      0.0959
      6  C16        8.5310   24.2150    3.3760 C.3   306  R45306      0.0770
      7  C14        6.0270   24.1220    4.2670 C.ar  306  R45306      0.0580
      8  C13        5.4020   23.3020    5.2260 C.ar  306  R45306      0.1227
      9  C12        3.9750   23.2550    5.6560 C.ar  306  R45306      0.0209
     10  C11        2.9750   23.9760    5.0150 C.ar  306  R45306      0.0016
     11  C10        1.6490   23.8750    5.4480 C.ar  306  R45306      0.0000
     12  C7         1.3220   23.0290    6.5080 C.ar  306  R45306      0.0000
     13  C8         2.3230   22.2950    7.1370 C.ar  306  R45306      0.0000
     14  C9         3.6430   22.3990    6.7020 C.ar  306  R45306      0.0016
     15  C15        7.3640   23.7230    4.2110 C.ar  306  R45306      0.1549
     16  C18        9.4750   25.7820    1.6790 C.3   306  R45306      0.1030
     17  P1         9.1250   24.9510    0.1040 P.3   306  R45306      0.2749
     18  O2         9.4710   23.4720    0.1530 O.3   306  R45306     -0.1634
     19  O3         7.7220   25.2760   -0.3540 O.2   306  R45306     -0.2825
     20  C19       10.1890   25.6630   -1.0960 C.ar  306  R45306      0.0563
     21  C20        9.6850   26.1500   -2.3010 C.ar  306  R45306      0.0056
     22  C21       10.5550   26.7050   -3.2410 C.ar  306  R45306      0.0069
     23  C22       11.9240   26.7560   -2.9870 C.ar  306  R45306      0.0346
     24 BR1        13.1200   27.5090   -4.2600 Br    306  R45306     -0.0490
     25  C23       12.4260   26.2610   -1.7860 C.ar  306  R45306      0.0069
     26  C24       11.5530   25.7160   -0.8490 C.ar  306  R45306      0.0056
     27  N2         8.1910   27.7610    3.8330 N.am  306  R45306     -0.1978
     28  C26        8.6000   28.8420    4.7180 C.3   306  R45306      0.1733
     29  C30        7.8140   28.8760    6.0230 C.2   306  R45306      0.2616
     30  O7         6.6560   28.4640    6.0900 O.2   306  R45306     -0.2715
     31  C27        8.5050   30.1880    3.9900 C.3   306  R45306      0.0429
     32  C28        9.4130   30.2920    2.7720 C.3   306  R45306      0.1163
     33  C29        9.3730   31.6630    2.1320 C.2   306  R45306      0.3649
     34  O6         8.6490   31.8310    1.1280 O.co2 306  R45306     -0.2457
     35  O5        10.0700   32.5700    2.6320 O.co2 306  R45306     -0.2457
     36  N3         8.4610   29.3690    7.0710 N.am  306  R45306     -0.1963
     37  C31        7.7900   29.5890    8.3360 C.3   306  R45306      0.1750
     38  C35        6.6770   30.6270    8.1600 C.2   306  R45306      0.2806
     39  O10        5.5210   30.3800    8.5170 O.2   306  R45306     -0.2698
     40  C32        8.8050   30.0620    9.3670 C.3   306  R45306      0.0430
     41  C33        8.2900   30.1150   10.7830 C.3   306  R45306      0.1163
     42  C34        9.4240   30.0860   11.7770 C.2   306  R45306      0.3649
     43  O8        10.1280   31.1130   11.9030 O.co2 306  R45306     -0.2457
     44  O9         9.6300   29.0260   12.4060 O.co2 306  R45306     -0.2457
     45  N4         7.0260   31.7790    7.5960 N.am  306  R45306     -0.0863
@<TRIPOS>BOND
     1    24    23    1
     2    22    23   ar
     3    22    21   ar
     4    23    25   ar
     5    21    20   ar
     6    25    26   ar
     7    20    26   ar
     8    20    17    1
     9    19    17    2
    10    17    18    1
    11    17    16    1
    12    34    33   ar
    13    16     5    1
    14    33    35   ar
    15    33    32    1
    16    32    31    1
    17     5     6    1
    18     5     4    1
    19     6    15    1
    20    27     4   am
    21    27    28    1
    22     4     1    2
    23    31    28    1
    24    15     7   ar
    25    15     3   ar
    26     7     8   ar
    27    28    29    1
    28    10    11   ar
    29    10     9   ar
    30     3     2   ar
    31     8     9    1
    32     8     2   ar
    33    11    12   ar
    34     9    14   ar
    35    29    30    2
    36    29    36   am
    37    12    13   ar
    38    14    13   ar
    39    36    37    1
    40    45    38   am
    41    38    37    1
    42    38    39    2
    43    37    40    1
    44    40    41    1
    45    41    42    1
    46    42    43   ar
    47    42    44   ar
