@<TRIPOS>MOLECULE
4gr5_APC_A_1.pdb
 31 33 0 0 0
SMALL
GASTEIGER

@<TRIPOS>ATOM
      1  PG       -23.9750   17.9570  -17.2760 P.3   601  APC601      0.5389
      2  O1G      -23.2940   19.2750  -16.9970 O.3   601  APC601     -0.1143
      3  O2G      -23.5600   16.8490  -16.3510 O.3   601  APC601     -0.1143
      4  O3G      -25.4560   18.1130  -17.4480 O.2   601  APC601     -0.2220
      5  PB       -22.3020   18.0120  -19.7040 P.3   601  APC601      0.3895
      6  O1B      -22.6870   19.4060  -20.1540 O.3   601  APC601     -0.1388
      7  O2B      -22.2120   16.9750  -20.8070 O.2   601  APC601     -0.2544
      8  O3B      -23.4650   17.4180  -18.7260 O.3   601  APC601     -0.2026
      9  PA       -19.3820   18.7980  -19.5160 P.3   601  APC601      0.3820
     10  O1A      -18.6440   17.8970  -20.4830 O.2   601  APC601     -0.2548
     11  O2A      -19.8570   20.1540  -20.0290 O.3   601  APC601     -0.1392
     12  C3A      -20.7720   17.9320  -18.7520 C.3   601  APC601      0.2357
     13  O5'      -18.3860   19.1160  -18.2870 O.3   601  APC601     -0.2896
     14  C5'      -17.3850   18.1910  -17.9030 C.3   601  APC601      0.1836
     15  C4'      -17.5610   17.8070  -16.4320 C.3   601  APC601      0.1822
     16  O4'      -16.6360   16.7490  -16.1680 O.3   601  APC601     -0.3135
     17  C3'      -17.2340   18.9080  -15.4280 C.3   601  APC601      0.2184
     18  O3'      -18.3930   19.6670  -15.0640 O.3   601  APC601     -0.2174
     19  C2'      -16.7070   18.1360  -14.2440 C.3   601  APC601      0.2570
     20  O2'      -17.7960   17.6300  -13.4590 O.3   601  APC601     -0.2130
     21  C1'      -16.0060   16.9680  -14.8980 C.3   601  APC601      0.3186
     22  N9       -14.5940   17.3160  -15.1750 N.pl3 601  APC601     -0.1439
     23  C8       -14.0760   17.7900  -16.3240 C.3   601  APC601      0.3377
     24  N7       -12.7300   17.9770  -16.2170 N.2   601  APC601     -0.2095
     25  C5       -12.3840   17.5970  -14.9620 C.2   601  APC601      0.2526
     26  C6       -11.1400   17.5160  -14.1760 C.2   601  APC601      0.4393
     27  N6        -9.9480   17.8760  -14.7080 N.pl3 601  APC601      0.2180
     28  N1       -11.2280   17.0510  -12.9040 N.2   601  APC601      0.0021
     29  C2       -12.4030   16.6760  -12.3550 C.3   601  APC601      0.5254
     30  N3       -13.5750   16.7160  -13.0130 N.2   601  APC601     -0.0055
     31  C4       -13.6150   17.1540  -14.2950 C.2   601  APC601      0.3518
@<TRIPOS>BOND
     1     7     5    2
     2    10     9    2
     3     6     5    1
     4    11     9    1
     5     5    12    1
     6     5     8    1
     7     9    12    1
     8     9    13    1
     9     8     1    1
    10    13    14    1
    11    14    15    1
    12     4     1    2
    13     1     2    1
    14     1     3    1
    15    15    16    1
    16    15    17    1
    17    23    24    1
    18    23    22    1
    19    24    25    2
    20    16    21    1
    21    17    18    1
    22    17    19    1
    23    22    21    1
    24    22    31    1
    25    25    31    1
    26    25    26    1
    27    21    19    1
    28    27    26    1
    29    31    30    2
    30    19    20    1
    31    26    28    2
    32    30    29    1
    33    28    29    1
