@<TRIPOS>MOLECULE
4gr8_R4C_A_1.pdb
 37 39 0 0 0
SMALL
GASTEIGER

@<TRIPOS>ATOM
      1  O4        -8.0270   26.1270   -5.3260 O.2   306  R4C306     -0.2733
      2  N1        -4.4570   22.0830   -6.2640 N.ar  306  R4C306     -0.0774
      3  O1        -5.5910   22.4700   -5.6850 O.2   306  R4C306     -0.3578
      4  C25       -6.9460   26.3680   -4.7480 C.2   306  R4C306      0.2423
      5  C17       -6.4870   25.5080   -3.6090 C.3   306  R4C306      0.0959
      6  C16       -6.5900   24.0520   -4.0210 C.3   306  R4C306      0.0770
      7  C14       -4.0730   23.7770   -4.8240 C.ar  306  R4C306      0.0580
      8  C13       -3.5080   22.8990   -5.7700 C.ar  306  R4C306      0.1227
      9  C12       -2.0850   22.7460   -6.1620 C.ar  306  R4C306      0.0209
     10  C11       -1.0960   23.4670   -5.5150 C.ar  306  R4C306      0.0016
     11  C10        0.2330   23.2880   -5.8880 C.ar  306  R4C306      0.0000
     12  C7         0.5630   22.3930   -6.8960 C.ar  306  R4C306      0.0000
     13  C8        -0.4290   21.6570   -7.5410 C.ar  306  R4C306      0.0000
     14  C9        -1.7550   21.8340   -7.1590 C.ar  306  R4C306      0.0016
     15  C15       -5.4370   23.4870   -4.8030 C.ar  306  R4C306      0.1549
     16  C18       -7.5180   25.7840   -2.5360 C.3   306  R4C306      0.1030
     17  P1        -7.2010   25.0340   -0.9150 P.3   306  R4C306      0.2749
     18  O3        -5.7870   25.3240   -0.4330 O.3   306  R4C306     -0.1634
     19  O2        -7.5830   23.5750   -0.8720 O.2   306  R4C306     -0.2825
     20  C19       -8.2060   25.9570    0.1660 C.ar  306  R4C306      0.0563
     21  C20       -9.5840   25.9230    0.0160 C.ar  306  R4C306      0.0056
     22  C21      -10.3970   26.6540    0.8630 C.ar  306  R4C306      0.0069
     23  C22       -9.8030   27.4220    1.8560 C.ar  306  R4C306      0.0346
     24 BR1       -10.8680   28.4170    3.0420 Br    306  R4C306     -0.0490
     25  C23       -8.4210   27.4610    2.0070 C.ar  306  R4C306      0.0069
     26  C24       -7.6130   26.7290    1.1520 C.ar  306  R4C306      0.0056
     27  N2        -6.1000   27.3340   -5.1060 N.am  306  R4C306     -0.1978
     28  C26       -6.4460   28.4190   -6.0170 C.3   306  R4C306      0.1728
     29  C30       -6.0870   28.1360   -7.4650 C.2   306  R4C306      0.2616
     30  O7        -5.0680   27.5120   -7.7480 O.2   306  R4C306     -0.2715
     31  C27       -5.7550   29.6960   -5.5740 C.3   306  R4C306      0.0334
     32  N3        -6.9170   28.6430   -8.3740 N.am  306  R4C306     -0.1963
     33  C31       -6.6880   28.5160   -9.8110 C.3   306  R4C306      0.1745
     34  C35       -5.4320   29.2530  -10.2700 C.2   306  R4C306      0.2806
     35  O10       -4.8230   28.8830  -11.2740 O.2   306  R4C306     -0.2698
     36  C32       -7.9090   29.0040  -10.5860 C.3   306  R4C306      0.0334
     37  N4        -5.0580   30.2980   -9.5380 N.am  306  R4C306     -0.0863
@<TRIPOS>BOND
     1    35    34    2
     2    36    33    1
     3    34    33    1
     4    34    37   am
     5    33    32    1
     6    32    29   am
     7    30    29    2
     8    13    14   ar
     9    13    12   ar
    10    29    28    1
    11    14     9   ar
    12    12    11   ar
    13     2     8   ar
    14     2     3   ar
    15     9     8    1
    16     9    10   ar
    17    28    31    1
    18    28    27    1
    19    11    10   ar
    20     8     7   ar
    21     3    15   ar
    22     1     4    2
    23    27     4   am
    24     7    15   ar
    25    15     6    1
    26     4     5    1
    27     6     5    1
    28     5    16    1
    29    16    17    1
    30    17    19    2
    31    17    18    1
    32    17    20    1
    33    21    20   ar
    34    21    22   ar
    35    20    26   ar
    36    22    23   ar
    37    26    25   ar
    38    23    25   ar
    39    23    24    1
