@<TRIPOS>MOLECULE
4gra_A3P_A_1.pdb
 27 29 0 0 0
SMALL
GASTEIGER

@<TRIPOS>ATOM
      1  P1        25.4730    6.4930   27.9130 P.3   301  A3P301      0.5327
      2  O1P       25.1630    5.3220   27.0090 O.2   301  A3P301     -0.2224
      3  O2P       26.8920    6.9780   27.7340 O.3   301  A3P301     -0.1145
      4  O3P       24.9890    6.3480   29.3320 O.3   301  A3P301     -0.1145
      5  P2        23.4670   13.3830   25.4310 P.3   301  A3P301      0.5327
      6  O4P       24.9550   13.5980   25.2190 O.3   301  A3P301     -0.1145
      7  O5P       22.6190   13.2650   24.1710 O.2   301  A3P301     -0.2224
      8  O6P       22.8710   14.2740   26.4970 O.3   301  A3P301     -0.1145
      9  O5'       23.3380   11.9330   26.0930 O.3   301  A3P301     -0.2675
     10  C5'       24.2460   10.8870   25.7850 C.3   301  A3P301      0.1859
     11  C4'       23.7920    9.6380   26.5260 C.3   301  A3P301      0.1796
     12  O4'       22.4890    9.1940   26.0880 O.3   301  A3P301     -0.3136
     13  C3'       24.7070    8.4690   26.2570 C.3   301  A3P301      0.1928
     14  O3'       24.5180    7.6700   27.4220 O.3   301  A3P301     -0.2673
     15  C2'       24.0500    7.8500   25.0350 C.3   301  A3P301      0.2543
     16  O2'       24.4950    6.5180   24.7590 O.3   301  A3P301     -0.2131
     17  C1'       22.5810    7.9280   25.4360 C.3   301  A3P301      0.3185
     18  N9        21.6090    7.8330   24.3120 N.pl3 301  A3P301     -0.1439
     19  C8        21.6990    8.3830   23.0800 C.3   301  A3P301      0.3377
     20  N7        20.6180    8.0970   22.3100 N.2   301  A3P301     -0.2095
     21  C5        19.8120    7.3270   23.0690 C.2   301  A3P301      0.2526
     22  C6        18.5000    6.6470   22.9030 C.2   301  A3P301      0.4393
     23  N6        17.8340    6.7480   21.7410 N.pl3 301  A3P301      0.2180
     24  N1        17.9950    5.9410   23.9460 N.2   301  A3P301      0.0021
     25  C2        18.6630    5.8270   25.1170 C.3   301  A3P301      0.5254
     26  N3        19.8450    6.4220   25.3410 N.2   301  A3P301     -0.0055
     27  C4        20.4600    7.1640   24.3810 C.2   301  A3P301      0.3518
@<TRIPOS>BOND
     1    23    22    1
     2    20    21    2
     3    20    19    1
     4    22    21    1
     5    22    24    2
     6    21    27    1
     7    19    18    1
     8    24    25    1
     9     7     5    2
    10    18    27    1
    11    18    17    1
    12    27    26    2
    13    16    15    1
    14    15    17    1
    15    15    13    1
    16    25    26    1
    17     6     5    1
    18     5     9    1
    19     5     8    1
    20    17    12    1
    21    10     9    1
    22    10    11    1
    23    12    11    1
    24    13    11    1
    25    13    14    1
    26     2     1    2
    27    14     1    1
    28     3     1    1
    29     1     4    1
