@<TRIPOS>MOLECULE
4grf_GSH_A_1.pdb
 20 19 0 0 0
SMALL
GASTEIGER

@<TRIPOS>ATOM
      1  N1        38.5310   54.5720   21.3400 N.3   507  GSH507     -0.1208
      2  CA1       37.4110   55.4520   21.7700 C.3   507  GSH507      0.1948
      3  C1        37.8200   56.3760   22.8850 C.2   507  GSH507      0.3819
      4  O11       37.5560   57.5950   22.7820 O.co2 507  GSH507     -0.2441
      5  O12       38.4080   55.8930   23.8800 O.co2 507  GSH507     -0.2441
      6  CB1       36.2360   54.5730   22.1940 C.3   507  GSH507      0.0402
      7  CG1       35.1920   55.3570   22.9860 C.3   507  GSH507      0.0889
      8  CD1       34.2160   56.0530   22.0600 C.2   507  GSH507      0.2418
      9  OE1       34.2550   55.9160   20.8450 O.2   507  GSH507     -0.2733
     10  N2        33.2960   56.8160   22.6470 N.am  507  GSH507     -0.1968
     11  CA2       32.2750   57.4730   21.8640 C.3   507  GSH507      0.1843
     12  C2        32.8600   58.4070   20.8470 C.2   507  GSH507      0.2627
     13  O2        33.6980   59.2390   21.1620 O.2   507  GSH507     -0.2714
     14  CB2       31.3140   58.2410   22.7720 C.3   507  GSH507      0.0997
     15  SG2       30.6850   57.2320   24.1300 S.3   507  GSH507     -0.0797
     16  N3        32.3820   58.2470   19.6180 N.am  507  GSH507     -0.1917
     17  CA3       32.7600   59.0650   18.4830 C.3   507  GSH507      0.2285
     18  C3        31.7890   58.8510   17.3350 C.2   507  GSH507      0.3865
     19  O31       31.9960   59.4560   16.2660 O.co2 507  GSH507     -0.2437
     20  O32       30.8140   58.0730   17.4870 O.co2 507  GSH507     -0.2437
@<TRIPOS>BOND
     1    19    18   ar
     2    18    20   ar
     3    18    17    1
     4    17    16    1
     5    16    12   am
     6     9     8    2
     7    12    13    2
     8    12    11    1
     9     1     2    1
    10     2     6    1
    11     2     3    1
    12    11    10    1
    13    11    14    1
    14     8    10   am
    15     8     7    1
    16     6     7    1
    17    14    15    1
    18     4     3   ar
    19     3     5   ar
