@<TRIPOS>MOLECULE
4grk_III_B_1.pdb
 44 44 0 0 0
SMALL
GASTEIGER

@<TRIPOS>ATOM
      1  N          2.7820    5.7000   35.5950 N.3   681  LEU681     -0.1231
      2  CA         3.4240    6.8300   36.3630 C.3   681  LEU681      0.1693
      3  C          4.8160    7.2180   35.7040 C.2   681  LEU681      0.2592
      4  O          5.2300    6.5880   34.6920 O.2   681  LEU681     -0.2718
      5  CB         3.4190    6.5080   37.8950 C.3   681  LEU681      0.0284
      6  CG         2.0960    5.8640   38.4390 C.3   681  LEU681      0.0019
      7  CD1        2.0750    4.3270   38.3560 C.3   681  LEU681      0.0001
      8  CD2        1.6930    6.3240   39.8430 C.3   681  LEU681      0.0001
      9  N          5.5180    8.2420   36.2370 N.am  682  GLU682     -0.1966
     10  CA         6.5990    8.9700   35.4760 C.3   682  GLU682      0.1733
     11  C          8.1390    8.6730   35.7690 C.2   682  GLU682      0.2616
     12  O          8.9890    9.5100   35.4100 O.2   682  GLU682     -0.2715
     13  CB         6.3470   10.5150   35.5520 C.3   682  GLU682      0.0429
     14  CG         5.0110   11.0670   35.0040 C.3   682  GLU682      0.1163
     15  CD         3.7900   10.8220   35.9170 C.2   682  GLU682      0.3649
     16  OE1        3.8640   11.0810   37.1490 O.co2 682  GLU682     -0.2457
     17  OE2        2.7370   10.3610   35.3960 O.co2 682  GLU682     -0.2457
     18  N          8.5130    7.5230   36.3700 N.am  683  ALA683     -0.1963
     19  CA         9.9220    7.2720   36.8340 C.3   683  ALA683      0.1728
     20  C         10.8650    6.4290   35.9010 C.2   683  ALA683      0.2616
     21  O         10.4250    5.8400   34.9000 O.2   683  ALA683     -0.2715
     22  CB         9.9170    6.6950   38.2580 C.3   683  ALA683      0.0334
     23  N         12.1600    6.4020   36.2310 N.am  684  CYS684     -0.1954
     24  CA        13.0810    5.4600   35.5850 C.3   684  CYS684      0.1843
     25  C         12.6760    3.9600   35.8630 C.2   684  CYS684      0.2625
     26  O         12.3310    3.5860   37.0100 O.2   684  CYS684     -0.2714
     27  CB        14.5150    5.7350   36.0330 C.3   684  CYS684      0.0997
     28  SG        15.7430    4.5820   35.4020 S.3   684  CYS684     -0.0797
     29  N         12.7400    3.1190   34.8120 N.am  685  ALA685     -0.1963
     30  CA        12.3490    1.6940   34.8630 C.3   685  ALA685      0.1728
     31  C         13.3020    0.7700   35.6330 C.2   685  ALA685      0.2616
     32  O         12.9620   -0.4190   35.8180 O.2   685  ALA685     -0.2715
     33  CB        12.0870    1.1290   33.4520 C.3   685  ALA685      0.0334
     34  N         14.4700    1.2800   36.0650 N.am  686  PHE686     -0.1974
     35  CA        15.4870    0.4770   36.8440 C.3   686  PHE686      0.1639
     36  C         15.7260    0.9540   38.2960 C.2   686  PHE686      0.2290
     37  O         15.2810    2.0460   38.6650 O.2   686  PHE686     -0.2864
     38  CB        16.8240    0.4110   36.0990 C.3   686  PHE686      0.0560
     39  CG        16.6730    0.1480   34.6370 C.ar  686  PHE686     -0.0200
     40  CD1       16.3330   -1.1330   34.1630 C.ar  686  PHE686     -0.0042
     41  CD2       16.8390    1.1860   33.7250 C.ar  686  PHE686     -0.0042
     42  CE1       16.1580   -1.3230   32.8010 C.ar  686  PHE686     -0.0003
     43  CE2       16.7040    0.9750   32.3480 C.ar  686  PHE686     -0.0003
     44  CZ        16.3780   -0.2640   31.8950 C.ar  686  PHE686     -0.0000
@<TRIPOS>BOND
     1    44    43   ar
     2    44    42   ar
     3    43    41   ar
     4    42    40   ar
     5    33    30    1
     6    41    39   ar
     7    40    39   ar
     8    39    38    1
     9     4     3    2
    10    29    30    1
    11    29    25   am
    12    30    31    1
    13    21    20    2
    14    14    13    1
    15    14    15    1
    16    17    15   ar
    17    28    27    1
    18    12    11    2
    19    10    13    1
    20    10    11    1
    21    10     9    1
    22    24    25    1
    23    24    27    1
    24    24    23    1
    25     1     2    1
    26    31    32    2
    27    31    34   am
    28     3     9   am
    29     3     2    1
    30    11    18   am
    31    25    26    2
    32    20    23   am
    33    20    19    1
    34    15    16   ar
    35    34    35    1
    36    38    35    1
    37     2     5    1
    38    18    19    1
    39    19    22    1
    40    35    36    1
    41     5     6    1
    42    36    37    2
    43     7     6    1
    44     6     8    1
