@<TRIPOS>MOLECULE
4grk_KTR_A_1.pdb
 19 21 0 0 0
SMALL
GASTEIGER

@<TRIPOS>ATOM
      1  O3        14.1380   13.4070   15.9940 O.co2 713  KTR713     -0.2452
      2  C4        11.5540   13.3640   11.9320 C.ar  713  KTR713      0.0149
      3  C5        11.7060   13.8350   13.1990 C.ar  713  KTR713      0.0476
      4  C6        10.5950   14.5530   15.1170 C.3   713  KTR713      0.1068
      5  N1        10.4820   14.0480   13.7380 N.ar  713  KTR713     -0.3276
      6  C7        12.0480   15.0580   15.2550 C.3   713  KTR713      0.0417
      7  C8        12.7830   14.2060   14.1980 C.3   713  KTR713      0.1433
      8  C9        13.9200   13.2820   14.6830 C.2   713  KTR713      0.3699
      9  C10        7.1730   13.5080   11.8390 C.ar  713  KTR713      0.0404
     10  C11        7.6020   13.7600   10.5350 C.ar  713  KTR713      0.0032
     11  C12        6.7550   13.5060    9.4750 C.ar  713  KTR713      0.0001
     12  C13        5.4870   13.0020    9.7030 C.ar  713  KTR713      0.0000
     13  C14        5.0580   12.7490   10.9930 C.ar  713  KTR713      0.0001
     14  C15        5.8960   12.9920   12.0610 C.ar  713  KTR713      0.0032
     15  O1         7.6080   14.0590   14.0710 O.2   713  KTR713     -0.2850
     16  C1         8.0750   13.7780   12.9820 C.2   713  KTR713      0.2112
     17  C2         9.5260   13.7010   12.8040 C.ar  713  KTR713      0.0991
     18  C3        10.1850   13.2740   11.6690 C.ar  713  KTR713      0.0216
     19  O2        14.6440   12.4140   14.0830 O.co2 713  KTR713     -0.2452
@<TRIPOS>BOND
     1    11    12   ar
     2    11    10   ar
     3    12    13   ar
     4    10     9   ar
     5    13    14   ar
     6    18     2   ar
     7    18    17   ar
     8     9    14   ar
     9     9    16    1
    10     2     3   ar
    11    17    16    1
    12    17     5   ar
    13    16    15    2
    14     3     5   ar
    15     3     7    1
    16     5     4    1
    17    19     8   ar
    18     7     8    1
    19     7     6    1
    20     8     1   ar
    21     4     6    1
