@<TRIPOS>MOLECULE
4grt_GCG_A_1.pdb
 48 47 0 0 0
SMALL
GASTEIGER

@<TRIPOS>ATOM
      1  C1        69.7960   36.0790   16.1210 C.2    17  GCG17       0.3819
      2  CA1       69.1590   35.3360   17.2800 C.3    17  GCG17       0.1948
      3  O11       70.0400   37.2950   16.2460 O.co2  17  GCG17      -0.2441
      4  O21       70.0350   35.4320   15.0880 O.co2  17  GCG17      -0.2441
      5  CB1       67.8560   34.6430   16.8380 C.3    17  GCG17       0.0402
      6  N1        68.9260   36.2580   18.4210 N.3    17  GCG17      -0.1208
      7  CG1       66.9530   35.4100   15.8560 C.3    17  GCG17       0.0889
      8  CD1       66.3340   36.6620   16.4510 C.2    17  GCG17       0.2418
      9  OD1       67.0030   37.6830   16.5940 O.2    17  GCG17      -0.2733
     10  N2        65.0490   36.5780   16.7870 N.am   17  GCG17      -0.1968
     11  CA2       64.2870   37.6860   17.3860 C.3    17  GCG17       0.1843
     12  C2        62.8200   37.2680   17.4570 C.2    17  GCG17       0.2626
     13  O2        62.0150   37.9140   18.1460 O.2    17  GCG17      -0.2714
     14  CB2       64.3920   38.9670   16.5500 C.3    17  GCG17       0.0997
     15  SG2       63.3130   39.0080   15.1220 S.3    17  GCG17      -0.0797
     16  N3        62.4610   36.3990   16.5030 N.am   17  GCG17      -0.1940
     17  CA3       61.1260   35.8240   16.3200 C.3    17  GCG17       0.2014
     18  C3        60.2870   35.6340   17.5580 C.2    17  GCG17       0.2635
     19  O3        59.4940   36.5100   17.8950 O.2    17  GCG17      -0.2714
     20  N1S       60.6850   34.6860   18.3960 N.am   17  GCG17      -0.2039
     21  C2S       59.9770   34.3820   19.6340 C.3    17  GCG17       0.1152
     22  C3S       60.6040   33.2670   20.4630 C.3    17  GCG17       0.0249
     23  C4S       60.7180   33.7290   21.9180 C.3    17  GCG17       0.0206
     24  C5S       59.4230   34.4080   22.3760 C.3    17  GCG17       0.0888
     25  C7S       58.8740   36.6440   22.9280 C.3    17  GCG17       0.0905
     26  N6S       59.7080   35.4930   23.3040 N.3    17  GCG17      -0.2180
     27  C8S       58.3350   37.3110   24.2000 C.3    17  GCG17       0.0422
     28  C9S       58.1070   38.8040   24.0190 C.3    17  GCG17       0.1167
     29  N11       59.3570   39.4640   23.6680 N.am   17  GCG17      -0.2039
     30  C5        59.4740   40.7630   23.4610 C.2    17  GCG17       0.2635
     31  N5        61.5390   41.0160   21.8420 N.am   17  GCG17      -0.1940
     32  CA5       60.8490   41.2020   23.1090 C.3    17  GCG17       0.2014
     33  O5        58.7420   41.5660   24.0210 O.2    17  GCG17      -0.2714
     34  C6        62.1890   41.9970   21.2190 C.2    17  GCG17       0.2626
     35  N6        63.3470   40.2470   19.9290 N.am   17  GCG17      -0.1968
     36  CA6       62.8980   41.6360   19.9310 C.3    17  GCG17       0.1843
     37  O6        62.0210   43.1820   21.4950 O.2    17  GCG17      -0.2714
     38  CB6       62.0070   41.9560   18.7380 C.3    17  GCG17       0.0997
     39  SG6       62.9440   42.4740   17.2720 S.3    17  GCG17      -0.0797
     40  CD7       64.3950   39.9010   20.6630 C.2    17  GCG17       0.2418
     41  C7        63.3600   37.5930   23.2330 C.2    17  GCG17       0.3819
     42  CA7       64.7330   37.0400   22.8220 C.3    17  GCG17       0.1948
     43  O17       63.2100   37.9600   24.4220 O.co2  17  GCG17      -0.2441
     44  O27       62.4490   37.6280   22.3730 O.co2  17  GCG17      -0.2441
     45  CB7       65.5160   38.0220   21.9310 C.3    17  GCG17       0.0402
     46  N7        64.6210   35.7020   22.1670 N.3    17  GCG17      -0.1208
     47  CG7       64.8160   38.4460   20.6320 C.3    17  GCG17       0.0889
     48  OD7       65.0180   40.7190   21.3470 O.2    17  GCG17      -0.2733
@<TRIPOS>BOND
     1     4     1   ar
     2    15    14    1
     3     7     8    1
     4     7     5    1
     5     1     3   ar
     6     1     2    1
     7    17    16    1
     8    17    18    1
     9     8     9    2
    10     8    10   am
    11    16    12   am
    12    14    11    1
    13    10    11    1
    14     5     2    1
    15    39    38    1
    16     2     6    1
    17    11    12    1
    18    12    13    2
    19    18    19    2
    20    18    20   am
    21    20    21    1
    22    38    36    1
    23    21    22    1
    24    35    36    1
    25    35    40   am
    26    36    34    1
    27    22    23    1
    28    47    40    1
    29    47    45    1
    30    40    48    2
    31    34    37    2
    32    34    31   am
    33    31    32    1
    34    23    24    1
    35    45    42    1
    36    46    42    1
    37    44    41   ar
    38    24    26    1
    39    42    41    1
    40    25    26    1
    41    25    27    1
    42    32    30    1
    43    41    43   ar
    44    30    29   am
    45    30    33    2
    46    29    28    1
    47    28    27    1
