@<TRIPOS>MOLECULE
4gs0_III_C_1.pdb
 33 33 0 0 0
SMALL
GASTEIGER

@<TRIPOS>ATOM
      1  N          8.2460    1.8740   27.7640 N.3     1  UNK1       -0.1231
      2  CA         8.4330    0.8560   28.7960 C.3     1  UNK1        0.1694
      3  C          8.4990    1.4890   30.1830 C.2     1  UNK1        0.2592
      4  O          9.1330    2.5330   30.3590 O.2     1  UNK1       -0.2718
      5  CB         9.6920    0.0540   28.5200 C.3     1  UNK1        0.0304
      6  N          7.8440    0.8590   31.1600 N.am    2  UNK2       -0.1966
      7  CA         7.8380    1.3510   32.5390 C.3     2  UNK2        0.1728
      8  C          8.1560    0.2300   33.5360 C.2     2  UNK2        0.2616
      9  O          7.5220   -0.8260   33.5060 O.2     2  UNK2       -0.2715
     10  CB         6.4990    1.9980   32.8620 C.3     2  UNK2        0.0334
     11  N          9.1230    0.4610   34.4250 N.am    3  TYR3       -0.1960
     12  CA         9.6300   -0.5930   35.2600 C.3     3  TYR3        0.1771
     13  C          8.7810   -0.8500   36.4750 C.2     3  TYR3        0.2619
     14  O          8.7890   -0.0480   37.4660 O.2     3  TYR3       -0.2715
     15  CB        11.0550   -0.4250   35.6650 C.3     3  TYR3        0.0574
     16  CG        11.6800   -1.4690   36.5790 C.ar    3  TYR3       -0.0200
     17  CD1       11.8370   -2.7870   36.1630 C.ar    3  TYR3       -0.0043
     18  CD2       12.1140   -1.1030   37.8430 C.ar    3  TYR3       -0.0043
     19  CE1       12.4260   -3.7290   37.0110 C.ar    3  TYR3        0.0011
     20  CE2       12.6950   -2.0450   38.6790 C.ar    3  TYR3        0.0011
     21  CZ        12.8660   -3.3630   38.2660 C.ar    3  TYR3        0.0444
     22  C1        13.4780   -4.3510   39.2030 C.3     3  TYR3        0.3249
     23  F1        12.7360   -5.4440   39.1820 F       3  TYR3       -0.1920
     24  F2        13.4430   -3.8150   40.4510 F       3  TYR3       -0.1920
     25  P         15.2510   -4.7990   38.8380 P.3     3  TYR3        0.1831
     26  O1P       15.3640   -5.3460   37.3610 O.2     3  TYR3       -0.4543
     27  O2P       16.1570   -3.5450   39.0140 O.3     3  TYR3       -0.3533
     28  O3P       15.6900   -5.8780   39.8370 O.3     3  TYR3       -0.3533
     29  N          8.0090   -1.9330   36.3760 N.am    4  UNK4       -0.1977
     30  CA         7.5370   -2.7610   37.5010 C.3     4  UNK4        0.1597
     31  C          7.4810   -2.1250   38.8980 C.2     4  UNK4        0.2287
     32  O          7.2820   -2.8280   39.9060 O.2     4  UNK4       -0.2864
     33  CB         8.3940   -4.0440   37.5600 C.3     4  UNK4        0.0319
@<TRIPOS>BOND
     1     1     2    1
     2     5     2    1
     3     2     3    1
     4     3     4    2
     5     3     6   am
     6     6     7    1
     7     7    10    1
     8     7     8    1
     9     9     8    2
    10     8    11   am
    11    11    12    1
    12    12    15    1
    13    12    13    1
    14    15    16    1
    15    17    16   ar
    16    17    19   ar
    17    29    13   am
    18    29    30    1
    19    13    14    2
    20    16    18   ar
    21    19    21   ar
    22    26    25    2
    23    30    33    1
    24    30    31    1
    25    18    20   ar
    26    21    20   ar
    27    21    22    1
    28    25    27    1
    29    25    22    1
    30    25    28    1
    31    31    32    2
    32    23    22    1
    33    22    24    1
