@<TRIPOS>MOLECULE
4gs6_1FM_A_1.pdb
 26 27 0 0 0
SMALL
GASTEIGER

@<TRIPOS>ATOM
      1  C2        15.0090   18.5770   55.3550 C.ar  611  1FM611      0.1146
      2  C3        14.4020   17.6370   54.4810 C.ar  611  1FM611      0.0121
      3  C11       14.2440   19.6720   55.8090 C.ar  611  1FM611      0.2049
      4  C14       13.0920   17.8480   54.0770 C.ar  611  1FM611      0.0373
      5  C15       12.3620   18.9370   54.5250 C.ar  611  1FM611      0.1419
      6  O15       17.1290   17.4400   55.3210 O.3   611  1FM611     -0.4488
      7  C16       12.9450   19.8400   55.3920 C.ar  611  1FM611      0.0791
      8  C17       14.7180   15.5760   53.1130 C.2   611  1FM611     -0.0234
      9  C18       19.3330   16.5290   54.5660 C.3   611  1FM611      0.0694
     10  C23       15.1630   16.4920   53.9690 C.2   611  1FM611     -0.0041
     11  C24       16.3960   14.9490   51.4140 C.3   611  1FM611      0.1894
     12  C26       16.4190   18.5020   55.8530 C.2   611  1FM611      0.3443
     13  C31       18.5780   17.3700   55.5820 C.3   611  1FM611      0.1736
     14  C34       15.5290   14.4800   52.5580 C.3   611  1FM611      0.0616
     15  O38       16.8910   19.3470   56.6200 O.2   611  1FM611     -0.2448
     16  C39       17.7680   14.2850   51.2320 C.3   611  1FM611      0.2167
     17  C40       18.7840   14.7650   52.2380 C.3   611  1FM611      0.2064
     18  O40       19.1470   13.8340   53.1190 O.3   611  1FM611     -0.2155
     19  C41       19.2310   16.0190   52.1810 C.2   611  1FM611      0.0043
     20  C42       19.4540   16.8980   53.2970 C.2   611  1FM611     -0.0244
     21  O42       15.6860   14.8940   50.1960 O.3   611  1FM611     -0.2200
     22  O44       17.6830   12.8680   51.2040 O.3   611  1FM611     -0.2173
     23  O46       14.7940   20.6070   56.6690 O.3   611  1FM611     -0.2862
     24  O48       11.0270   19.1980   54.1650 O.3   611  1FM611     -0.4713
     25  C59       10.3490   18.2530   53.3440 C.3   611  1FM611      0.2525
     26  C62       18.7820   16.8750   56.9870 C.3   611  1FM611      0.0477
@<TRIPOS>BOND
     1    21    11    1
     2    22    16    1
     3    16    11    1
     4    16    17    1
     5    11    14    1
     6    19    17    1
     7    19    20    2
     8    17    18    1
     9    14     8    1
    10     8    10    2
    11    20     9    1
    12    25    24    1
    13    10     2    1
    14     4     2   ar
    15     4     5   ar
    16    24     5    1
    17     2     1   ar
    18     5     7   ar
    19     9    13    1
    20     6    13    1
    21     6    12    1
    22     1     3   ar
    23     1    12    1
    24     7     3   ar
    25    13    26    1
    26     3    23    1
    27    12    15    2
