@<TRIPOS>MOLECULE
4gsa_PLP_A_1.pdb
 15 15 0 0 0
SMALL
GASTEIGER

@<TRIPOS>ATOM
      1  N1         4.4570   16.3350  -34.3190 N.ar  434  PLP434     -0.2452
      2  C2         4.2640   17.3640  -35.1880 C.ar  434  PLP434      0.0978
      3  C2A        3.7570   17.0410  -36.5500 C.3   434  PLP434      0.0555
      4  C3         4.7260   18.6330  -34.9040 C.ar  434  PLP434      0.2049
      5  O3         4.3260   19.7210  -35.6740 O.3   434  PLP434     -0.2857
      6  C4         5.4650   18.8360  -33.7730 C.ar  434  PLP434      0.0182
      7  C4A        5.7580   20.3060  -33.3850 C.3   434  PLP434      0.0342
      8  C5         5.7590   17.7000  -32.9360 C.ar  434  PLP434      0.0261
      9  C6         5.2120   16.5010  -33.2120 C.ar  434  PLP434      0.0965
     10  C5A        6.6060   17.7690  -31.6660 C.3   434  PLP434      0.1815
     11  O4P        5.7730   18.2310  -30.5470 O.3   434  PLP434     -0.2653
     12  P          6.3170   19.1620  -29.3080 P.3   434  PLP434      0.5329
     13  O1P        5.1170   19.6360  -28.5520 O.3   434  PLP434     -0.1145
     14  O2P        7.2410   18.2910  -28.2290 O.3   434  PLP434     -0.1145
     15  O3P        7.3410   20.0180  -29.9580 O.2   434  PLP434     -0.2224
@<TRIPOS>BOND
     1     3     2    1
     2     5     4    1
     3     2     4   ar
     4     2     1   ar
     5     4     6   ar
     6     1     9   ar
     7     6     7    1
     8     6     8   ar
     9     9     8   ar
    10     8    10    1
    11    10    11    1
    12    11    12    1
    13    15    12    2
    14    12    13    1
    15    12    14    1
