@<TRIPOS>MOLECULE
4gsp_SGP_A_1.pdb
 23 26 0 0 0
SMALL
GASTEIGER

@<TRIPOS>ATOM
      1  P         20.8270   37.4710   19.2650 P.3   106  SGP106      0.4036
      2  S1P       21.0290   39.1730   19.8220 S.3   106  SGP106      0.0393
      3  O1P       21.1650   37.5210   17.8120 O.2   106  SGP106     -0.2449
      4  O5'       19.4150   36.2600   23.5290 O.3   106  SGP106     -0.2176
      5  C5'       20.7610   35.8450   23.4820 C.3   106  SGP106      0.2141
      6  C4'       21.1960   35.1330   22.2310 C.3   106  SGP106      0.1800
      7  O4'       20.3980   33.9450   21.9550 O.3   106  SGP106     -0.3327
      8  C3'       20.9070   36.1490   21.0900 C.3   106  SGP106      0.1860
      9  O3'       21.7040   36.2730   19.9010 O.3   106  SGP106     -0.2835
     10  C2'       19.5930   35.7150   20.5490 C.3   106  SGP106      0.2011
     11  O2'       19.6090   36.4550   19.2910 O.3   106  SGP106     -0.2818
     12  C1'       19.6560   34.1220   20.7010 C.3   106  SGP106      0.2264
     13  N9        18.2740   33.4860   20.8610 N.pl3 106  SGP106     -0.2354
     14  C8        17.7980   32.3270   20.2800 C.3   106  SGP106      0.2246
     15  N7        16.5200   32.0940   20.4320 N.2   106  SGP106     -0.2322
     16  C5        16.0980   33.1870   21.1870 C.2   106  SGP106      0.2182
     17  C6        14.8040   33.5360   21.6690 C.1   106  SGP106      0.2372
     18  O6        13.7680   32.9290   21.4390 O.2   106  SGP106     -0.2069
     19  N1        14.7990   34.7250   22.4010 N.2   106  SGP106     -0.2485
     20  C2        15.9120   35.4970   22.6420 C.1   106  SGP106      0.2531
     21  N2        15.7570   36.6010   23.3660 N.pl3 106  SGP106     -0.0226
     22  N3        17.1170   35.1790   22.1830 N.2   106  SGP106     -0.3074
     23  C4        17.1470   34.0250   21.4670 C.2   106  SGP106      0.2300
@<TRIPOS>BOND
     1     3     1    2
     2     1    11    1
     3     1     2    1
     4     1     9    1
     5    11    10    1
     6     9     8    1
     7    14    15    1
     8    14    13    1
     9    15    16    2
    10    10    12    1
    11    10     8    1
    12    12    13    1
    13    12     7    1
    14    13    23    1
    15     8     6    1
    16    16    23    1
    17    16    17    1
    18    18    17    2
    19    23    22    2
    20    17    19    2
    21     7     6    1
    22    22    20    2
    23     6     5    1
    24    19    20    2
    25    20    21    1
    26     5     4    1
