@<TRIPOS>MOLECULE
4gsp_3GP_A_1.pdb
 24 26 0 0 0
SMALL
GASTEIGER

@<TRIPOS>ATOM
      1  P         23.6890   35.3840   19.9290 P.3   105  3GP105      0.5327
      2  O1P       24.5140   34.1800   19.6810 O.3   105  3GP105     -0.1145
      3  O2P       24.1600   36.2600   21.0410 O.3   105  3GP105     -0.1145
      4  O3P       23.2700   36.0930   18.6940 O.2   105  3GP105     -0.2224
      5  O5'       20.2930   37.8650   22.5000 O.3   105  3GP105     -0.2176
      6  C5'       19.8800   36.5320   22.8720 C.3   105  3GP105      0.2141
      7  C4'       20.8050   35.3790   22.3780 C.3   105  3GP105      0.1802
      8  O4'       20.0760   34.1170   22.4500 O.3   105  3GP105     -0.3326
      9  C3'       21.1700   35.5510   20.9000 C.3   105  3GP105      0.1903
     10  O3'       22.3190   34.7460   20.5330 O.3   105  3GP105     -0.2674
     11  C2'       19.9240   34.9500   20.2860 C.3   105  3GP105      0.2283
     12  O2'       20.1900   34.6140   18.9440 O.3   105  3GP105     -0.2159
     13  C1'       19.6910   33.7110   21.1130 C.3   105  3GP105      0.2292
     14  N9        18.2570   33.3050   20.9980 N.pl3 105  3GP105     -0.2354
     15  C8        17.7490   32.2040   20.3450 C.3   105  3GP105      0.2246
     16  N7        16.4520   32.0790   20.4140 N.2   105  3GP105     -0.2322
     17  C5        16.0620   33.1770   21.1700 C.2   105  3GP105      0.2182
     18  C6        14.7630   33.5870   21.5890 C.1   105  3GP105      0.2372
     19  O6        13.7130   33.0080   21.3470 O.2   105  3GP105     -0.2069
     20  N1        14.7840   34.7560   22.3390 N.2   105  3GP105     -0.2485
     21  C2        15.9280   35.4590   22.6550 C.1   105  3GP105      0.2531
     22  N2        15.7840   36.5690   23.3840 N.pl3 105  3GP105     -0.0226
     23  N3        17.1510   35.0740   22.2630 N.2   105  3GP105     -0.3074
     24  C4        17.1480   33.9330   21.5300 C.2   105  3GP105      0.2300
@<TRIPOS>BOND
     1     4     1    2
     2    12    11    1
     3     2     1    1
     4     1    10    1
     5     1     3    1
     6    11     9    1
     7    11    13    1
     8    15    16    1
     9    15    14    1
    10    16    17    2
    11    10     9    1
    12     9     7    1
    13    14    13    1
    14    14    24    1
    15    13     8    1
    16    17    24    1
    17    17    18    1
    18    19    18    2
    19    24    23    2
    20    18    20    2
    21    23    21    2
    22    20    21    2
    23     7     8    1
    24     7     6    1
    25     5     6    1
    26    21    22    1
