@<TRIPOS>MOLECULE
4gsr_EMT_A_1.pdb
 11 11 0 0 0
SMALL
GASTEIGER

@<TRIPOS>ATOM
      1  SD       -25.3970  -28.6010   -4.1850 S.3   501  EMT501      0.0000
      2 HG        -26.7560  -29.8730   -2.3870 Hg    501  EMT501      0.0000
      3  CE1      -25.9360  -26.9930   -4.0750 C.ar  501  EMT501      0.0000
      4  CD1      -25.0000  -25.9680   -4.0100 C.ar  501  EMT501      0.0000
      5  CG1      -25.4210  -24.6450   -3.9290 C.ar  501  EMT501      0.0000
      6  CD2      -26.7740  -24.3240   -3.9180 C.ar  501  EMT501      0.0000
      7  CE2      -27.7530  -25.3070   -3.9840 C.ar  501  EMT501      0.0000
      8  CZ       -27.3810  -26.6390   -4.0660 C.ar  501  EMT501      0.0000
      9  CG       -28.4380  -27.6950   -4.1400 C.2   501  EMT501      0.0000
     10  OD2      -28.6470  -28.4040   -3.1350 O.co2 501  EMT501      0.0000
     11  OD1      -29.0740  -27.8290   -5.2140 O.co2 501  EMT501      0.0000
@<TRIPOS>BOND
     1    11     9   ar
     2     1     3    1
     3     1     2    1
     4     9     8    1
     5     9    10   ar
     6     3     8   ar
     7     3     4   ar
     8     8     7   ar
     9     4     5   ar
    10     7     6   ar
    11     5     6   ar
