@<TRIPOS>MOLECULE
4gss_GTX_A_1.pdb
 26 25 0 0 0
SMALL
GASTEIGER

@<TRIPOS>ATOM
      1  N1        14.9120   10.7440   23.3940 N.3   210  GTX210     -0.1208
      2  CA1       14.7960    9.8880   24.5950 C.3   210  GTX210      0.1948
      3  C1        15.9170    8.8650   24.5360 C.2   210  GTX210      0.3819
      4  O11       16.4010    8.4350   25.6030 O.co2 210  GTX210     -0.2441
      5  O12       16.3410    8.5390   23.4090 O.co2 210  GTX210     -0.2441
      6  CB1       13.4400    9.1950   24.6060 C.3   210  GTX210      0.0402
      7  CG1       13.1750    8.3240   25.8200 C.3   210  GTX210      0.0889
      8  CD1       11.7100    7.9980   25.9570 C.2   210  GTX210      0.2418
      9  OE1       10.9610    8.0670   24.9810 O.2   210  GTX210     -0.2733
     10  N2        11.2890    7.6410   27.1650 N.am  210  GTX210     -0.1969
     11  CA2        9.8860    7.3350   27.4110 C.3   210  GTX210      0.1834
     12  C2         9.5100    7.6540   28.8460 C.2   210  GTX210      0.2626
     13  O2        10.3780    7.8100   29.7050 O.2   210  GTX210     -0.2714
     14  CB2        9.5450    5.8820   27.0550 C.3   210  GTX210      0.0886
     15  SG2       10.1370    4.5870   28.1720 S.3   210  GTX210     -0.1379
     16  C1S        9.9700    3.1370   27.1180 C.3   210  GTX210      0.0576
     17  C2S        8.5880    2.5050   27.1430 C.3   210  GTX210      0.0116
     18  C3S        8.2570    1.9370   28.5090 C.3   210  GTX210      0.0009
     19  C4S        7.0200    1.0600   28.4240 C.3   210  GTX210      0.0000
     20  C5S        6.7350    0.3270   29.7270 C.3   210  GTX210      0.0000
     21  C6S        5.7890    1.1060   30.6260 C.3   210  GTX210      0.0000
     22  N3         8.2110    7.7630   29.0880 N.am  210  GTX210     -0.1917
     23  CA3        7.7230    8.0840   30.4120 C.3   210  GTX210      0.2285
     24  C3         7.0620    9.4500   30.3860 C.2   210  GTX210      0.3865
     25  O31        6.2060    9.7150   31.2530 O.co2 210  GTX210     -0.2437
     26  O32        7.3730   10.2460   29.4720 O.co2 210  GTX210     -0.2437
@<TRIPOS>BOND
     1     1     2    1
     2     5     3   ar
     3     3     2    1
     4     3     4   ar
     5     2     6    1
     6     6     7    1
     7     9     8    2
     8     7     8    1
     9     8    10   am
    10    14    11    1
    11    14    15    1
    12    16    17    1
    13    16    15    1
    14    17    18    1
    15    10    11    1
    16    11    12    1
    17    19    18    1
    18    19    20    1
    19    12    22   am
    20    12    13    2
    21    22    23    1
    22    26    24   ar
    23    20    21    1
    24    24    23    1
    25    24    25   ar
