@<TRIPOS>MOLECULE
4gst_GTD_A_1.pdb
 35 35 0 0 0
SMALL
GASTEIGER

@<TRIPOS>ATOM
      1  N1        14.6910   14.9040   24.9540 N.3   222  GTD222     -0.1208
      2  CA1       14.3350   15.4670   26.3240 C.3   222  GTD222      0.1948
      3  C1        13.3840   16.6230   26.3180 C.2   222  GTD222      0.3819
      4  O11       12.6630   16.8910   27.3300 O.co2 222  GTD222     -0.2441
      5  O12       13.2430   17.3910   25.1880 O.co2 222  GTD222     -0.2441
      6  CB1       15.6420   15.5870   27.0770 C.3   222  GTD222      0.0402
      7  CG1       15.2590   16.0600   28.4950 C.3   222  GTD222      0.0889
      8  CD1       16.4280   16.1160   29.4140 C.2   222  GTD222      0.2418
      9  OE1       17.4970   15.5690   29.0910 O.2   222  GTD222     -0.2733
     10  N2        16.3420   16.7590   30.6050 N.am  222  GTD222     -0.1968
     11  CA2       17.4970   17.1370   31.3860 C.3   222  GTD222      0.1838
     12  C2        17.3440   16.6250   32.8150 C.2   222  GTD222      0.2626
     13  O2        18.0800   17.0920   33.6500 O.2   222  GTD222     -0.2714
     14  CB2       17.6320   18.6960   31.4350 C.3   222  GTD222      0.0933
     15  SG2       17.7280   19.5090   29.8850 S.3   222  GTD222     -0.1081
     16  N3        16.4600   15.5970   32.9350 N.am  222  GTD222     -0.1917
     17  CA3       16.2780   15.0460   34.2640 C.3   222  GTD222      0.2285
     18  C3        16.8520   13.7010   34.5310 C.2   222  GTD222      0.3865
     19  O31       17.5830   13.1150   33.6800 O.co2 222  GTD222     -0.2437
     20  O32       16.6390   13.1000   35.6940 O.co2 222  GTD222     -0.2437
     21  C1'       19.4390   19.7600   29.6590 C.ar  222  GTD222      0.0703
     22  C2'       19.6470   21.2480   29.8510 C.ar  222  GTD222      0.1517
     23  N2'       19.8750   21.8090   31.1600 N.pl3 222  GTD222      0.0583
     24  O21       19.2400   21.3090   32.1240 O.2   222  GTD222     -0.1261
     25  O22       20.6390   22.7760   31.2440 O.2   222  GTD222     -0.1261
     26  C3'       19.6420   22.1770   28.8200 C.ar  222  GTD222      0.0487
     27  C4'       19.6470   21.7220   27.4860 C.ar  222  GTD222      0.1462
     28  N4'       19.5430   22.7220   26.4300 N.pl3 222  GTD222      0.0578
     29  O41       19.8540   23.9240   26.6240 O.2   222  GTD222     -0.1261
     30  O42       19.1180   22.4080   25.3150 O.2   222  GTD222     -0.1261
     31  C5'       19.7090   20.3610   27.1860 C.ar  222  GTD222      0.0487
     32  C6'       19.7110   19.4390   28.1990 C.ar  222  GTD222      0.1517
     33  N6'       19.9530   18.0480   28.0430 N.pl3 222  GTD222      0.0583
     34  O61       19.5990   17.4140   27.0220 O.2   222  GTD222     -0.1261
     35  O62       20.5710   17.4580   28.9580 O.2   222  GTD222     -0.1261
@<TRIPOS>BOND
     1     1     2    1
     2     5     3   ar
     3    30    28    2
     4     3     2    1
     5     3     4   ar
     6     2     6    1
     7    28    29    2
     8    28    27    1
     9    34    33    2
    10     6     7    1
    11    31    27   ar
    12    31    32   ar
    13    27    26   ar
    14    33    32    1
    15    33    35    2
    16    32    21   ar
    17     7     8    1
    18    26    22   ar
    19     9     8    2
    20     8    10   am
    21    21    22   ar
    22    21    15    1
    23    22    23    1
    24    15    14    1
    25    10    11    1
    26    23    25    2
    27    23    24    2
    28    11    14    1
    29    11    12    1
    30    12    16   am
    31    12    13    2
    32    16    17    1
    33    19    18   ar
    34    17    18    1
    35    18    20   ar
