@<TRIPOS>MOLECULE
4gsu_DWZ_A_1.pdb
 26 27 0 0 0
SMALL
GASTEIGER

@<TRIPOS>ATOM
      1  CBE       -7.8320   41.4540    5.0270 C.3   501  DWZ501      0.1149
      2  NBC       -7.2050   42.7660    4.8750 N.am  501  DWZ501     -0.2749
      3  CBD       -6.0080   42.7680    4.0370 C.3   501  DWZ501      0.1149
      4  C         -7.6940   43.8780    5.4460 C.2   501  DWZ501      0.2416
      5  O         -8.5200   44.5860    4.8870 O.2   501  DWZ501     -0.2734
      6  CA        -7.2080   44.2560    6.8260 C.3   501  DWZ501      0.1498
      7  CB        -6.2240   45.4230    6.7650 C.3   501  DWZ501      0.0389
      8  N         -6.4780   43.1890    7.4770 N.3   501  DWZ501     -0.2094
      9  CD        -5.0530   43.4290    7.5790 C.3   501  DWZ501      0.1000
     10  CG        -4.8560   44.9040    7.2220 C.3   501  DWZ501      0.0673
     11  SAK       -3.6700   45.1830    5.9300 S.3   501  DWZ501     -0.1341
     12  CAI       -2.3460   44.0020    6.0110 C.3   501  DWZ501      0.0957
     13  CAH       -1.3960   44.3110    4.8660 C.3   501  DWZ501      0.0387
     14  CAS       -0.8020   43.0320    4.2870 C.3   501  DWZ501      0.0033
     15  CAL       -1.4360   44.2120    7.1860 C.2   501  DWZ501      0.1428
     16  CAM       -1.6290   43.7350    8.5620 C.2   501  DWZ501      0.4014
     17  OAT       -2.1550   42.6160    8.7710 O.co2 501  DWZ501     -0.2392
     18  OAU       -1.2450   44.4530    9.5130 O.co2 501  DWZ501     -0.2392
     19  NAJ       -0.4030   44.8540    6.8670 N.2   501  DWZ501     -0.2688
     20  CAD       -0.3770   45.2890    5.4710 C.3   501  DWZ501      0.1141
     21  CAB        1.0910   45.2030    5.0200 C.3   501  DWZ501      0.1175
     22  CAE        1.3810   45.8370    3.6540 C.3   501  DWZ501      0.1613
     23  CAF        0.9850   47.3100    3.5430 C.3   501  DWZ501      0.0360
     24  OAG        2.7860   45.7390    3.3900 O.3   501  DWZ501     -0.2226
     25  CAA        1.9750   45.8580    6.0710 C.2   501  DWZ501      0.2115
     26  OAC        1.9280   47.0480    6.3900 O.2   501  DWZ501     -0.2882
@<TRIPOS>BOND
     1    24    22    1
     2    23    22    1
     3    22    21    1
     4     3     2    1
     5    14    13    1
     6    13    20    1
     7    13    12    1
     8     2     1    1
     9     2     4   am
    10     5     4    2
    11    21    20    1
    12    21    25    1
    13     4     6    1
    14    20    19    1
    15    11    12    1
    16    11    10    1
    17    12    15    1
    18    25    26    2
    19     7     6    1
    20     7    10    1
    21     6     8    1
    22    19    15    2
    23    15    16    1
    24    10     9    1
    25     8     9    1
    26    16    17   ar
    27    16    18   ar
