@<TRIPOS>MOLECULE
4gsv_ABH_A_1.pdb
 13 12 0 0 0
SMALL
GASTEIGER

@<TRIPOS>ATOM
      1  N         21.6180  -17.6650    4.3410 N.3   403  ABH403      0.0000
      2  CA        21.5850  -17.4230    5.7940 C.3   403  ABH403      0.0000
      3  C         20.4620  -16.4600    6.1410 C.2   403  ABH403      0.0000
      4  O         19.7900  -15.9680    5.2610 O.co2 403  ABH403      0.0000
      5  OT        20.2050  -16.1590    7.4220 O.co2 403  ABH403      0.0000
      6  CB        22.9540  -16.9040    6.3010 C.3   403  ABH403      0.0000
      7  CG        23.3660  -15.6070    5.5840 C.3   403  ABH403      0.0000
      8  CD        24.7130  -15.1140    6.1230 C.3   403  ABH403      0.0000
      9  CE        24.8230  -13.6030    5.8690 C.3   403  ABH403      0.0000
     10  B         26.3410  -13.1290    5.6230 B     403  ABH403      0.0000
     11  O2        26.3660  -11.7680    5.4670 O.3   403  ABH403      0.0000
     12  O1        26.8310  -13.7200    4.4900 O.3   403  ABH403      0.0000
     13  O3        27.1310  -13.4640    6.6890 O.3   403  ABH403      0.0000
@<TRIPOS>BOND
     1     1     2    1
     2    12    10    1
     3     4     3   ar
     4    11    10    1
     5     7     8    1
     6     7     6    1
     7    10     9    1
     8    10    13    1
     9     2     3    1
    10     2     6    1
    11     9     8    1
    12     3     5   ar
