@<TRIPOS>MOLECULE
4gsy_0Y5_A_1.pdb
 36 39 0 0 0
SMALL
GASTEIGER

@<TRIPOS>ATOM
      1  C26       10.4360   -1.8490   26.9760 C.ar  301  0Y5301      0.0031
      2  C19        8.5930    1.3120   31.5470 C.ar  301  0Y5301      0.0094
      3  C27       11.4580   -1.7330   26.0560 C.ar  301  0Y5301      0.0041
      4  C18        7.5450    1.9700   30.9520 C.ar  301  0Y5301     -0.0025
      5  C25       10.2620   -0.8360   27.9070 C.ar  301  0Y5301      0.0375
      6  C22        8.7880    2.1430   28.9040 C.ar  301  0Y5301      0.0348
      7  C29       12.1160    0.3760   26.9800 C.ar  301  0Y5301      0.0413
      8  C20        9.7440    1.0760   30.8280 C.ar  301  0Y5301      0.1142
      9  C17        7.6270    2.3630   29.6260 C.ar  301  0Y5301     -0.0031
     10  C28       12.2990   -0.6310   26.0460 C.ar  301  0Y5301      0.0744
     11  C24       11.0990    0.2680   27.8950 C.ar  301  0Y5301      0.1453
     12  C21        9.8450    1.4950   29.5070 C.ar  301  0Y5301      0.1513
     13  C3         6.0440   -1.1570   25.4220 C.2   301  0Y5301      0.0853
     14  C2         6.5210   -1.8920   24.4060 C.2   301  0Y5301      0.0890
     15  C8         6.4170   -1.2840   23.0520 C.1   301  0Y5301      0.2134
     16  C5         5.4290    0.7530   24.0690 C.1   301  0Y5301      0.2825
     17  C34       10.8300    0.4440   31.5790 C.2   301  0Y5301      0.3907
     18  C12        3.5580    0.6920   28.5700 C.3   301  0Y5301      0.0191
     19  C11        4.0370   -0.0500   27.3240 C.3   301  0Y5301      0.0238
     20  C13        4.7240    1.3610   29.2750 C.3   301  0Y5301      0.0725
     21  C15        6.0520    1.4770   27.2550 C.3   301  0Y5301      0.0935
     22  C10        4.9600    0.8100   26.4490 C.3   301  0Y5301      0.1058
     23  C1         7.1030   -3.2620   24.5520 C.3   301  0Y5301      0.0462
     24  C16        6.4640    3.0610   28.9950 C.3   301  0Y5301      0.0993
     25  C30       13.3780   -0.4880   25.0290 C.3   301  0Y5301      0.4187
     26  N7         5.8600   -0.0090   23.0080 N.2   301  0Y5301     -0.2456
     27  N4         5.5030    0.1180   25.3030 N.am  301  0Y5301     -0.2040
     28  N14        5.4320    2.2550   28.3390 N.3   301  0Y5301     -0.2675
     29  O9         6.8100   -1.8800   22.0620 O.2   301  0Y5301     -0.2088
     30  O6         5.0370    1.9130   23.9200 O.2   301  0Y5301     -0.1919
     31  O35       11.2560    0.9120   32.6250 O.co2 301  0Y5301     -0.2404
     32  O36       11.2710   -0.6930   30.9910 O.co2 301  0Y5301     -0.2404
     33  O23       11.0090    1.3360   28.7760 O.3   301  0Y5301     -0.4533
     34  F31       12.9850   -0.8360   23.7730 F     301  0Y5301     -0.1659
     35  F32       13.8170    0.7830   24.8620 F     301  0Y5301     -0.1659
     36  F33       14.4680   -1.2260   25.3200 F     301  0Y5301     -0.1659
@<TRIPOS>BOND
     1    29    15    2
     2    26    15    2
     3    26    16    2
     4    15    14    1
     5    34    25    1
     6    30    16    2
     7    16    27   am
     8    14    23    1
     9    14    13    2
    10    35    25    1
    11    25    36    1
    12    25    10    1
    13    27    13    1
    14    27    22    1
    15    10     3   ar
    16    10     7   ar
    17     3     1   ar
    18    22    21    1
    19    22    19    1
    20     1     5   ar
    21     7    11   ar
    22    21    28    1
    23    19    18    1
    24    11     5   ar
    25    11    33    1
    26    28    24    1
    27    28    20    1
    28    18    20    1
    29    33    12    1
    30     6    12   ar
    31     6     9   ar
    32    24     9    1
    33    12     8   ar
    34     9     4   ar
    35     8     2   ar
    36     8    17    1
    37     4     2   ar
    38    32    17   ar
    39    17    31   ar
