@<TRIPOS>MOLECULE
4gsz_ABH_A_1.pdb
 13 12 0 0 0
SMALL
GASTEIGER

@<TRIPOS>ATOM
      1  N         21.7080  -18.1670    2.0690 N.3   405  ABH405      0.0000
      2  CA        21.6560  -17.8320    3.5080 C.3   405  ABH405      0.0000
      3  C         20.4960  -16.8820    3.8160 C.2   405  ABH405      0.0000
      4  O         19.8830  -16.3470    2.9200 O.co2 405  ABH405      0.0000
      5  OT        20.1540  -16.6290    5.0880 O.co2 405  ABH405      0.0000
      6  CB        23.0110  -17.2530    3.9840 C.3   405  ABH405      0.0000
      7  CG        23.3300  -15.9000    3.3180 C.3   405  ABH405      0.0000
      8  CD        24.6770  -15.3930    3.8290 C.3   405  ABH405      0.0000
      9  CE        24.7880  -13.8880    3.5480 C.3   405  ABH405      0.0000
     10  B         26.3190  -13.4340    3.3460 B     405  ABH405      0.0000
     11  O2        26.4080  -12.0640    3.3880 O.3   405  ABH405      0.0000
     12  O1        26.7450  -13.8780    2.1320 O.3   405  ABH405      0.0000
     13  O3        27.1170  -13.9610    4.3290 O.3   405  ABH405      0.0000
@<TRIPOS>BOND
     1     1     2    1
     2    12    10    1
     3     4     3   ar
     4     7     8    1
     5     7     6    1
     6    10    11    1
     7    10     9    1
     8    10    13    1
     9     2     3    1
    10     2     6    1
    11     9     8    1
    12     3     5   ar
