@<TRIPOS>MOLECULE
4gt1_DGI_A_1.pdb
 27 29 0 0 0
SMALL
GASTEIGER

@<TRIPOS>ATOM
      1  O1B       23.4060   36.6150  -14.0980 O.3   401  DGI401     -0.1143
      2  PB        22.8880   37.5360  -15.1920 P.3   401  DGI401      0.5373
      3  O2B       21.4420   37.9180  -15.0040 O.3   401  DGI401     -0.1143
      4  O3B       23.1110   36.9760  -16.5470 O.2   401  DGI401     -0.2221
      5  O3A       23.6350   38.9620  -15.1510 O.3   401  DGI401     -0.2261
      6  PA        25.0640   39.3300  -14.4920 P.3   401  DGI401      0.2231
      7  O1A       25.9940   38.3260  -15.0870 O.2   401  DGI401     -0.5169
      8  O2A       25.0630   39.5960  -12.9960 O.3   401  DGI401     -0.4370
      9  O5'       25.2570   40.7670  -15.1130 O.3   401  DGI401     -0.3111
     10  C5'       25.2780   40.9550  -16.5320 C.3   401  DGI401      0.1812
     11  C4'       26.1090   42.1860  -16.8180 C.3   401  DGI401      0.1772
     12  O4'       25.4700   43.3390  -16.2770 O.3   401  DGI401     -0.3347
     13  C3'       27.5020   42.2190  -16.2220 C.3   401  DGI401      0.1857
     14  O3'       28.3070   43.0130  -17.0810 O.3   401  DGI401     -0.2203
     15  C2'       27.3750   43.0070  -14.9570 C.3   401  DGI401      0.0865
     16  C1'       26.2810   43.9900  -15.3500 C.3   401  DGI401      0.1981
     17  N9        25.4800   44.4390  -14.1930 N.pl3 401  DGI401     -0.2374
     18  C8        25.0140   43.6780  -13.1680 C.3   401  DGI401      0.2245
     19  N7        24.3270   44.4410  -12.2900 N.2   401  DGI401     -0.2322
     20  C5        24.3360   45.6990  -12.7490 C.2   401  DGI401      0.2182
     21  C4        25.0860   45.6990  -14.0170 C.2   401  DGI401      0.2299
     22  N3        25.2450   46.8560  -14.7030 N.2   401  DGI401     -0.3074
     23  C2        24.7200   48.0080  -14.2140 C.1   401  DGI401      0.2531
     24  N2        24.8850   49.1470  -14.9250 N.pl3 401  DGI401     -0.0226
     25  N1        24.0140   48.0700  -13.0590 N.2   401  DGI401     -0.2485
     26  C6        23.7970   46.9870  -12.2960 C.1   401  DGI401      0.2372
     27  O6        23.1420   47.0600  -11.2270 O.2   401  DGI401     -0.2069
@<TRIPOS>BOND
     1    14    13    1
     2    11    10    1
     3    11    12    1
     4    11    13    1
     5     4     2    2
     6    10     9    1
     7    12    16    1
     8    13    15    1
     9    16    15    1
    10    16    17    1
    11     2     5    1
    12     2     3    1
    13     2     1    1
    14     5     6    1
    15     9     6    1
    16     7     6    2
    17    24    23    1
    18    22    23    2
    19    22    21    2
    20     6     8    1
    21    23    25    2
    22    17    21    1
    23    17    18    1
    24    21    20    1
    25    18    19    1
    26    25    26    2
    27    20    26    1
    28    20    19    2
    29    26    27    2
