@<TRIPOS>MOLECULE
4gt3_ATP_A_1.pdb
 31 33 0 0 0
SMALL
GASTEIGER

@<TRIPOS>ATOM
      1  PG         2.5840   15.2780   12.0920 P.3   402  ATP402      0.5373
      2  O1G        2.3170   16.4030   11.0660 O.2   402  ATP402     -0.2221
      3  O2G        2.3220   15.7150   13.5220 O.3   402  ATP402     -0.1143
      4  O3G        3.8970   14.5640   11.8220 O.3   402  ATP402     -0.1143
      5  PB         0.3360   13.4850   12.8590 P.3   402  ATP402      0.2277
      6  O1B        0.1020   12.0270   12.3740 O.2   402  ATP402     -0.5168
      7  O2B        0.7430   13.6560   14.3280 O.3   402  ATP402     -0.4368
      8  O3B        1.4030   14.1810   11.8080 O.3   402  ATP402     -0.2258
      9  PA        -1.0660   16.0770   12.9260 P.3   402  ATP402      0.2189
     10  O1A       -0.1290   16.8940   12.0610 O.2   402  ATP402     -0.5170
     11  O2A       -1.0360   16.2730   14.4300 O.3   402  ATP402     -0.4371
     12  O3A       -0.9820   14.4520   12.6500 O.3   402  ATP402     -0.2700
     13  O5'       -2.4970   16.5600   12.3370 O.3   402  ATP402     -0.3112
     14  C5'       -3.0150   17.9030   12.4110 C.3   402  ATP402      0.1813
     15  C4'       -4.3560   17.7820   13.1500 C.3   402  ATP402      0.1821
     16  O4'       -5.1540   16.6390   12.7260 O.3   402  ATP402     -0.3135
     17  C3'       -4.1040   17.5870   14.6430 C.3   402  ATP402      0.2184
     18  O3'       -5.1220   18.2650   15.3820 O.3   402  ATP402     -0.2174
     19  C2'       -4.1950   16.0520   14.8090 C.3   402  ATP402      0.2570
     20  O2'       -4.4990   15.6170   16.1470 O.3   402  ATP402     -0.2130
     21  C1'       -5.2420   15.6400   13.7700 C.3   402  ATP402      0.3186
     22  N9        -5.1300   14.2290   13.2600 N.pl3 402  ATP402     -0.1439
     23  C8        -4.0990   13.5170   12.7610 C.3   402  ATP402      0.3377
     24  N7        -4.4680   12.2710   12.3720 N.2   402  ATP402     -0.2095
     25  C5        -5.8050   12.1860   12.6490 C.2   402  ATP402      0.2526
     26  C6        -6.9070   11.1850   12.5050 C.2   402  ATP402      0.4393
     27  N6        -6.7140    9.9300   12.0330 N.pl3 402  ATP402      0.2180
     28  N1        -8.1360   11.5570   12.9540 N.2   402  ATP402      0.0021
     29  C2        -8.4080   12.7570   13.4670 C.3   402  ATP402      0.5254
     30  N3        -7.4750   13.7150   13.5980 N.2   402  ATP402     -0.0055
     31  C4        -6.1930   13.4740   13.2250 C.2   402  ATP402      0.3518
@<TRIPOS>BOND
     1     2     1    2
     2     8     1    1
     3     8     5    1
     4     4     1    1
     5    27    26    1
     6    10     9    2
     7     1     3    1
     8    13    14    1
     9    13     9    1
    10    24    25    2
    11    24    23    1
    12     6     5    2
    13    14    15    1
    14    26    25    1
    15    26    28    2
    16    25    31    1
    17    12     5    1
    18    12     9    1
    19    16    15    1
    20    16    21    1
    21    23    22    1
    22     5     7    1
    23     9    11    1
    24    28    29    1
    25    15    17    1
    26    31    22    1
    27    31    30    2
    28    22    21    1
    29    29    30    1
    30    21    19    1
    31    17    19    1
    32    17    18    1
    33    19    20    1
