@<TRIPOS>MOLECULE
4gt9_UMP_A_1.pdb
 20 21 0 0 0
SMALL
GASTEIGER

@<TRIPOS>ATOM
      1  N1       -49.5330  -18.1050   27.6120 N.am  302  UMP302     -0.1790
      2  C2       -50.2440  -17.9290   28.7710 C.1   302  UMP302      0.2844
      3  N3       -50.8320  -19.0130   29.3270 N.2   302  UMP302     -0.2452
      4  C4       -50.8270  -20.2460   28.7650 C.1   302  UMP302      0.2182
      5  C5       -50.1540  -20.4110   27.5770 C.2   302  UMP302      0.1242
      6  C6       -49.5110  -19.3310   27.0060 C.2   302  UMP302      0.0928
      7  O2       -50.2270  -16.8230   29.2560 O.2   302  UMP302     -0.1918
      8  O4       -51.4150  -21.1850   29.3600 O.2   302  UMP302     -0.2085
      9  C1'      -48.8160  -16.9310   27.0680 C.3   302  UMP302      0.2090
     10  C2'      -47.5400  -16.6460   27.9060 C.3   302  UMP302      0.0874
     11  C3'      -46.4360  -16.4410   26.8960 C.3   302  UMP302      0.1857
     12  C4'      -46.9050  -17.2130   25.6840 C.3   302  UMP302      0.1774
     13  O3'      -46.4050  -15.0530   26.5210 O.3   302  UMP302     -0.2203
     14  O4'      -48.3570  -17.2280   25.7420 O.3   302  UMP302     -0.3339
     15  C5'      -46.3270  -18.6190   25.5910 C.3   302  UMP302      0.1858
     16  O5'      -46.5470  -19.2730   26.8380 O.3   302  UMP302     -0.2675
     17  P        -46.2150  -20.8540   26.9970 P.3   302  UMP302      0.5327
     18  OP1      -47.2970  -21.5900   26.2390 O.2   302  UMP302     -0.2224
     19  OP2      -46.2740  -21.0750   28.4870 O.3   302  UMP302     -0.1145
     20  OP3      -44.8590  -21.0600   26.3820 O.3   302  UMP302     -0.1145
@<TRIPOS>BOND
     1    15    12    1
     2    15    16    1
     3    12    14    1
     4    12    11    1
     5    14     9    1
     6    18    17    2
     7    20    17    1
     8    13    11    1
     9    16    17    1
    10    11    10    1
    11    17    19    1
    12     6     5    2
    13     6     1    1
    14     9     1    1
    15     9    10    1
    16     5     4    1
    17     1     2   am
    18     4     3    2
    19     4     8    2
    20     2     7    2
    21     2     3    2
