@<TRIPOS>MOLECULE
4gt9_MEF_A_1.pdb
 24 27 0 0 0
SMALL
GASTEIGER

@<TRIPOS>ATOM
      1  N         -7.5810  -18.5240   29.7050 N.am  304  MEF304     -0.0837
      2  C         -6.8400  -18.1340   28.6630 C.2   304  MEF304      0.2842
      3  O         -6.1340  -18.9420   28.0700 O.2   304  MEF304     -0.2667
      4  N10       -7.7380  -12.8880   26.4460 N.pl3 304  MEF304     -0.2923
      5  CM        -9.0720  -12.2610   26.5750 C.3   304  MEF304      0.1706
      6  N5        -8.9030  -11.0340   25.7700 N.3   304  MEF304     -0.2275
      7  C9        -7.3280  -12.6660   25.0420 C.3   304  MEF304      0.1101
      8  C6        -8.1800  -11.4900   24.5590 C.3   304  MEF304      0.1058
      9  C7        -9.1210  -11.9730   23.4530 C.3   304  MEF304      0.1547
     10  N8       -10.0450  -10.8730   23.1870 N.2   304  MEF304     -0.2096
     11  C8A      -10.6590  -10.2690   24.2410 C.1   304  MEF304      0.1050
     12  C4A      -10.1160  -10.3460   25.5130 C.3   304  MEF304      0.2774
     13  N1       -11.8170   -9.5830   24.0400 N.2   304  MEF304     -0.2726
     14  C2       -12.4650   -8.9810   25.0560 C.1   304  MEF304      0.2603
     15  NA2      -13.6280   -8.3200   24.8290 N.pl3 304  MEF304     -0.0221
     16  N3       -11.9580   -9.0450   26.3100 N.2   304  MEF304     -0.2515
     17  C4       -10.7930   -9.6980   26.5460 C.1   304  MEF304      0.2219
     18  O4       -10.3040   -9.7120   27.8040 O.2   304  MEF304     -0.2109
     19  C11       -7.0600  -16.7600   28.0690 C.ar  304  MEF304      0.0567
     20  C12       -8.1200  -15.9650   28.5190 C.ar  304  MEF304      0.0059
     21  C13       -8.3670  -14.6990   27.9910 C.ar  304  MEF304      0.0147
     22  C16       -6.2220  -16.2600   27.0750 C.ar  304  MEF304      0.0059
     23  C15       -6.4550  -14.9850   26.5450 C.ar  304  MEF304      0.0147
     24  C14       -7.5440  -14.1960   26.9780 C.ar  304  MEF304      0.0488
@<TRIPOS>BOND
     1    10     9    1
     2    10    11    2
     3     9     8    1
     4    13    11    2
     5    13    14    2
     6    11    12    1
     7     8     7    1
     8     8     6    1
     9    15    14    1
    10     7     4    1
    11    14    16    2
    12    12     6    1
    13    12    17    1
    14     6     5    1
    15    16    17    2
    16     4     5    1
    17     4    24    1
    18    23    24   ar
    19    23    22   ar
    20    17    18    2
    21    24    21   ar
    22    22    19   ar
    23    21    20   ar
    24    19    20   ar
    25    19     2    1
    26     3     2    2
    27     2     1   am
