@<TRIPOS>MOLECULE
4gta_UMP_A_1.pdb
 20 21 0 0 0
SMALL
GASTEIGER

@<TRIPOS>ATOM
      1  N1       -49.5030  -18.0910   27.7120 N.am  302  UMP302     -0.1790
      2  C2       -50.2340  -17.9410   28.8530 C.1   302  UMP302      0.2844
      3  N3       -50.8270  -18.9900   29.4030 N.2   302  UMP302     -0.2452
      4  C4       -50.7910  -20.2380   28.8220 C.1   302  UMP302      0.2182
      5  C5       -50.1160  -20.3850   27.6240 C.2   302  UMP302      0.1242
      6  C6       -49.4740  -19.3020   27.0930 C.2   302  UMP302      0.0928
      7  O2       -50.2230  -16.8030   29.3650 O.2   302  UMP302     -0.1918
      8  O4       -51.4070  -21.1700   29.3910 O.2   302  UMP302     -0.2085
      9  C1'      -48.7700  -16.9350   27.1590 C.3   302  UMP302      0.2090
     10  C2'      -47.4740  -16.6630   27.9700 C.3   302  UMP302      0.0874
     11  C3'      -46.3790  -16.4350   26.9570 C.3   302  UMP302      0.1857
     12  C4'      -46.8560  -17.1800   25.7300 C.3   302  UMP302      0.1774
     13  O3'      -46.3640  -15.0210   26.6180 O.3   302  UMP302     -0.2203
     14  O4'      -48.2960  -17.2140   25.8210 O.3   302  UMP302     -0.3339
     15  C5'      -46.2620  -18.5920   25.5890 C.3   302  UMP302      0.1858
     16  O5'      -46.4250  -19.2000   26.8570 O.3   302  UMP302     -0.2675
     17  P        -46.1500  -20.8050   27.0480 P.3   302  UMP302      0.5327
     18  OP1      -47.2660  -21.4800   26.2920 O.2   302  UMP302     -0.2224
     19  OP2      -46.1580  -21.0600   28.5240 O.3   302  UMP302     -0.1145
     20  OP3      -44.8150  -21.0230   26.3900 O.3   302  UMP302     -0.1145
@<TRIPOS>BOND
     1    15    12    1
     2    15    16    1
     3    12    14    1
     4    12    11    1
     5    14     9    1
     6    18    17    2
     7    20    17    1
     8    13    11    1
     9    16    17    1
    10    11    10    1
    11    17    19    1
    12     6     5    2
    13     6     1    1
    14     9     1    1
    15     9    10    1
    16     5     4    1
    17     1     2   am
    18     4     8    2
    19     4     3    2
    20     2     7    2
    21     2     3    2
