@<TRIPOS>MOLECULE
4gtb_UMP_A_1.pdb
 20 21 0 0 0
SMALL
GASTEIGER

@<TRIPOS>ATOM
      1  N1       -49.6420  -18.0440   27.8340 N.am  302  UMP302     -0.1790
      2  C2       -50.3800  -17.8720   28.9900 C.1   302  UMP302      0.2844
      3  N3       -50.9900  -18.9560   29.5100 N.2   302  UMP302     -0.2452
      4  C4       -50.9840  -20.1930   28.9600 C.1   302  UMP302      0.2182
      5  C5       -50.3140  -20.3670   27.7530 C.2   302  UMP302      0.1242
      6  C6       -49.6580  -19.2700   27.2180 C.2   302  UMP302      0.0928
      7  O2       -50.4100  -16.7660   29.5470 O.2   302  UMP302     -0.1918
      8  O4       -51.6060  -21.1390   29.5140 O.2   302  UMP302     -0.2085
      9  C1'      -48.9140  -16.9040   27.2610 C.3   302  UMP302      0.2090
     10  C2'      -47.6670  -16.6430   28.0960 C.3   302  UMP302      0.0874
     11  C3'      -46.5880  -16.3820   27.0970 C.3   302  UMP302      0.1857
     12  C4'      -47.0130  -17.1530   25.8600 C.3   302  UMP302      0.1774
     13  O3'      -46.5330  -14.9800   26.7410 O.3   302  UMP302     -0.2203
     14  O4'      -48.4510  -17.1690   25.9380 O.3   302  UMP302     -0.3339
     15  C5'      -46.4280  -18.5780   25.7380 C.3   302  UMP302      0.1858
     16  O5'      -46.5530  -19.2220   26.9980 O.3   302  UMP302     -0.2675
     17  P        -46.3800  -20.8150   27.1460 P.3   302  UMP302      0.5327
     18  OP1      -47.4850  -21.5340   26.4060 O.2   302  UMP302     -0.2224
     19  OP2      -46.3970  -21.0350   28.6580 O.3   302  UMP302     -0.1145
     20  OP3      -45.0340  -21.0890   26.5120 O.3   302  UMP302     -0.1145
@<TRIPOS>BOND
     1    15    12    1
     2    15    16    1
     3    12    14    1
     4    12    11    1
     5    14     9    1
     6    18    17    2
     7    20    17    1
     8    13    11    1
     9    16    17    1
    10    11    10    1
    11    17    19    1
    12     6     5    2
    13     6     1    1
    14     9     1    1
    15     9    10    1
    16     5     4    1
    17     1     2   am
    18     4     3    2
    19     4     8    2
    20     2     3    2
    21     2     7    2
