@<TRIPOS>MOLECULE
4gtc_FAD_A_1.pdb
 35 37 0 0 0
SMALL
GASTEIGER

@<TRIPOS>ATOM
      1  PA        28.0200   47.6630  119.5390 P.3   301  FAD301      0.2189
      2  O1A       28.5910   48.8400  118.6890 O.2   301  FAD301     -0.5170
      3  O2A       28.4650   47.0540  120.8780 O.3   301  FAD301     -0.4371
      4  O5B       27.5300   46.5880  118.4740 O.3   301  FAD301     -0.3112
      5  C5B       26.7940   47.1750  117.3910 C.3   301  FAD301      0.1813
      6  C4B       26.1890   46.0970  116.5370 C.3   301  FAD301      0.1821
      7  O4B       27.2220   45.1500  116.2800 O.3   301  FAD301     -0.3135
      8  C3B       25.0700   45.3800  117.2580 C.3   301  FAD301      0.2184
      9  O3B       23.8350   45.9100  116.7850 O.3   301  FAD301     -0.2174
     10  C2B       25.3160   43.9200  116.9190 C.3   301  FAD301      0.2570
     11  O2B       24.4820   43.5340  115.8240 O.3   301  FAD301     -0.2130
     12  C1B       26.7630   43.8400  116.4600 C.3   301  FAD301      0.3186
     13  N9A       27.7720   43.1750  117.3010 N.pl3 301  FAD301     -0.1439
     14  C8A       28.9630   43.6950  117.7030 C.3   301  FAD301      0.3377
     15  N7A       29.6890   42.7930  118.3810 N.2   301  FAD301     -0.2095
     16  C5A       28.9560   41.6520  118.4000 C.2   301  FAD301      0.2526
     17  C6A       29.1380   40.3800  118.9090 C.2   301  FAD301      0.4393
     18  N6A       30.2710   40.0950  119.5830 N.pl3 301  FAD301      0.2180
     19  N1A       28.1760   39.4750  118.7350 N.2   301  FAD301      0.0021
     20  C2A       27.0090   39.6920  118.0610 C.3   301  FAD301      0.5254
     21  N3A       26.7590   40.9090  117.5180 N.2   301  FAD301     -0.0055
     22  C4A       27.6960   41.9010  117.6660 C.2   301  FAD301      0.3518
     23  C1'       23.4480   48.7570  127.9500 C.3   301  FAD301      0.0383
     24  C2'       23.5120   48.0140  126.6180 C.3   301  FAD301      0.1849
     25  O2'       23.2550   46.6120  126.7440 O.3   301  FAD301     -0.2203
     26  C3'       24.8560   48.0780  125.9130 C.3   301  FAD301      0.2147
     27  O3'       25.4600   49.3520  126.1370 O.3   301  FAD301     -0.2176
     28  C4'       24.5360   47.9260  124.4490 C.3   301  FAD301      0.2145
     29  O4'       23.5700   46.8870  124.3970 O.3   301  FAD301     -0.2176
     30  C5'       25.6700   47.5690  123.4970 C.3   301  FAD301      0.1846
     31  O5'       25.1680   47.9370  122.1890 O.3   301  FAD301     -0.3111
     32  P         25.5310   47.1760  120.7910 P.3   301  FAD301      0.2189
     33  O1P       26.2010   45.8760  121.1640 O.3   301  FAD301     -0.4371
     34  O2P       24.2130   47.1650  119.9660 O.2   301  FAD301     -0.5170
     35  O3P       26.5380   48.2000  120.0530 O.3   301  FAD301     -0.2703
@<TRIPOS>BOND
     1    11    10    1
     2     7    12    1
     3     7     6    1
     4    12    10    1
     5    12    13    1
     6     6     8    1
     7     6     5    1
     8     9     8    1
     9    10     8    1
    10    13    22    1
    11    13    14    1
    12     5     4    1
    13    21    22    2
    14    21    20    1
    15    22    16    1
    16    14    15    1
    17    20    19    1
    18    15    16    2
    19    16    17    1
    20     4     1    1
    21     2     1    2
    22    19    17    2
    23    17    18    1
    24     1    35    1
    25     1     3    1
    26    34    32    2
    27    35    32    1
    28    32    33    1
    29    32    31    1
    30    31    30    1
    31    30    28    1
    32    29    28    1
    33    28    26    1
    34    26    27    1
    35    26    24    1
    36    24    25    1
    37    24    23    1
