@<TRIPOS>MOLECULE
4gtd_UMP_A_1.pdb
 20 21 0 0 0
SMALL
GASTEIGER

@<TRIPOS>ATOM
      1  N1        43.8270   53.0230  129.9450 N.am  301  UMP301     -0.1790
      2  C2        44.0230   51.6340  129.9960 C.1   301  UMP301      0.2844
      3  N3        45.1190   51.1830  130.5920 N.2   301  UMP301     -0.2452
      4  C4        46.0240   51.9920  131.1240 C.1   301  UMP301      0.2182
      5  C5        45.8760   53.3620  131.0800 C.2   301  UMP301      0.1242
      6  C6        44.7420   53.8620  130.4670 C.2   301  UMP301      0.0928
      7  O2        43.1860   50.8360  129.5030 O.2   301  UMP301     -0.1918
      8  O4        47.0080   51.4610  131.6510 O.2   301  UMP301     -0.2085
      9  C1'       42.6280   53.5250  129.2900 C.3   301  UMP301      0.2090
     10  C2'       41.4450   53.0820  130.1150 C.3   301  UMP301      0.0874
     11  C3'       40.6660   54.3680  130.2190 C.3   301  UMP301      0.1857
     12  C4'       41.6530   55.5090  130.0130 C.3   301  UMP301      0.1774
     13  O3'       39.7170   54.3800  129.1380 O.3   301  UMP301     -0.2203
     14  O4'       42.7010   54.9610  129.2590 O.3   301  UMP301     -0.3339
     15  C5'       42.1960   56.1770  131.2800 C.3   301  UMP301      0.1858
     16  O5'       42.6020   55.1290  132.1510 O.3   301  UMP301     -0.2675
     17  P         43.4240   55.5000  133.5110 P.3   301  UMP301      0.5327
     18  OP1       44.8470   55.7780  133.1040 O.2   301  UMP301     -0.2224
     19  OP2       43.2130   54.2130  134.3330 O.3   301  UMP301     -0.1145
     20  OP3       42.7270   56.7320  134.0080 O.3   301  UMP301     -0.1145
@<TRIPOS>BOND
     1    13    11    1
     2    14     9    1
     3    14    12    1
     4     9     1    1
     5     9    10    1
     6     7     2    2
     7     1     2   am
     8     1     6    1
     9     2     3    2
    10    12    11    1
    11    12    15    1
    12    10    11    1
    13     6     5    2
    14     3     4    2
    15     5     4    1
    16     4     8    2
    17    15    16    1
    18    16    17    1
    19    18    17    2
    20    17    20    1
    21    17    19    1
