@<TRIPOS>MOLECULE
4gte_FAD_A_1.pdb
 35 37 0 0 0
SMALL
GASTEIGER

@<TRIPOS>ATOM
      1  PA        28.5580   47.6540  119.3510 P.3   301  FAD301      0.2189
      2  O1A       29.1970   48.8790  118.5710 O.2   301  FAD301     -0.5170
      3  O2A       29.1750   46.9120  120.5050 O.3   301  FAD301     -0.4371
      4  O5B       28.0530   46.6420  118.2240 O.3   301  FAD301     -0.3112
      5  C5B       27.1950   47.1500  117.1960 C.3   301  FAD301      0.1813
      6  C4B       26.5870   45.9290  116.5490 C.3   301  FAD301      0.1821
      7  O4B       27.6570   45.0520  116.1980 O.3   301  FAD301     -0.3135
      8  C3B       25.7340   45.1640  117.5140 C.3   301  FAD301      0.2184
      9  O3B       24.4000   45.6960  117.4890 O.3   301  FAD301     -0.2174
     10  C2B       25.8930   43.7250  117.0440 C.3   301  FAD301      0.2570
     11  O2B       25.0680   43.4530  115.8990 O.3   301  FAD301     -0.2130
     12  C1B       27.3080   43.7160  116.5390 C.3   301  FAD301      0.3186
     13  N9A       28.3690   43.1100  117.3740 N.pl3 301  FAD301     -0.1439
     14  C8A       29.5540   43.6860  117.7300 C.3   301  FAD301      0.3377
     15  N7A       30.3500   42.7940  118.3540 N.2   301  FAD301     -0.2095
     16  C5A       29.6580   41.6010  118.3810 C.2   301  FAD301      0.2526
     17  C6A       29.8950   40.3170  118.8610 C.2   301  FAD301      0.4393
     18  N6A       31.0480   40.0150  119.5020 N.pl3 301  FAD301      0.2180
     19  N1A       28.9710   39.3830  118.6760 N.2   301  FAD301      0.0021
     20  C2A       27.7740   39.6240  118.0530 C.3   301  FAD301      0.5254
     21  N3A       27.4790   40.8350  117.5340 N.2   301  FAD301     -0.0055
     22  C4A       28.3620   41.8390  117.7040 C.2   301  FAD301      0.3518
     23  C1'       24.2300   48.5410  127.1190 C.3   301  FAD301      0.0383
     24  C2'       23.9440   47.3850  126.1790 C.3   301  FAD301      0.1849
     25  O2'       23.8350   46.1810  126.9290 O.3   301  FAD301     -0.2203
     26  C3'       24.9990   47.1310  125.0940 C.3   301  FAD301      0.2147
     27  O3'       26.2230   46.6970  125.6860 O.3   301  FAD301     -0.2176
     28  C4'       25.2900   48.3650  124.2700 C.3   301  FAD301      0.2145
     29  O4'       24.0390   48.9140  123.7820 O.3   301  FAD301     -0.2176
     30  C5'       26.2620   48.0140  123.1360 C.3   301  FAD301      0.1846
     31  O5'       25.5400   48.0000  121.9000 O.3   301  FAD301     -0.3111
     32  P         25.9760   47.0540  120.6700 P.3   301  FAD301      0.2189
     33  O1P       26.4480   45.6980  121.2030 O.3   301  FAD301     -0.4371
     34  O2P       24.7950   47.0880  119.7090 O.2   301  FAD301     -0.5170
     35  O3P       27.1090   48.0580  119.9830 O.3   301  FAD301     -0.2703
@<TRIPOS>BOND
     1    11    10    1
     2     7    12    1
     3     7     6    1
     4    12    10    1
     5    12    13    1
     6     6     5    1
     7     6     8    1
     8    10     8    1
     9     5     4    1
    10    13    22    1
    11    13    14    1
    12     9     8    1
    13    21    22    2
    14    21    20    1
    15    22    16    1
    16    14    15    1
    17    20    19    1
    18     4     1    1
    19    15    16    2
    20    16    17    1
    21     2     1    2
    22    19    17    2
    23    17    18    1
    24     1    35    1
    25     1     3    1
    26    34    32    2
    27    35    32    1
    28    32    33    1
    29    32    31    1
    30    31    30    1
    31    30    28    1
    32    29    28    1
    33    28    26    1
    34    26    27    1
    35    26    24    1
    36    24    25    1
    37    24    23    1
