@<TRIPOS>MOLECULE
4gte_MEF_B_1.pdb
 15 17 0 0 0
SMALL
GASTEIGER

@<TRIPOS>ATOM
      1  N10       50.6970   31.3750  102.3220 N.2   302  MEF302     -0.2520
      2  CM        49.2720   30.9600  102.3280 C.2   302  MEF302      0.1604
      3  N5        48.5500   31.7880  103.3120 N.pl3 302  MEF302     -0.2638
      4  C9        50.8910   32.5070  103.2690 C.3   302  MEF302      0.1488
      5  C6        49.5070   32.8440  103.8010 C.3   302  MEF302      0.1255
      6  C7        49.1470   34.2810  103.4480 C.3   302  MEF302      0.1588
      7  N8        47.7700   34.3700  103.9070 N.2   302  MEF302     -0.2090
      8  C8A       46.8660   33.5470  103.2890 C.1   302  MEF302      0.1088
      9  C4A       47.2370   32.2420  102.9400 C.3   302  MEF302      0.2927
     10  N1        45.6330   34.0310  102.9750 N.2   302  MEF302     -0.2723
     11  C2        44.7220   33.2740  102.3500 C.1   302  MEF302      0.2603
     12  NA2       43.5380   33.8640  102.1160 N.pl3 302  MEF302     -0.0221
     13  N3        45.0180   31.9780  102.0070 N.2   302  MEF302     -0.2512
     14  C4        46.2630   31.4530  102.2950 C.1   302  MEF302      0.2256
     15  O4        46.5490   30.1670  101.9450 O.2   302  MEF302     -0.2106
@<TRIPOS>BOND
     1    15    14    2
     2    13    14    2
     3    13    11    2
     4    12    11    1
     5    14     9    1
     6     1     2    2
     7     1     4    1
     8     2     3    1
     9    11    10    2
    10     9     8    1
    11     9     3    1
    12    10     8    2
    13     4     5    1
    14     8     7    2
    15     3     5    1
    16     6     5    1
    17     6     7    1
