@<TRIPOS>MOLECULE
4gtf_MEF_A_1.pdb
 24 27 0 0 0
SMALL
GASTEIGER

@<TRIPOS>ATOM
      1  N        -55.8710  -24.5780   16.4870 N.am  303  MEF303     -0.0837
      2  C        -55.0920  -23.5070   16.3530 C.2   303  MEF303      0.2842
      3  O        -54.2450  -23.4580   15.4690 O.2   303  MEF303     -0.2667
      4  N10      -54.6440  -20.1790   21.0070 N.pl3 303  MEF303     -0.2923
      5  CM       -55.6960  -20.0160   22.0060 C.3   303  MEF303      0.1706
      6  N5       -54.8420  -19.5350   23.1220 N.3   303  MEF303     -0.2275
      7  C9       -53.8130  -18.9930   21.0240 C.3   303  MEF303      0.1101
      8  C6       -53.9580  -18.5450   22.4990 C.3   303  MEF303      0.1058
      9  C7       -54.5090  -17.1190   22.4910 C.3   303  MEF303      0.1547
     10  N8       -54.8680  -16.8090   23.8590 N.2   303  MEF303     -0.2096
     11  C8A      -55.4810  -17.7210   24.6260 C.1   303  MEF303      0.1050
     12  C4A      -55.5340  -19.0560   24.2700 C.3   303  MEF303      0.2774
     13  N1       -56.1300  -17.2670   25.7270 N.2   303  MEF303     -0.2726
     14  C2       -56.7760  -18.1170   26.5220 C.1   303  MEF303      0.2603
     15  NA2      -57.3900  -17.5910   27.5970 N.pl3 303  MEF303     -0.0221
     16  N3       -56.8540  -19.4270   26.2090 N.2   303  MEF303     -0.2515
     17  C4       -56.2120  -19.8970   25.1270 C.1   303  MEF303      0.2219
     18  O4       -56.3100  -21.2080   24.8830 O.2   303  MEF303     -0.2109
     19  C11      -54.9630  -22.6150   17.5970 C.ar  303  MEF303      0.0567
     20  C12      -55.8570  -22.7840   18.6450 C.ar  303  MEF303      0.0059
     21  C13      -55.7780  -21.9660   19.7770 C.ar  303  MEF303      0.0147
     22  C16      -54.0040  -21.6310   17.6700 C.ar  303  MEF303      0.0059
     23  C15      -53.9280  -20.8080   18.8010 C.ar  303  MEF303      0.0147
     24  C14      -54.8250  -20.9570   19.8250 C.ar  303  MEF303      0.0488
@<TRIPOS>BOND
     1     3     2    2
     2     2     1   am
     3     2    19    1
     4    19    22   ar
     5    19    20   ar
     6    22    23   ar
     7    20    21   ar
     8    23    24   ar
     9    21    24   ar
    10    24     4    1
    11     4     7    1
    12     4     5    1
    13     7     8    1
    14     5     6    1
    15     9     8    1
    16     9    10    1
    17     8     6    1
    18     6    12    1
    19    10    11    2
    20    12    11    1
    21    12    17    1
    22    11    13    2
    23    18    17    2
    24    17    16    2
    25    13    14    2
    26    16    14    2
    27    14    15    1
