@<TRIPOS>MOLECULE
4gtf_UMP_A_1.pdb
 20 21 0 0 0
SMALL
GASTEIGER

@<TRIPOS>ATOM
      1  N1       -49.1840  -17.9850   28.0080 N.am  302  UMP302     -0.1790
      2  C2       -49.9150  -17.7980   29.1660 C.1   302  UMP302      0.2844
      3  N3       -50.5440  -18.8740   29.6610 N.2   302  UMP302     -0.2452
      4  C4       -50.5550  -20.1000   29.0890 C.1   302  UMP302      0.2182
      5  C5       -49.8520  -20.2970   27.8970 C.2   302  UMP302      0.1242
      6  C6       -49.1940  -19.1820   27.3820 C.2   302  UMP302      0.0928
      7  O2       -49.9360  -16.6740   29.7110 O.2   302  UMP302     -0.1918
      8  O4       -51.1800  -21.0330   29.6340 O.2   302  UMP302     -0.2085
      9  C1'      -48.4490  -16.8280   27.4770 C.3   302  UMP302      0.2090
     10  C2'      -47.1840  -16.5720   28.2830 C.3   302  UMP302      0.0874
     11  C3'      -46.0740  -16.3420   27.2740 C.3   302  UMP302      0.1857
     12  C4'      -46.5480  -17.0980   26.0460 C.3   302  UMP302      0.1774
     13  O3'      -45.9850  -14.9340   26.9710 O.3   302  UMP302     -0.2203
     14  O4'      -47.9800  -17.1200   26.1620 O.3   302  UMP302     -0.3339
     15  C5'      -45.9600  -18.5110   25.8960 C.3   302  UMP302      0.1858
     16  O5'      -46.1430  -19.1650   27.1460 O.3   302  UMP302     -0.2675
     17  P        -45.8990  -20.7370   27.3360 P.3   302  UMP302      0.5327
     18  OP1      -45.9510  -21.0270   28.8280 O.3   302  UMP302     -0.1145
     19  OP2      -46.9440  -21.4700   26.5160 O.2   302  UMP302     -0.2224
     20  OP3      -44.5420  -21.0180   26.7220 O.3   302  UMP302     -0.1145
@<TRIPOS>BOND
     1    15    12    1
     2    15    16    1
     3    12    14    1
     4    12    11    1
     5    14     9    1
     6    19    17    2
     7    20    17    1
     8    13    11    1
     9    16    17    1
    10    11    10    1
    11    17    18    1
    12     6     5    2
    13     6     1    1
    14     9     1    1
    15     9    10    1
    16     5     4    1
    17     1     2   am
    18     4     8    2
    19     4     3    2
    20     2     3    2
    21     2     7    2
