@<TRIPOS>MOLECULE
4gtl_FAD_B_1.pdb
 35 37 0 0 0
SMALL
GASTEIGER

@<TRIPOS>ATOM
      1  PA        40.3500   40.6580  109.6960 P.3   301  FAD301      0.2189
      2  O1A       40.1550   42.1480  109.0760 O.2   301  FAD301     -0.5170
      3  O2A       39.2820   39.5600  109.5050 O.3   301  FAD301     -0.4371
      4  O5B       40.7380   40.8380  111.2580 O.3   301  FAD301     -0.3112
      5  C5B       41.8630   41.7210  111.5520 C.3   301  FAD301      0.1813
      6  C4B       42.2320   41.8470  113.0390 C.3   301  FAD301      0.1821
      7  O4B       41.0150   41.7420  113.7750 O.3   301  FAD301     -0.3135
      8  C3B       43.2260   40.8150  113.6230 C.3   301  FAD301      0.2184
      9  O3B       44.4420   41.4330  114.1480 O.3   301  FAD301     -0.2174
     10  C2B       42.4560   40.0750  114.7230 C.3   301  FAD301      0.2570
     11  O2B       43.1780   40.2290  115.9600 O.3   301  FAD301     -0.2130
     12  C1B       41.0740   40.7380  114.7910 C.3   301  FAD301      0.3186
     13  N9A       39.8170   39.9830  114.5780 N.pl3 301  FAD301     -0.1439
     14  C8A       38.8290   40.3240  113.6960 C.3   301  FAD301      0.3377
     15  N7A       37.7610   39.5020  113.7910 N.2   301  FAD301     -0.2095
     16  C5A       38.0600   38.6180  114.7870 C.2   301  FAD301      0.2526
     17  C6A       37.4180   37.5250  115.3740 C.2   301  FAD301      0.4393
     18  N6A       36.1870   37.1470  114.9320 N.pl3 301  FAD301      0.2180
     19  N1A       38.0500   36.8470  116.3910 N.2   301  FAD301      0.0021
     20  C2A       39.2820   37.1900  116.8480 C.3   301  FAD301      0.5254
     21  N3A       39.9690   38.2270  116.3400 N.2   301  FAD301     -0.0055
     22  C4A       39.4140   38.9530  115.3110 C.2   301  FAD301      0.3518
     23  C1'       43.9370   33.9900  104.9480 C.3   301  FAD301      0.0383
     24  C2'       43.9730   34.0620  106.4680 C.3   301  FAD301      0.1849
     25  O2'       43.6510   32.7450  106.9560 O.3   301  FAD301     -0.2203
     26  C3'       43.0370   35.1260  107.1080 C.3   301  FAD301      0.2147
     27  O3'       41.7180   34.6190  107.2730 O.3   301  FAD301     -0.2176
     28  C4'       42.8160   36.4290  106.3460 C.3   301  FAD301      0.2145
     29  O4'       44.0170   36.8390  105.6810 O.3   301  FAD301     -0.2176
     30  C5'       42.2460   37.5270  107.2710 C.3   301  FAD301      0.1846
     31  O5'       43.1220   37.9410  108.3420 O.3   301  FAD301     -0.3111
     32  P         42.6270   38.7130  109.7100 P.3   301  FAD301      0.2189
     33  O1P       41.7160   37.7390  110.4250 O.3   301  FAD301     -0.4371
     34  O2P       43.9240   39.2050  110.3580 O.2   301  FAD301     -0.5170
     35  O3P       41.7980   40.0430  109.2060 O.3   301  FAD301     -0.2703
@<TRIPOS>BOND
     1    23    24    1
     2    29    28    1
     3    28    26    1
     4    28    30    1
     5    24    25    1
     6    24    26    1
     7    26    27    1
     8    30    31    1
     9    31    32    1
    10     2     1    2
    11    35     1    1
    12    35    32    1
    13     3     1    1
    14     1     4    1
    15    32    34    2
    16    32    33    1
    17     4     5    1
    18     5     6    1
    19     6     8    1
    20     6     7    1
    21     8     9    1
    22     8    10    1
    23    14    15    1
    24    14    13    1
    25     7    12    1
    26    15    16    2
    27    13    12    1
    28    13    22    1
    29    10    12    1
    30    10    11    1
    31    16    22    1
    32    16    17    1
    33    18    17    1
    34    22    21    2
    35    17    19    2
    36    21    20    1
    37    19    20    1
