@<TRIPOS>MOLECULE
4gtm_FPP_B_1.pdb
 24 23 0 0 0
SMALL
GASTEIGER

@<TRIPOS>ATOM
      1  C1        53.5610  -42.8200    2.0700 C.3   502  FPP502      0.1747
      2  O1        52.6470  -43.4260    3.0220 O.3   502  FPP502     -0.3089
      3  C2        54.6140  -43.7130    1.8120 C.2   502  FPP502     -0.0024
      4  C3        54.9640  -44.3570    0.6230 C.2   502  FPP502     -0.0454
      5  C4        54.1300  -44.0690   -0.6310 C.3   502  FPP502      0.0261
      6  C5        56.1830  -45.3470    0.5030 C.3   502  FPP502      0.0264
      7  C6        56.8760  -45.8400    1.8270 C.3   502  FPP502      0.0297
      8  C7        58.0600  -46.5830    1.6280 C.2   502  FPP502     -0.0342
      9  C8        58.8000  -47.2790    2.6040 C.2   502  FPP502     -0.0478
     10  C10       58.3180  -47.2620    4.0510 C.3   502  FPP502      0.0260
     11  C9        60.1020  -48.0560    2.2790 C.3   502  FPP502      0.0263
     12  C11       59.9020  -49.5810    2.2400 C.3   502  FPP502      0.0297
     13  C12       61.1030  -50.3040    2.2800 C.2   502  FPP502     -0.0342
     14  C13       61.6890  -51.1590    1.3230 C.2   502  FPP502     -0.0478
     15  C14       63.0270  -51.8350    1.6550 C.3   502  FPP502      0.0260
     16  C15       61.0320  -51.4450   -0.0510 C.3   502  FPP502      0.0260
     17  PA        51.2770  -42.7690    3.7030 P.3   502  FPP502      0.2233
     18  O1A       50.2300  -43.8240    3.7150 O.3   502  FPP502     -0.4370
     19  O2A       50.9110  -41.4430    3.1410 O.2   502  FPP502     -0.5169
     20  O3A       51.7760  -42.6300    5.2710 O.3   502  FPP502     -0.2261
     21  PB        52.5100  -41.3000    5.9280 P.3   502  FPP502      0.5373
     22  O1B       53.7330  -40.8470    4.9550 O.2   502  FPP502     -0.2221
     23  O2B       51.3780  -40.2150    5.8270 O.3   502  FPP502     -0.1143
     24  O3B       52.9300  -41.5540    7.3150 O.3   502  FPP502     -0.1143
@<TRIPOS>BOND
     1     5     4    1
     2    16    14    1
     3     6     4    1
     4     6     7    1
     5     4     3    2
     6    14    15    1
     7    14    13    2
     8     8     7    1
     9     8     9    2
    10     3     1    1
    11     1     2    1
    12    12    11    1
    13    12    13    1
    14    11     9    1
    15     9    10    1
    16     2    17    1
    17    19    17    2
    18    17    18    1
    19    17    20    1
    20    22    21    2
    21    20    21    1
    22    23    21    1
    23    21    24    1
