@<TRIPOS>MOLECULE
4gtm_7TM_B_1.pdb
 48 52 0 0 0
SMALL
GASTEIGER

@<TRIPOS>ATOM
      1  CAA       57.4680  -59.6270   -1.2570 C.3   503  7TM503      0.0000
      2  CAV       56.7320  -59.0250   -2.4830 C.3   503  7TM503      0.0000
      3  CAW       56.4990  -57.5470   -2.2700 C.3   503  7TM503      0.0001
      4  CAX       56.0070  -56.7900   -3.5000 C.3   503  7TM503      0.0018
      5  CAY       56.2760  -55.2790   -3.3110 C.3   503  7TM503      0.0235
      6  CAZ       55.9700  -54.8110   -1.8780 C.3   503  7TM503      0.1187
      7  NBF       56.4570  -53.4420   -1.6770 N.am  503  7TM503     -0.1684
      8  CBI       57.7020  -53.0910   -1.2820 C.2   503  7TM503      0.4257
      9  OAE       58.6190  -53.8730   -1.0140 O.2   503  7TM503     -0.2241
     10  OBH       57.9850  -51.7630   -1.1250 O.3   503  7TM503     -0.4091
     11  CBM       57.2310  -51.3490   -0.0610 C.ar  503  7TM503      0.1501
     12  CAM       56.4590  -50.1980   -0.1860 C.ar  503  7TM503      0.0373
     13  CAK       55.6830  -49.7830    0.8920 C.ar  503  7TM503     -0.0011
     14  CAL       57.2150  -52.0940    1.1330 C.ar  503  7TM503      0.0373
     15  CAJ       56.4510  -51.6680    2.2100 C.ar  503  7TM503     -0.0011
     16  CBK       55.6910  -50.5180    2.0710 C.ar  503  7TM503     -0.0205
     17  CBA       54.8440  -50.0530    3.2260 C.3   503  7TM503      0.0458
     18  CBR       53.3540  -50.4240    3.0720 C.3   503  7TM503      0.1039
     19  CBD       52.7680  -49.9580    4.4000 C.3   503  7TM503      0.1091
     20  NBS       51.5290  -50.5700    4.9010 N.pl3 503  7TM503     -0.3011
     21  CBC       50.4930  -49.5680    5.0700 C.3   503  7TM503      0.1368
     22  CBP       50.8770  -48.7550    6.3270 C.ar  503  7TM503      0.0778
     23  CAS       51.9550  -48.8830    7.1050 C.ar  503  7TM503      0.1150
     24  NBE       51.8730  -47.9900    8.1020 N.ar  503  7TM503     -0.2226
     25  CAT       50.7560  -47.2900    7.9460 C.ar  503  7TM503      0.1784
     26  NBU       50.1580  -47.7750    6.8590 N.ar  503  7TM503     -0.3089
     27  CAC       48.8630  -47.3070    6.3050 C.3   503  7TM503      0.1318
     28  CBQ       51.4310  -51.8400    5.3270 C.ar  503  7TM503      0.0455
     29  CAR       50.4720  -52.0890    6.3300 C.ar  503  7TM503      0.0149
     30  CAI       50.3320  -53.3610    6.8710 C.ar  503  7TM503      0.0115
     31  CBJ       51.1500  -54.4010    6.4260 C.ar  503  7TM503      0.0683
     32  CAH       51.0500  -55.7410    6.9490 C.1   503  7TM503      0.1004
     33  NAD       51.0340  -56.8150    7.3390 N.1   503  7TM503     -0.1908
     34  CAU       52.0970  -54.1520    5.4390 C.ar  503  7TM503      0.0086
     35  CBN       52.2500  -52.8800    4.8990 C.ar  503  7TM503      0.0095
     36  CBB       53.3770  -52.8390    3.8510 C.3   503  7TM503      0.1233
     37  NBT       53.2470  -51.8800    2.7300 N.3   503  7TM503     -0.1504
     38  SBV       52.0590  -52.2290    1.5620 S.O2  503  7TM503      0.0636
     39  OAF       52.0830  -51.1510    0.5050 O.2   503  7TM503     -0.1528
     40  OAG       52.4040  -53.5640    0.9360 O.2   503  7TM503     -0.1528
     41  CBO       50.3920  -52.2850    2.2110 C.ar  503  7TM503      0.1224
     42  CAP       49.6210  -51.1290    2.2260 C.ar  503  7TM503      0.0230
     43  CAN       48.3350  -51.1670    2.7570 C.ar  503  7TM503      0.0383
     44  CBL       47.8020  -52.3460    3.2700 C.ar  503  7TM503      0.1388
     45  OBG       46.5320  -52.3480    3.7680 O.3   503  7TM503     -0.4714
     46  CAB       46.5170  -52.6240    5.1730 C.3   503  7TM503      0.2525
     47  CAO       48.5600  -53.5090    3.2580 C.ar  503  7TM503      0.0383
     48  CAQ       49.8470  -53.4680    2.7210 C.ar  503  7TM503      0.0230
@<TRIPOS>BOND
     1     4     5    1
     2     4     3    1
     3     5     6    1
     4     2     3    1
     5     2     1    1
     6     6     7    1
     7     7     8   am
     8     8    10    1
     9     8     9    2
    10    10    11    1
    11    12    11   ar
    12    12    13   ar
    13    11    14   ar
    14    39    38    2
    15    13    16   ar
    16    40    38    2
    17    14    15   ar
    18    38    41    1
    19    38    37    1
    20    16    15   ar
    21    16    17    1
    22    41    42   ar
    23    41    48   ar
    24    42    43   ar
    25    48    47   ar
    26    37    18    1
    27    37    36    1
    28    43    44   ar
    29    18    17    1
    30    18    19    1
    31    47    44   ar
    32    44    45    1
    33    45    46    1
    34    36    35    1
    35    19    20    1
    36    35    28   ar
    37    35    34   ar
    38    20    21    1
    39    20    28    1
    40    21    22    1
    41    28    29   ar
    42    34    31   ar
    43    27    26    1
    44    22    26   ar
    45    22    23   ar
    46    29    30   ar
    47    31    30   ar
    48    31    32    1
    49    26    25   ar
    50    32    33    3
    51    23    24   ar
    52    25    24   ar
