@<TRIPOS>MOLECULE
4gto_7TO_B_1.pdb
 46 50 0 0 0
SMALL
GASTEIGER

@<TRIPOS>ATOM
      1  CAA      -22.5130   66.9580    3.0170 C.3   502  7TO502      0.2525
      2  OBD      -21.2820   66.5610    3.6500 O.3   502  7TO502     -0.4714
      3  CBH      -20.6650   67.6250    4.2380 C.ar  502  7TO502      0.1388
      4  CAR      -21.3180   68.8530    4.3200 C.ar  502  7TO502      0.0383
      5  CAT      -20.6870   69.9300    4.9230 C.ar  502  7TO502      0.0230
      6  CAQ      -19.3780   67.4880    4.7640 C.ar  502  7TO502      0.0383
      7  CAS      -18.7430   68.5740    5.3720 C.ar  502  7TO502      0.0230
      8  CBK      -19.3970   69.8070    5.4360 C.ar  502  7TO502      0.1224
      9  SBT      -18.6730   71.2380    6.1800 S.O2  502  7TO502      0.0636
     10  OAF      -17.8220   70.8400    7.3510 O.2   502  7TO502     -0.1528
     11  OAG      -19.8010   72.0940    6.6750 O.2   502  7TO502     -0.1528
     12  NBP      -17.7060   72.2360    5.1890 N.3   502  7TO502     -0.1504
     13  CAZ      -18.3830   72.8560    4.0240 C.3   502  7TO502      0.1233
     14  CBJ      -18.8780   71.8650    2.9830 C.ar  502  7TO502      0.0095
     15  CAX      -20.1350   72.2100    2.4880 C.ar  502  7TO502      0.0086
     16  CBF      -20.7030   71.4190    1.5120 C.ar  502  7TO502      0.0683
     17  CAK      -21.9840   71.7160    0.9700 C.1   502  7TO502      0.1004
     18  NAC      -23.0010   71.9300    0.5150 N.1   502  7TO502     -0.1908
     19  CAL      -20.0460   70.2900    1.0450 C.ar  502  7TO502      0.0115
     20  CAU      -18.8040   69.9360    1.5440 C.ar  502  7TO502      0.0149
     21  CBM      -18.2070   70.7340    2.5220 C.ar  502  7TO502      0.0455
     22  NBO      -16.9910   70.3310    2.9170 N.pl3 502  7TO502     -0.3011
     23  CBA      -16.5540   68.9260    2.7160 C.3   502  7TO502      0.1368
     24  CBL      -15.7930   68.7940    1.3870 C.ar  502  7TO502      0.0778
     25  CAV      -15.7880   69.6570    0.3640 C.ar  502  7TO502      0.1150
     26  NBC      -15.0140   69.1590   -0.5990 N.ar  502  7TO502     -0.2226
     27  CAW      -14.5290   67.9830   -0.1800 C.ar  502  7TO502      0.1784
     28  NBQ      -15.0120   67.7750    1.0360 N.ar  502  7TO502     -0.3089
     29  CAB      -14.7220   66.5680    1.8860 C.3   502  7TO502      0.1318
     30  CBB      -16.0040   71.2650    3.4960 C.3   502  7TO502      0.1091
     31  CBN      -16.3420   71.6850    4.9500 C.3   502  7TO502      0.1039
     32  CAY      -15.2640   72.6280    5.5570 C.3   502  7TO502      0.0458
     33  CBG      -15.2590   74.1440    5.2280 C.ar  502  7TO502     -0.0205
     34  CAN      -15.9680   75.0860    5.9850 C.ar  502  7TO502     -0.0010
     35  CAP      -15.9020   76.4590    5.6690 C.ar  502  7TO502      0.0395
     36  CAM      -14.4610   74.6130    4.1840 C.ar  502  7TO502     -0.0010
     37  CAO      -14.3990   75.9810    3.8720 C.ar  502  7TO502      0.0395
     38  CBI      -15.1040   76.9360    4.6130 C.ar  502  7TO502      0.1717
     39  OBE      -15.0440   78.2950    4.2860 O.3   502  7TO502     -0.3547
     40  SBS      -13.8100   79.1240    4.5530 S.3   502  7TO502      0.1181
     41  OAD      -13.7970   80.3270    3.6630 O.3   502  7TO502     -0.0538
     42  OAE      -12.5160   78.4010    4.3390 O.3   502  7TO502     -0.0538
     43  CBR      -13.8560   79.7780    6.2590 C.3   502  7TO502      0.5344
     44  FAI      -14.0780   78.7760    7.1200 F     502  7TO502     -0.1494
     45  FAJ      -12.6980   80.3950    6.5050 F     502  7TO502     -0.1494
     46  FAH      -14.8410   80.6680    6.3580 F     502  7TO502     -0.1494
@<TRIPOS>BOND
     1    26    27   ar
     2    26    25   ar
     3    27    28   ar
     4    25    24   ar
     5    18    17    3
     6    17    16    1
     7    28    24   ar
     8    28    29    1
     9    19    16   ar
    10    19    20   ar
    11    24    23    1
    12    16    15   ar
    13    20    21   ar
    14    15    14   ar
    15    21    22    1
    16    21    14   ar
    17    23    22    1
    18    22    30    1
    19    14    13    1
    20     1     2    1
    21    30    31    1
    22     2     3    1
    23    41    40    1
    24    37    36   ar
    25    37    38   ar
    26    13    12    1
    27    36    33   ar
    28     3     4   ar
    29     3     6   ar
    30    39    40    1
    31    39    38    1
    32     4     5   ar
    33    42    40    1
    34    40    43    1
    35    38    35   ar
    36     6     7   ar
    37     5     8   ar
    38    31    12    1
    39    31    32    1
    40    12     9    1
    41    33    32    1
    42    33    34   ar
    43     7     8   ar
    44     8     9    1
    45    35    34   ar
    46     9    11    2
    47     9    10    2
    48    43    46    1
    49    43    45    1
    50    43    44    1
