@<TRIPOS>MOLECULE
4gto_FPP_B_1.pdb
 14 13 0 0 0
SMALL
GASTEIGER

@<TRIPOS>ATOM
      1  C1        -9.7730   67.6630    4.9610 C.3   503  FPP503      0.1747
      2  O1       -10.9920   67.0080    4.5260 O.3   503  FPP503     -0.3089
      3  C2       -10.0380   68.9470    5.4490 C.2   503  FPP503     -0.0024
      4  C3       -10.5800   69.2380    6.6940 C.2   503  FPP503     -0.0454
      5  C4       -10.9420   68.1190    7.6660 C.3   503  FPP503      0.0261
      6  C5       -10.8280   70.6760    7.1130 C.3   503  FPP503      0.0261
      7  PA       -10.9790   65.7050    3.5140 P.3   503  FPP503      0.2233
      8  O1A      -12.3350   65.0830    3.4190 O.2   503  FPP503     -0.5169
      9  O2A       -9.8330   64.8190    3.8370 O.3   503  FPP503     -0.4370
     10  O3A      -10.6570   66.4770    2.1170 O.3   503  FPP503     -0.2261
     11  PB        -9.3570   66.1190    1.1880 P.3   503  FPP503      0.5373
     12  O1B       -9.6420   66.5510   -0.2080 O.2   503  FPP503     -0.2221
     13  O2B       -8.1230   66.9010    1.9260 O.3   503  FPP503     -0.1143
     14  O3B       -9.0940   64.5380    1.3290 O.3   503  FPP503     -0.1143
@<TRIPOS>BOND
     1    12    11    2
     2    11    14    1
     3    11    13    1
     4    11    10    1
     5    10     7    1
     6     8     7    2
     7     7     9    1
     8     7     2    1
     9     2     1    1
    10     1     3    1
    11     3     4    2
    12     4     6    1
    13     4     5    1
