@<TRIPOS>MOLECULE
4gtp_7TP_B_1.pdb
 44 49 0 0 0
SMALL
GASTEIGER

@<TRIPOS>ATOM
      1  CAA       45.5410   50.7560   -4.1330 C.3   503  7TP503      0.2525
      2  OBB       46.1320   52.0790   -3.8240 O.3   503  7TP503     -0.4714
      3  CBG       47.4250   52.0550   -3.2990 C.ar  503  7TP503      0.1388
      4  CAN       48.1640   53.2280   -3.2240 C.ar  503  7TP503      0.0383
      5  CAQ       49.4660   53.2550   -2.7060 C.ar  503  7TP503      0.0230
      6  CAM       48.0300   50.8850   -2.8350 C.ar  503  7TP503      0.0383
      7  CAP       49.3370   50.9000   -2.3230 C.ar  503  7TP503      0.0230
      8  CBJ       50.0810   52.0900   -2.2510 C.ar  503  7TP503      0.1224
      9  SBR       51.7770   52.0380   -1.6390 S.O2  503  7TP503      0.0636
     10  OAD       51.7880   50.9710   -0.6220 O.2   503  7TP503     -0.1528
     11  OAE       52.3520   53.3670   -1.0790 O.2   503  7TP503     -0.1528
     12  NBP       52.9520   51.6720   -2.7750 N.3   503  7TP503     -0.1504
     13  CAX       52.9190   52.5570   -3.9270 C.3   503  7TP503      0.1233
     14  CBI       51.7210   52.3690   -4.8120 C.ar  503  7TP503      0.0090
     15  CAV       51.3820   53.5800   -5.2850 C.ar  503  7TP503      0.0014
     16  CBH       50.3150   53.6060   -6.1390 C.ar  503  7TP503      0.0344
     17  CBL       49.9250   54.8340   -6.5490 C.ar  503  7TP503      0.1449
     18  OBC       50.7830   55.8000   -6.8890 O.2   503  7TP503     -0.4551
     19  CAR       48.6660   55.2480   -6.5210 C.ar  503  7TP503      0.0403
     20  CAL       48.6810   56.5080   -6.9190 C.ar  503  7TP503      0.0388
     21  CBF       49.9700   56.8170   -7.1190 C.ar  503  7TP503      0.1561
     22  CAG       50.3950   58.1450   -7.6550 C.3   503  7TP503      0.2458
     23  OAC       49.9240   58.4300   -8.7740 O.3   503  7TP503     -0.2117
     24  CAO       49.5740   52.5080   -6.5050 C.ar  503  7TP503      0.0043
     25  CAS       49.9110   51.2940   -6.0140 C.ar  503  7TP503      0.0143
     26  CBM       50.9950   51.2430   -5.1590 C.ar  503  7TP503      0.0455
     27  NBO       51.2890   50.0230   -4.7890 N.pl3 503  7TP503     -0.3011
     28  CAY       50.2940   48.9450   -4.9020 C.3   503  7TP503      0.1368
     29  CBK       50.6240   48.2100   -6.1920 C.ar  503  7TP503      0.0778
     30  CAT       51.6050   48.5550   -7.0520 C.ar  503  7TP503      0.1150
     31  NBA       51.5930   47.6980   -8.0680 N.ar  503  7TP503     -0.2226
     32  CAU       50.6040   46.8210   -7.8470 C.ar  503  7TP503      0.1784
     33  NBQ       49.9960   47.1430   -6.6900 N.ar  503  7TP503     -0.3089
     34  CAB       48.8020   46.4050   -6.0970 C.3   503  7TP503      0.1318
     35  CAZ       52.6740   49.6810   -4.4190 C.3   503  7TP503      0.1091
     36  CBN       53.2380   50.2520   -3.1030 C.3   503  7TP503      0.1039
     37  CAW       54.7970   50.0800   -3.1710 C.3   503  7TP503      0.0458
     38  CBE       55.4980   50.5500   -1.9100 C.ar  503  7TP503     -0.0205
     39  CAJ       55.6920   49.6850   -0.8350 C.ar  503  7TP503     -0.0009
     40  CAH       56.3020   50.1110    0.3470 C.ar  503  7TP503      0.0417
     41  CBD       56.7110   51.4440    0.4240 C.ar  503  7TP503      0.1957
     42  OAF       57.3310   51.9390    1.5490 O.3   503  7TP503     -0.2866
     43  CAI       56.5080   52.3040   -0.6700 C.ar  503  7TP503      0.0417
     44  CAK       55.8930   51.8610   -1.8370 C.ar  503  7TP503     -0.0009
@<TRIPOS>BOND
     1    23    22    1
     2    31    32   ar
     3    31    30   ar
     4    32    33   ar
     5    22    21    1
     6    21    20   ar
     7    21    18   ar
     8    30    29   ar
     9    20    19   ar
    10    18    17   ar
    11    33    29   ar
    12    33    34    1
    13    17    19   ar
    14    17    16    1
    15    24    16   ar
    16    24    25   ar
    17    29    28    1
    18    16    15   ar
    19    25    26   ar
    20    15    14   ar
    21    26    14   ar
    22    26    27    1
    23    28    27    1
    24    14    13    1
    25    27    35    1
    26    35    36    1
    27     1     2    1
    28    13    12    1
    29     2     3    1
    30     3     4   ar
    31     3     6   ar
    32     4     5   ar
    33    37    36    1
    34    37    38    1
    35    36    12    1
    36     6     7   ar
    37    12     9    1
    38     5     8   ar
    39     7     8   ar
    40     8     9    1
    41    38    44   ar
    42    38    39   ar
    43    44    43   ar
    44     9    11    2
    45     9    10    2
    46    39    40   ar
    47    43    41   ar
    48    40    41   ar
    49    41    42    1
