@<TRIPOS>MOLECULE
4gtp_FPP_B_1.pdb
 24 23 0 0 0
SMALL
GASTEIGER

@<TRIPOS>ATOM
      1  C1        52.9880   42.5670   -1.8770 C.3   502  FPP502      0.1747
      2  O1        52.0720   43.1680   -2.8710 O.3   502  FPP502     -0.3089
      3  C2        54.1470   43.3380   -1.7120 C.2   502  FPP502     -0.0024
      4  C3        54.6710   43.8950   -0.5480 C.2   502  FPP502     -0.0454
      5  C4        54.0100   43.6820    0.8120 C.3   502  FPP502      0.0261
      6  C5        55.9780   44.7090   -0.5620 C.3   502  FPP502      0.0264
      7  C6        56.6060   45.1820   -1.9550 C.3   502  FPP502      0.0297
      8  C7        57.7190   46.0370   -1.7360 C.2   502  FPP502     -0.0342
      9  C8        58.3350   46.9360   -2.5840 C.2   502  FPP502     -0.0478
     10  C10       57.8220   47.0430   -4.0100 C.3   502  FPP502      0.0260
     11  C9        59.5440   47.7140   -2.0670 C.3   502  FPP502      0.0263
     12  C11       59.3690   49.2190   -2.0060 C.3   502  FPP502      0.0297
     13  C12       60.6010   49.9280   -1.9510 C.2   502  FPP502     -0.0342
     14  C13       61.0370   50.8550   -0.9950 C.2   502  FPP502     -0.0478
     15  C14       62.3700   51.5460   -1.1010 C.3   502  FPP502      0.0260
     16  C15       60.1420   51.1910    0.1960 C.3   502  FPP502      0.0260
     17  PA        50.9420   42.2640   -3.5730 P.3   502  FPP502      0.2233
     18  O1A       49.6460   43.0180   -3.6550 O.2   502  FPP502     -0.5169
     19  O2A       50.9650   40.9180   -2.9210 O.3   502  FPP502     -0.4370
     20  O3A       51.5740   42.1970   -5.0450 O.3   502  FPP502     -0.2261
     21  PB        52.0620   40.9550   -5.8560 P.3   502  FPP502      0.5373
     22  O1B       53.0400   40.3690   -4.8280 O.3   502  FPP502     -0.1143
     23  O2B       50.9210   39.9520   -5.9950 O.3   502  FPP502     -0.1143
     24  O3B       52.6730   41.3920   -7.1030 O.2   502  FPP502     -0.2221
@<TRIPOS>BOND
     1    24    21    2
     2    23    21    1
     3    21    20    1
     4    21    22    1
     5    20    17    1
     6    10     9    1
     7    18    17    2
     8    17    19    1
     9    17     2    1
    10     2     1    1
    11     9    11    1
    12     9     8    2
    13    11    12    1
    14    12    13    1
    15     7     8    1
    16     7     6    1
    17    13    14    2
    18     1     3    1
    19     3     4    2
    20    15    14    1
    21    14    16    1
    22     6     4    1
    23     4     5    1
