@<TRIPOS>MOLECULE
4gtq_7TQ_B_1.pdb
 49 54 0 0 0
SMALL
GASTEIGER

@<TRIPOS>ATOM
      1  CAA      -21.1980   64.5940    3.6460 C.3   503  7TQ503      0.2525
      2  OBG      -21.9180   65.8140    3.2950 O.3   503  7TQ503     -0.4714
      3  CBM      -21.3550   66.9580    3.8060 C.ar  503  7TQ503      0.1388
      4  CAS      -22.0720   68.1550    3.8430 C.ar  503  7TQ503      0.0383
      5  CAU      -21.4730   69.3060    4.3890 C.ar  503  7TQ503      0.0230
      6  CAR      -20.0590   66.9360    4.3200 C.ar  503  7TQ503      0.0383
      7  CAT      -19.4710   68.0780    4.8480 C.ar  503  7TQ503      0.0230
      8  CBP      -20.1570   69.2800    4.8870 C.ar  503  7TQ503      0.1224
      9  SBW      -19.2260   70.8110    5.6030 S.O2  503  7TQ503      0.0636
     10  OAE      -18.2300   70.3550    6.6720 O.2   503  7TQ503     -0.1528
     11  OAF      -20.2080   71.8270    6.2260 O.2   503  7TQ503     -0.1528
     12  NBU      -18.2610   71.6960    4.3880 N.3   503  7TQ503     -0.1504
     13  CBB      -19.1360   72.1850    3.3070 C.3   503  7TQ503      0.1233
     14  CBO      -19.6150   71.2810    2.3640 C.ar  503  7TQ503      0.0095
     15  CAY      -20.7840   71.7710    1.7680 C.ar  503  7TQ503      0.0086
     16  CBJ      -21.4360   71.0490    0.7690 C.ar  503  7TQ503      0.0683
     17  CAG      -22.6320   71.6220    0.1930 C.1   503  7TQ503      0.1004
     18  NAC      -23.4490   72.0670   -0.1690 N.1   503  7TQ503     -0.1908
     19  CAM      -20.9000   69.8420    0.3190 C.ar  503  7TQ503      0.0115
     20  CAV      -19.7510   69.3480    0.9180 C.ar  503  7TQ503      0.0149
     21  CBR      -19.0900   70.0490    1.9650 C.ar  503  7TQ503      0.0455
     22  NBT      -17.9110   69.5110    2.4050 N.pl3 503  7TQ503     -0.3011
     23  CBC      -17.5900   68.0860    2.2670 C.3   503  7TQ503      0.1368
     24  CBQ      -16.7890   67.9650    0.9260 C.ar  503  7TQ503      0.0778
     25  CAW      -16.4210   68.9710    0.1060 C.ar  503  7TQ503      0.1150
     26  NBE      -15.7350   68.4460   -0.9140 N.ar  503  7TQ503     -0.2226
     27  CAX      -15.6820   67.1390   -0.7340 C.ar  503  7TQ503      0.1784
     28  NBV      -16.3340   66.8270    0.4120 N.ar  503  7TQ503     -0.3089
     29  CAB      -16.4640   65.4290    0.9250 C.3   503  7TQ503      0.1318
     30  CBD      -16.7690   70.3470    2.7720 C.3   503  7TQ503      0.1091
     31  CBS      -16.9020   71.1620    4.0690 C.3   503  7TQ503      0.1039
     32  CBA      -15.7920   72.2370    3.9540 C.3   503  7TQ503      0.0458
     33  CBL      -15.9530   73.2340    4.9060 C.ar  503  7TQ503     -0.0205
     34  CAO      -16.7180   74.3640    4.5950 C.ar  503  7TQ503     -0.0011
     35  CAQ      -16.8860   75.3750    5.5350 C.ar  503  7TQ503      0.0373
     36  CAN      -15.3350   73.1250    6.1600 C.ar  503  7TQ503     -0.0011
     37  CAP      -15.5000   74.1300    7.1170 C.ar  503  7TQ503      0.0373
     38  CBN      -16.2690   75.2610    6.7950 C.ar  503  7TQ503      0.1501
     39  OBH      -16.4710   76.2560    7.7190 O.3   503  7TQ503     -0.4091
     40  CBI      -17.4260   75.7620    8.6040 C.2   503  7TQ503      0.4260
     41  OAD      -17.2770   75.9400    9.8200 O.2   503  7TQ503     -0.2241
     42  NBF      -18.5110   75.0750    8.1400 N.am  503  7TQ503     -0.1635
     43  CAZ      -19.5160   74.4670    8.9760 C.3   503  7TQ503      0.1450
     44  CBK      -20.2790   75.4170    9.6280 C.ar  503  7TQ503     -0.0004
     45  CAK      -20.3700   75.4180   11.0120 C.ar  503  7TQ503     -0.0026
     46  CAI      -21.1750   76.3520   11.6470 C.ar  503  7TQ503     -0.0003
     47  CAH      -21.8940   77.2850   10.9090 C.ar  503  7TQ503     -0.0000
     48  CAJ      -21.8080   77.2850    9.5280 C.ar  503  7TQ503     -0.0003
     49  CAL      -20.9990   76.3410    8.8990 C.ar  503  7TQ503     -0.0026
@<TRIPOS>BOND
     1    26    27   ar
     2    26    25   ar
     3    27    28   ar
     4    18    17    3
     5    25    24   ar
     6    17    16    1
     7    19    16   ar
     8    19    20   ar
     9    28    29    1
    10    28    24   ar
    11    16    15   ar
    12    20    21   ar
    13    24    23    1
    14    15    14   ar
    15    21    14   ar
    16    21    22    1
    17    23    22    1
    18    14    13    1
    19    22    30    1
    20    30    31    1
    21     2     1    1
    22     2     3    1
    23    13    12    1
    24     3     4   ar
    25     3     6   ar
    26     4     5   ar
    27    32    31    1
    28    32    33    1
    29    31    12    1
    30     6     7   ar
    31    12     9    1
    32     5     8   ar
    33    34    33   ar
    34    34    35   ar
    35     7     8   ar
    36     8     9    1
    37    33    36   ar
    38    35    38   ar
    39     9    11    2
    40     9    10    2
    41    36    37   ar
    42    38    37   ar
    43    38    39    1
    44    39    40    1
    45    42    40   am
    46    42    43    1
    47    40    41    2
    48    49    48   ar
    49    49    44   ar
    50    43    44    1
    51    48    47   ar
    52    44    45   ar
    53    47    46   ar
    54    45    46   ar
