@<TRIPOS>MOLECULE
4gtq_FPP_B_1.pdb
 24 23 0 0 0
SMALL
GASTEIGER

@<TRIPOS>ATOM
      1  C1       -10.4120   67.4790    5.3950 C.3   502  FPP502      0.1747
      2  O1       -10.3230   66.9250    4.0490 O.3   502  FPP502     -0.3089
      3  C2       -10.3420   68.8610    5.3960 C.2   502  FPP502     -0.0024
      4  C3       -10.8420   69.6350    6.4200 C.2   502  FPP502     -0.0454
      5  C4       -11.5070   68.9820    7.6370 C.3   502  FPP502      0.0261
      6  C5       -10.6890   71.1700    6.3160 C.3   502  FPP502      0.0264
      7  C6       -11.4100   71.8390    5.1010 C.3   502  FPP502      0.0297
      8  C7       -11.3210   73.2510    5.1530 C.2   502  FPP502     -0.0342
      9  C8       -11.5100   74.1890    4.1470 C.2   502  FPP502     -0.0478
     10  C10      -11.8390   73.6970    2.7120 C.3   502  FPP502      0.0260
     11  C9       -11.3110   75.6600    4.5490 C.3   502  FPP502      0.0263
     12  C11      -12.4370   76.6480    4.2480 C.3   502  FPP502      0.0297
     13  C12      -13.0410   77.1910    5.4040 C.2   502  FPP502     -0.0342
     14  C13      -13.3730   78.5220    5.7460 C.2   502  FPP502     -0.0478
     15  C14      -14.0700   78.7770    7.1010 C.3   502  FPP502      0.0260
     16  C15      -13.0950   79.7230    4.8370 C.3   502  FPP502      0.0260
     17  PA       -11.0980   65.4640    3.6570 P.3   502  FPP502      0.2233
     18  O1A      -12.5880   65.7150    3.6840 O.2   502  FPP502     -0.5169
     19  O2A      -10.5130   64.2580    4.3920 O.3   502  FPP502     -0.4370
     20  O3A      -10.7050   65.1780    2.0880 O.3   502  FPP502     -0.2261
     21  PB        -9.3960   65.6960    1.2600 P.3   502  FPP502      0.5373
     22  O1B      -10.0500   66.6050   -0.0190 O.2   502  FPP502     -0.2221
     23  O2B       -8.4460   66.7560    2.2020 O.3   502  FPP502     -0.1143
     24  O3B       -8.7570   64.4550    0.7660 O.3   502  FPP502     -0.1143
@<TRIPOS>BOND
     1    22    21    2
     2    24    21    1
     3    21    20    1
     4    21    23    1
     5    20    17    1
     6    10     9    1
     7    17    18    2
     8    17     2    1
     9    17    19    1
    10     2     1    1
    11     9    11    1
    12     9     8    2
    13    12    11    1
    14    12    13    1
    15    16    14    1
    16     7     8    1
    17     7     6    1
    18     1     3    1
    19     3     4    2
    20    13    14    2
    21    14    15    1
    22     6     4    1
    23     4     5    1
