@<TRIPOS>MOLECULE
4gtr_7TR_B_1.pdb
 46 50 0 0 0
SMALL
GASTEIGER

@<TRIPOS>ATOM
      1  CAA      -77.0280  -25.2800    1.8230 C.3   502  7TR502      0.0234
      2  CAW      -76.7850  -25.8070    3.2540 C.3   502  7TR502      0.0968
      3  NBP      -76.8420  -24.6370    4.1570 N.am  502  7TR502     -0.2457
      4  CAX      -78.1700  -24.2330    4.7120 C.3   502  7TR502      0.0968
      5  CAB      -78.7220  -22.9150    4.0700 C.3   502  7TR502      0.0234
      6  CBF      -75.7040  -23.9810    4.4330 C.2   502  7TR502      0.4094
      7  OAF      -75.6320  -22.9860    5.1660 O.2   502  7TR502     -0.2258
      8  OBE      -74.5720  -24.4890    3.8290 O.3   502  7TR502     -0.4101
      9  CBJ      -73.4680  -23.7380    3.5290 C.ar  502  7TR502      0.1500
     10  CAN      -72.2670  -24.0540    4.1560 C.ar  502  7TR502      0.0373
     11  CAL      -71.1090  -23.3580    3.8750 C.ar  502  7TR502     -0.0011
     12  CAM      -73.5110  -22.7000    2.6070 C.ar  502  7TR502      0.0373
     13  CAK      -72.3440  -22.0020    2.3290 C.ar  502  7TR502     -0.0011
     14  CBH      -71.1510  -22.3070    2.9650 C.ar  502  7TR502     -0.0205
     15  CAY      -69.8640  -21.5100    2.6590 C.3   502  7TR502      0.0458
     16  CBO      -69.7250  -20.1430    3.3730 C.3   502  7TR502      0.1039
     17  CBB      -69.2130  -20.3190    4.8190 C.3   502  7TR502      0.1091
     18  NBQ      -69.0630  -19.0090    5.5120 N.pl3 502  7TR502     -0.3011
     19  CBA      -67.6740  -18.6010    5.7660 C.3   502  7TR502      0.1368
     20  CBM      -67.1630  -19.3450    7.0120 C.ar  502  7TR502      0.0778
     21  CAT      -67.8480  -20.1960    7.7710 C.ar  502  7TR502      0.1150
     22  NBC      -67.0550  -20.6290    8.7620 N.ar  502  7TR502     -0.2226
     23  CAU      -65.8630  -20.0400    8.6430 C.ar  502  7TR502      0.1784
     24  NBS      -65.9430  -19.2530    7.5650 N.ar  502  7TR502     -0.3089
     25  CAD      -64.8260  -18.4100    7.0600 C.3   502  7TR502      0.1318
     26  CBN      -70.1140  -18.2720    5.9610 C.ar  502  7TR502      0.0455
     27  CAS      -69.8330  -17.4010    7.0450 C.ar  502  7TR502      0.0149
     28  CAJ      -70.8550  -16.6220    7.5960 C.ar  502  7TR502      0.0115
     29  CBG      -72.1700  -16.7130    7.0780 C.ar  502  7TR502      0.0683
     30  CAI      -73.2650  -15.9430    7.6290 C.1   502  7TR502      0.1004
     31  NAE      -74.1610  -15.3670    8.0320 N.1   502  7TR502     -0.1908
     32  CAV      -72.4600  -17.5800    6.0180 C.ar  502  7TR502      0.0086
     33  CBK      -71.4300  -18.3420    5.4740 C.ar  502  7TR502      0.0095
     34  CAZ      -71.9670  -19.1920    4.3400 C.3   502  7TR502      0.1233
     35  NBR      -71.0140  -19.3990    3.2130 N.3   502  7TR502     -0.1504
     36  SBT      -70.7820  -18.0960    2.2070 S.O2  502  7TR502      0.0636
     37  OAG      -69.9760  -18.5850    1.0200 O.2   502  7TR502     -0.1528
     38  OAH      -72.1090  -17.6190    1.7010 O.2   502  7TR502     -0.1528
     39  CBL      -69.9670  -16.6930    2.9690 C.ar  502  7TR502      0.1224
     40  CAQ      -70.7380  -15.6480    3.5060 C.ar  502  7TR502      0.0230
     41  CAO      -70.1270  -14.5730    4.1310 C.ar  502  7TR502      0.0383
     42  CBI      -68.7380  -14.5560    4.1930 C.ar  502  7TR502      0.1388
     43  OBD      -68.1060  -13.5110    4.7860 O.3   502  7TR502     -0.4714
     44  CAC      -67.8030  -13.9110    6.1380 C.3   502  7TR502      0.2525
     45  CAP      -67.9680  -15.5960    3.6640 C.ar  502  7TR502      0.0383
     46  CAR      -68.5750  -16.6570    3.0350 C.ar  502  7TR502      0.0230
@<TRIPOS>BOND
     1    37    36    2
     2    38    36    2
     3     1     2    1
     4    36    39    1
     5    36    35    1
     6    13    12   ar
     7    13    14   ar
     8    12     9   ar
     9    15    14    1
    10    15    16    1
    11    14    11   ar
    12    39    46   ar
    13    39    40   ar
    14    46    45   ar
    15    35    16    1
    16    35    34    1
    17     2     3    1
    18    16    17    1
    19    40    41   ar
    20     9     8    1
    21     9    10   ar
    22    45    42   ar
    23     8     6    1
    24    11    10   ar
    25     5     4    1
    26    41    42   ar
    27     3     6   am
    28     3     4    1
    29    42    43    1
    30    34    33    1
    31     6     7    2
    32    43    44    1
    33    17    18    1
    34    33    26   ar
    35    33    32   ar
    36    18    19    1
    37    18    26    1
    38    19    20    1
    39    26    27   ar
    40    32    29   ar
    41    20    24   ar
    42    20    21   ar
    43    27    28   ar
    44    25    24    1
    45    29    28   ar
    46    29    30    1
    47    24    23   ar
    48    30    31    3
    49    21    22   ar
    50    23    22   ar
