@<TRIPOS>MOLECULE
4gtr_FPP_B_1.pdb
 24 23 0 0 0
SMALL
GASTEIGER

@<TRIPOS>ATOM
      1  C1       -63.2550  -24.5170    2.8630 C.3   503  FPP503      0.1747
      2  O1       -63.2600  -23.2620    3.4720 O.3   503  FPP503     -0.3089
      3  C2       -64.5690  -24.8430    2.5300 C.2   503  FPP503     -0.0024
      4  C3       -64.9000  -25.9210    1.7360 C.2   503  FPP503     -0.0454
      5  C4       -63.7710  -26.8160    1.2250 C.3   503  FPP503      0.0261
      6  C5       -66.3580  -26.2270    1.4040 C.3   503  FPP503      0.0264
      7  C6       -67.1940  -26.5330    2.6670 C.3   503  FPP503      0.0297
      8  C7       -68.4060  -27.1570    2.3760 C.2   503  FPP503     -0.0342
      9  C8       -69.4660  -27.3290    3.2440 C.2   503  FPP503     -0.0478
     10  C10      -69.4110  -26.8360    4.7020 C.3   503  FPP503      0.0260
     11  C9       -70.6790  -28.0490    2.7090 C.3   503  FPP503      0.0263
     12  C11      -71.9280  -27.2430    2.8430 C.3   503  FPP503      0.0297
     13  C12      -73.0380  -28.0080    2.5440 C.2   503  FPP503     -0.0342
     14  C13      -74.0490  -27.7460    1.6150 C.2   503  FPP503     -0.0478
     15  C14      -75.2100  -28.7230    1.4970 C.3   503  FPP503      0.0260
     16  C15      -74.0310  -26.5110    0.7130 C.3   503  FPP503      0.0260
     17  PA       -61.9930  -22.7230    4.2670 P.3   503  FPP503      0.2233
     18  O1A      -62.2400  -21.2850    4.5600 O.3   503  FPP503     -0.4370
     19  O2A      -60.7570  -23.0740    3.5540 O.2   503  FPP503     -0.5169
     20  O3A      -62.1440  -23.4260    5.6790 O.3   503  FPP503     -0.2261
     21  PB       -61.4120  -24.7310    6.3490 P.3   503  FPP503      0.5373
     22  O1B      -61.3640  -25.9560    5.2700 O.2   503  FPP503     -0.2221
     23  O2B      -59.8710  -24.2610    6.5250 O.3   503  FPP503     -0.1143
     24  O3B      -62.1620  -25.0760    7.6440 O.3   503  FPP503     -0.1143
@<TRIPOS>BOND
     1    16    14    1
     2     5     4    1
     3     6     4    1
     4     6     7    1
     5    15    14    1
     6    14    13    2
     7     4     3    2
     8     8     7    1
     9     8     9    2
    10     3     1    1
    11    13    12    1
    12    11    12    1
    13    11     9    1
    14     1     2    1
    15     9    10    1
    16     2    17    1
    17    19    17    2
    18    17    18    1
    19    17    20    1
    20    22    21    2
    21    20    21    1
    22    21    23    1
    23    21    24    1
