@<TRIPOS>MOLECULE
4gts_7TP_B_1.pdb
 44 49 0 0 0
SMALL
GASTEIGER

@<TRIPOS>ATOM
      1  CAA        1.8770   17.8240   32.1160 C.3   403  7TP403      0.2525
      2  OBB        3.2840   17.3430   32.0180 O.3   403  7TP403     -0.4714
      3  CBG        4.0980   18.1560   31.2360 C.ar  403  7TP403      0.1388
      4  CAN        3.8360   19.5290   31.1940 C.ar  403  7TP403      0.0383
      5  CAQ        4.6140   20.3930   30.4220 C.ar  403  7TP403      0.0230
      6  CAM        5.1760   17.6620   30.4690 C.ar  403  7TP403      0.0383
      7  CAP        5.9600   18.5240   29.6800 C.ar  403  7TP403      0.0230
      8  CBJ        5.6760   19.9080   29.6450 C.ar  403  7TP403      0.1224
      9  SBR        6.6140   21.0990   28.6760 S.O2  403  7TP403      0.0636
     10  OAD        8.0230   20.5950   28.4810 O.2   403  7TP403     -0.1528
     11  OAE        6.6950   22.4120   29.4100 O.2   403  7TP403     -0.1528
     12  NBP        5.9390   21.4300   27.0730 N.3   403  7TP403     -0.1504
     13  CAX        4.6170   22.1250   26.9970 C.3   403  7TP403      0.1233
     14  CBI        3.4660   21.3460   27.6500 C.ar  403  7TP403      0.0090
     15  CAV        2.6910   22.1480   28.4850 C.ar  403  7TP403      0.0014
     16  CBH        1.5850   21.6110   29.1670 C.ar  403  7TP403      0.0344
     17  CBL        0.8750   22.4690   30.0270 C.ar  403  7TP403      0.1454
     18  OBC        0.6010   23.7640   29.6880 O.2   403  7TP403     -0.4501
     19  CAR        0.4390   22.2700   31.2840 C.ar  403  7TP403      0.0407
     20  CAL       -0.1290   23.4040   31.7330 C.ar  403  7TP403      0.0441
     21  CBF       -0.0200   24.3140   30.7600 C.ar  403  7TP403      0.1874
     22  CAG       -0.5260   25.7640   30.7830 C.2   403  7TP403      0.2714
     23  OAC        0.2430   26.7270   30.8480 O.2   403  7TP403     -0.2797
     24  CAO        1.2830   20.2460   29.0150 C.ar  403  7TP403      0.0043
     25  CAS        2.0650   19.4430   28.1680 C.ar  403  7TP403      0.0143
     26  CBM        3.1670   19.9990   27.4810 C.ar  403  7TP403      0.0455
     27  NBO        3.8850   19.1780   26.6930 N.pl3 403  7TP403     -0.3011
     28  CAY        3.8870   17.7090   26.9060 C.3   403  7TP403      0.1368
     29  CBK        2.7840   17.0550   26.0510 C.ar  403  7TP403      0.0778
     30  CAT        1.7990   17.7190   25.4410 C.ar  403  7TP403      0.1150
     31  NBA        1.0250   16.8410   24.8120 N.ar  403  7TP403     -0.2226
     32  CAU        1.5160   15.6180   25.0100 C.ar  403  7TP403      0.1784
     33  NBQ        2.5960   15.7490   25.7810 N.ar  403  7TP403     -0.3089
     34  CAB        3.4460   14.5720   26.2290 C.3   403  7TP403      0.1318
     35  CAZ        4.7250   19.6930   25.5920 C.3   403  7TP403      0.1091
     36  CBN        6.0670   20.2940   26.1110 C.3   403  7TP403      0.1039
     37  CAW        6.9520   20.7200   24.9170 C.3   403  7TP403      0.0458
     38  CBE        6.6910   22.1600   24.4330 C.ar  403  7TP403     -0.0205
     39  CAJ        7.3300   23.2260   25.0720 C.ar  403  7TP403     -0.0009
     40  CAH        7.1060   24.5260   24.6450 C.ar  403  7TP403      0.0417
     41  CBD        6.2490   24.7760   23.5660 C.ar  403  7TP403      0.1957
     42  OAF        6.0270   26.0630   23.1380 O.3   403  7TP403     -0.2866
     43  CAI        5.6110   23.7010   22.9260 C.ar  403  7TP403      0.0417
     44  CAK        5.8330   22.3900   23.3520 C.ar  403  7TP403     -0.0009
@<TRIPOS>BOND
     1    43    44   ar
     2    43    41   ar
     3    42    41    1
     4    44    38   ar
     5    41    40   ar
     6    38    37    1
     7    38    39   ar
     8    40    39   ar
     9    31    32   ar
    10    31    30   ar
    11    37    36    1
    12    32    33   ar
    13    30    29   ar
    14    35    36    1
    15    35    27    1
    16    33    29   ar
    17    33    34    1
    18    29    28    1
    19    36    12    1
    20    27    28    1
    21    27    26    1
    22    13    12    1
    23    13    14    1
    24    12     9    1
    25    26    14   ar
    26    26    25   ar
    27    14    15   ar
    28    25    24   ar
    29    10     9    2
    30    15    16   ar
    31     9    11    2
    32     9     8    1
    33    24    16   ar
    34    16    17    1
    35     8     7   ar
    36     8     5   ar
    37     7     6   ar
    38    18    17   ar
    39    18    21   ar
    40    17    19   ar
    41     5     4   ar
    42     6     3   ar
    43    21    22    1
    44    21    20   ar
    45    22    23    2
    46     4     3   ar
    47     3     2    1
    48    19    20   ar
    49     2     1    1
