@<TRIPOS>MOLECULE
4gtt_7TQ_B_1.pdb
 49 54 0 0 0
SMALL
GASTEIGER

@<TRIPOS>ATOM
      1  CAA        1.0940   18.4320   32.2560 C.3   403  7TQ403      0.2525
      2  OBG        2.4220   17.9240   32.4580 O.3   403  7TQ403     -0.4714
      3  CBM        3.3640   18.5170   31.6620 C.ar  403  7TQ403      0.1388
      4  CAS        3.4210   19.9070   31.5250 C.ar  403  7TQ403      0.0383
      5  CAU        4.3910   20.4940   30.7150 C.ar  403  7TQ403      0.0230
      6  CAR        4.2940   17.7250   30.9870 C.ar  403  7TQ403      0.0383
      7  CAT        5.2690   18.3130   30.1780 C.ar  403  7TQ403      0.0230
      8  CBP        5.3170   19.7020   30.0320 C.ar  403  7TQ403      0.1224
      9  SBW        6.5730   20.4770   28.9810 S.O2  403  7TQ403      0.0636
     10  OAE        7.6480   19.4480   28.6140 O.2   403  7TQ403     -0.1528
     11  OAF        7.2250   21.6310   29.7510 O.2   403  7TQ403     -0.1528
     12  NBU        5.8030   21.2360   27.3240 N.3   403  7TQ403     -0.1504
     13  CBB        4.6450   22.0950   27.6430 C.3   403  7TQ403      0.1233
     14  CBO        3.4450   21.4260   27.8430 C.ar  403  7TQ403      0.0095
     15  CAY        2.5410   22.3650   28.3420 C.ar  403  7TQ403      0.0086
     16  CBJ        1.2430   22.0140   28.6560 C.ar  403  7TQ403      0.0683
     17  CAG        0.3400   23.0130   29.1730 C.1   403  7TQ403      0.1004
     18  NAC       -0.3820   23.8260   29.5850 N.1   403  7TQ403     -0.1908
     19  CAM        0.8470   20.6990   28.4610 C.ar  403  7TQ403      0.0115
     20  CAV        1.7440   19.7530   27.9590 C.ar  403  7TQ403      0.0149
     21  CBR        3.0740   20.0870   27.6220 C.ar  403  7TQ403      0.0455
     22  NBT        3.8450   19.0390   27.1720 N.pl3 403  7TQ403     -0.3011
     23  CBC        3.4930   17.6660   27.5710 C.3   403  7TQ403      0.1368
     24  CBQ        2.7950   16.9520   26.3970 C.ar  403  7TQ403      0.0778
     25  CAW        2.1130   17.5480   25.4240 C.ar  403  7TQ403      0.1150
     26  NBE        1.6730   16.5810   24.6200 N.ar  403  7TQ403     -0.2226
     27  CAX        2.0830   15.4050   25.0970 C.ar  403  7TQ403      0.1784
     28  NBV        2.7840   15.6330   26.2070 N.ar  403  7TQ403     -0.3089
     29  CAB        3.4190   14.5860   27.0520 C.3   403  7TQ403      0.1318
     30  CBD        5.1010   19.0060   26.4200 C.3   403  7TQ403      0.1091
     31  CBS        5.6710   20.3870   26.0950 C.3   403  7TQ403      0.1039
     32  CBA        4.8610   20.9470   24.9310 C.3   403  7TQ403      0.0458
     33  CBL        5.4680   22.0840   24.3410 C.ar  403  7TQ403     -0.0205
     34  CAO        5.1190   22.3740   23.0150 C.ar  403  7TQ403     -0.0011
     35  CAQ        5.6700   23.4600   22.3410 C.ar  403  7TQ403      0.0373
     36  CAN        6.4050   22.9100   24.9810 C.ar  403  7TQ403     -0.0011
     37  CAP        6.9530   23.9920   24.3100 C.ar  403  7TQ403      0.0373
     38  CBN        6.6010   24.2710   22.9950 C.ar  403  7TQ403      0.1501
     39  OBH        7.1980   25.3550   22.4210 O.3   403  7TQ403     -0.4091
     40  CBI        7.5360   25.3550   21.1000 C.2   403  7TQ403      0.4260
     41  OAD        7.7470   24.3180   20.4690 O.2   403  7TQ403     -0.2241
     42  NBF        7.6430   26.5460   20.5200 N.am  403  7TQ403     -0.1635
     43  CAZ        7.9700   26.7630   19.1280 C.3   403  7TQ403      0.1450
     44  CBK        6.8420   27.4000   18.5770 C.ar  403  7TQ403     -0.0004
     45  CAK        6.4150   27.0670   17.3030 C.ar  403  7TQ403     -0.0026
     46  CAI        5.3110   27.7060   16.7520 C.ar  403  7TQ403     -0.0003
     47  CAH        4.6050   28.6820   17.4530 C.ar  403  7TQ403     -0.0000
     48  CAJ        5.0170   29.0150   18.7270 C.ar  403  7TQ403     -0.0003
     49  CAL        6.1260   28.3790   19.2730 C.ar  403  7TQ403     -0.0026
@<TRIPOS>BOND
     1    46    45   ar
     2    46    47   ar
     3    45    44   ar
     4    47    48   ar
     5    44    43    1
     6    44    49   ar
     7    48    49   ar
     8    43    42    1
     9    41    40    2
    10    42    40   am
    11    40    39    1
    12    35    38   ar
    13    35    34   ar
    14    39    38    1
    15    38    37   ar
    16    34    33   ar
    17    37    36   ar
    18    33    32    1
    19    33    36   ar
    20    26    27   ar
    21    26    25   ar
    22    32    31    1
    23    27    28   ar
    24    25    24   ar
    25    31    30    1
    26    31    12    1
    27    28    24   ar
    28    28    29    1
    29    24    23    1
    30    30    22    1
    31    22    23    1
    32    22    21    1
    33    12    13    1
    34    12     9    1
    35    21    14   ar
    36    21    20   ar
    37    13    14    1
    38    14    15   ar
    39    20    19   ar
    40    15    16   ar
    41    19    16   ar
    42    10     9    2
    43    16    17    1
    44     9    11    2
    45     9     8    1
    46    17    18    3
    47     8     7   ar
    48     8     5   ar
    49     7     6   ar
    50     5     4   ar
    51     6     3   ar
    52     4     3   ar
    53     3     2    1
    54     1     2    1
