@<TRIPOS>MOLECULE
4gtv_7TR_B_1.pdb
 46 50 0 0 0
SMALL
GASTEIGER

@<TRIPOS>ATOM
      1  CAA        6.5450   22.1670   18.4190 C.3   403  7TR403      0.0234
      2  CAW        6.2470   23.5660   18.9910 C.3   403  7TR403      0.0968
      3  NBP        7.3770   23.9830   19.8430 N.am  403  7TR403     -0.2457
      4  CAX        8.4670   24.7490   19.2110 C.3   403  7TR403      0.0968
      5  CAB        7.9660   26.1600   18.8980 C.3   403  7TR403      0.0234
      6  CBF        7.4190   23.6660   21.1360 C.2   403  7TR403      0.4094
      7  OAF        8.3540   23.9930   21.8630 O.2   403  7TR403     -0.2258
      8  OBE        6.3690   22.9620   21.6590 O.3   403  7TR403     -0.4101
      9  CBJ        6.6000   22.1530   22.7340 C.ar  403  7TR403      0.1500
     10  CAN        6.5560   20.7720   22.5740 C.ar  403  7TR403      0.0373
     11  CAL        6.7780   19.9300   23.6590 C.ar  403  7TR403     -0.0011
     12  CAM        6.8510   22.6930   23.9960 C.ar  403  7TR403      0.0373
     13  CAK        7.0750   21.8500   25.0820 C.ar  403  7TR403     -0.0011
     14  CBH        7.0370   20.4670   24.9160 C.ar  403  7TR403     -0.0205
     15  CAY        7.2680   19.5340   26.1030 C.3   403  7TR403      0.0458
     16  CBO        6.0720   19.5580   27.0750 C.3   403  7TR403      0.1039
     17  CBB        4.7750   19.1130   26.3700 C.3   403  7TR403      0.1091
     18  NBQ        3.7510   18.8530   27.3850 N.pl3 403  7TR403     -0.3011
     19  CBA        3.5280   17.4580   27.7900 C.3   403  7TR403      0.1368
     20  CBM        2.5410   16.7790   26.8250 C.ar  403  7TR403      0.0778
     21  CAT        1.9200   17.3150   25.7750 C.ar  403  7TR403      0.1150
     22  NBC        1.1460   16.3780   25.2160 N.ar  403  7TR403     -0.2226
     23  CAU        1.2810   15.2520   25.9140 C.ar  403  7TR403      0.1784
     24  NBS        2.1340   15.5170   26.9000 N.ar  403  7TR403     -0.3089
     25  CAD        2.5760   14.5480   27.9340 C.3   403  7TR403      0.1318
     26  CBN        3.0310   19.8300   27.9230 C.ar  403  7TR403      0.0455
     27  CAS        1.7920   19.4580   28.4650 C.ar  403  7TR403      0.0149
     28  CAJ        0.9570   20.4290   29.0420 C.ar  403  7TR403      0.0115
     29  CBG        1.3720   21.7610   29.0790 C.ar  403  7TR403      0.0683
     30  CAI        0.5520   22.7780   29.6620 C.1   403  7TR403      0.1004
     31  NAE       -0.0820   23.5990   30.1250 N.1   403  7TR403     -0.1908
     32  CAV        2.6080   22.1180   28.5430 C.ar  403  7TR403      0.0086
     33  CBK        3.4370   21.1520   27.9690 C.ar  403  7TR403      0.0095
     34  CAZ        4.7540   21.7300   27.4280 C.3   403  7TR403      0.1233
     35  NBR        5.9950   20.9220   27.6720 N.3   403  7TR403     -0.1504
     36  SBT        6.5570   20.8960   29.2660 S.O2  403  7TR403      0.0636
     37  OAG        7.9140   20.2660   29.3100 O.2   403  7TR403     -0.1528
     38  OAH        6.6850   22.3050   29.7510 O.2   403  7TR403     -0.1528
     39  CBL        5.4880   20.0090   30.3330 C.ar  403  7TR403      0.1224
     40  CAQ        4.4790   20.6900   31.0080 C.ar  403  7TR403      0.0230
     41  CAO        3.6200   20.0030   31.8580 C.ar  403  7TR403      0.0383
     42  CBI        3.7650   18.6250   32.0340 C.ar  403  7TR403      0.1388
     43  OBD        2.9300   17.9420   32.8710 O.3   403  7TR403     -0.4714
     44  CAC        1.5470   18.2900   32.6470 C.3   403  7TR403      0.2525
     45  CAP        4.7770   17.9460   31.3590 C.ar  403  7TR403      0.0383
     46  CAR        5.6400   18.6350   30.5100 C.ar  403  7TR403      0.0230
@<TRIPOS>BOND
     1     1     2    1
     2     5     4    1
     3     2     3    1
     4     4     3    1
     5     3     6   am
     6     6     8    1
     7     6     7    2
     8     8     9    1
     9    10     9   ar
    10    10    11   ar
    11     9    12   ar
    12    11    14   ar
    13    12    13   ar
    14    14    13   ar
    15    14    15    1
    16    22    21   ar
    17    22    23   ar
    18    21    20   ar
    19    23    24   ar
    20    15    16    1
    21    17    16    1
    22    17    18    1
    23    20    24   ar
    24    20    19    1
    25    24    25    1
    26    16    35    1
    27    18    19    1
    28    18    26    1
    29    34    35    1
    30    34    33    1
    31    35    36    1
    32    26    33   ar
    33    26    27   ar
    34    33    32   ar
    35    27    28   ar
    36    32    29   ar
    37    28    29   ar
    38    29    30    1
    39    36    37    2
    40    36    38    2
    41    36    39    1
    42    30    31    3
    43    39    46   ar
    44    39    40   ar
    45    46    45   ar
    46    40    41   ar
    47    45    42   ar
    48    41    42   ar
    49    42    43    1
    50    44    43    1
