@<TRIPOS>MOLECULE
4gtw_AMP_A_1.pdb
 23 25 0 0 0
SMALL
GASTEIGER

@<TRIPOS>ATOM
      1  P         27.4210   20.8540   38.6090 P.3   1009  AMP1009     0.5327
      2  O1P       26.9950   22.2770   38.3400 O.3   1009  AMP1009    -0.1145
      3  O2P       28.0970   20.0880   37.4950 O.2   1009  AMP1009    -0.2224
      4  O3P       28.3020   20.8280   39.8340 O.3   1009  AMP1009    -0.1145
      5  O5'       26.1760   20.0210   39.1500 O.3   1009  AMP1009    -0.2675
      6  C5'       26.3190   18.6590   39.5400 C.3   1009  AMP1009     0.1860
      7  C4'       25.5440   18.3590   40.7990 C.3   1009  AMP1009     0.1823
      8  O4'       24.1370   18.6450   40.5730 O.3   1009  AMP1009    -0.3135
      9  C3'       25.6200   16.9070   41.2810 C.3   1009  AMP1009     0.2184
     10  O3'       25.7590   16.8850   42.7010 O.3   1009  AMP1009    -0.2174
     11  C2'       24.2570   16.3350   40.8930 C.3   1009  AMP1009     0.2570
     12  O2'       23.8130   15.2710   41.7070 O.3   1009  AMP1009    -0.2130
     13  C1'       23.3600   17.5590   41.0220 C.3   1009  AMP1009     0.3186
     14  N9        22.1400   17.4960   40.2130 N.pl3 1009  AMP1009    -0.1439
     15  C8        22.0610   17.1260   38.9220 C.3   1009  AMP1009     0.3377
     16  N7        20.7780   17.1650   38.4770 N.2   1009  AMP1009    -0.2095
     17  C5        20.0060   17.5630   39.5040 C.2   1009  AMP1009     0.2526
     18  C6        18.5620   17.8130   39.7220 C.2   1009  AMP1009     0.4393
     19  N6        17.6620   17.6430   38.7240 N.pl3 1009  AMP1009     0.2180
     20  N1        18.1730   18.2200   40.9500 N.2   1009  AMP1009     0.0021
     21  C2        19.0560   18.3950   41.9510 C.3   1009  AMP1009     0.5254
     22  N3        20.3780   18.1850   41.8240 N.2   1009  AMP1009    -0.0055
     23  C4        20.9070   17.7730   40.6470 C.2   1009  AMP1009     0.3518
@<TRIPOS>BOND
     1     3     1    2
     2     2     1    1
     3    16    15    1
     4    16    17    2
     5     1     5    1
     6     1     4    1
     7    19    18    1
     8    15    14    1
     9     5     6    1
    10    17    18    1
    11    17    23    1
    12     6     7    1
    13    18    20    2
    14    14    23    1
    15    14    13    1
    16     8     7    1
    17     8    13    1
    18    23    22    2
    19     7     9    1
    20    11    13    1
    21    11     9    1
    22    11    12    1
    23    20    21    1
    24     9    10    1
    25    22    21    1
