@<TRIPOS>MOLECULE
4gtx_TMP_A_1.pdb
 21 22 0 0 0
SMALL
GASTEIGER

@<TRIPOS>ATOM
      1  P         27.5560   21.5520   39.6340 P.3   1009  TMP1009     0.5327
      2  O1P       28.6900   22.1960   40.3970 O.3   1009  TMP1009    -0.1145
      3  O2P       28.0510   21.0630   38.2830 O.2   1009  TMP1009    -0.2224
      4  O3P       26.4630   22.5760   39.4610 O.3   1009  TMP1009    -0.1145
      5  O5'       27.0110   20.3390   40.4730 O.3   1009  TMP1009    -0.2675
      6  C5'       25.8170   19.7290   40.1140 C.3   1009  TMP1009     0.1858
      7  C4'       25.0930   18.9170   41.1370 C.3   1009  TMP1009     0.1774
      8  O4'       23.6840   19.3420   41.3580 O.3   1009  TMP1009    -0.3339
      9  C3'       25.0180   17.5060   40.7780 C.3   1009  TMP1009     0.1857
     10  O3'       26.1170   16.8460   41.3150 O.3   1009  TMP1009    -0.2203
     11  C2'       23.7390   17.0130   41.3430 C.3   1009  TMP1009     0.0874
     12  C1'       22.9720   18.2250   41.7890 C.3   1009  TMP1009     0.2090
     13  N1        21.6190   18.2110   41.3010 N.am  1009  TMP1009    -0.1794
     14  C2        20.5210   18.5700   42.1820 C.1   1009  TMP1009     0.2844
     15  O2        20.6780   18.8830   43.3450 O.2   1009  TMP1009    -0.1918
     16  N3        19.2030   18.5330   41.6040 N.2   1009  TMP1009    -0.2455
     17  C4        18.9350   18.1740   40.2430 C.1   1009  TMP1009     0.2134
     18  O4        17.7900   18.1610   39.8080 O.2   1009  TMP1009    -0.2088
     19  C5        20.0700   17.8190   39.3760 C.2   1009  TMP1009     0.0891
     20  C5M       19.8370   17.4430   37.9690 C.3   1009  TMP1009     0.0462
     21  C6        21.4370   17.8430   39.9290 C.2   1009  TMP1009     0.0877
@<TRIPOS>BOND
     1    20    19    1
     2     3     1    2
     3    19    21    2
     4    19    17    1
     5     4     1    1
     6     1     2    1
     7     1     5    1
     8    18    17    2
     9    21    13    1
    10     6     5    1
    11     6     7    1
    12    17    16    2
    13     9     7    1
    14     9    10    1
    15     9    11    1
    16     7     8    1
    17    13    12    1
    18    13    14   am
    19    11    12    1
    20     8    12    1
    21    16    14    2
    22    14    15    2
