@<TRIPOS>MOLECULE
4gty_5GP_A_1.pdb
 24 26 0 0 0
SMALL
GASTEIGER

@<TRIPOS>ATOM
      1  P         -4.6870   26.2480  -37.1340 P.3   1009  5GP1009     0.5327
      2  O1P       -4.3650   25.0770  -38.0290 O.2   1009  5GP1009    -0.2224
      3  O2P       -3.7840   26.5120  -35.9470 O.3   1009  5GP1009    -0.1145
      4  O3P       -6.1240   26.1380  -36.6820 O.3   1009  5GP1009    -0.1145
      5  O5'       -4.8200   27.5700  -38.0140 O.3   1009  5GP1009    -0.2675
      6  C5'       -4.2300   28.7930  -37.5880 C.3   1009  5GP1009     0.1859
      7  C4'       -3.5050   29.4880  -38.7090 C.3   1009  5GP1009     0.1801
      8  O4'       -4.2940   30.6260  -39.1220 O.3   1009  5GP1009    -0.3326
      9  C3'       -2.1140   29.9980  -38.3410 C.3   1009  5GP1009     0.2158
     10  O3'       -1.1400   29.3450  -39.1530 O.3   1009  5GP1009    -0.2175
     11  C2'       -2.1180   31.4980  -38.6720 C.3   1009  5GP1009     0.2310
     12  O2'       -1.0810   31.9060  -39.5430 O.3   1009  5GP1009    -0.2158
     13  C1'       -3.5000   31.7800  -39.2710 C.3   1009  5GP1009     0.2293
     14  N9        -4.1970   32.8990  -38.6280 N.pl3 1009  5GP1009    -0.2354
     15  C8        -4.1520   33.1460  -37.3110 C.3   1009  5GP1009     0.2246
     16  N7        -4.8890   34.2450  -37.0410 N.2   1009  5GP1009    -0.2322
     17  C5        -5.4000   34.6910  -38.2050 C.2   1009  5GP1009     0.2182
     18  C6        -6.2180   35.7640  -38.5230 C.1   1009  5GP1009     0.2372
     19  O6        -6.6210   36.5390  -37.6260 O.2   1009  5GP1009    -0.2069
     20  N1        -6.5700   35.9610  -39.7970 N.2   1009  5GP1009    -0.2485
     21  C2        -6.1460   35.1370  -40.7670 C.1   1009  5GP1009     0.2531
     22  N2        -6.5280   35.3760  -42.0420 N.pl3 1009  5GP1009    -0.0226
     23  N3        -5.3450   34.0810  -40.4850 N.2   1009  5GP1009    -0.3074
     24  C4        -4.9630   33.8380  -39.2060 C.2   1009  5GP1009     0.2300
@<TRIPOS>BOND
     1    22    21    1
     2    21    23    2
     3    21    20    2
     4    23    24    2
     5    20    18    2
     6    12    11    1
     7    13     8    1
     8    13    11    1
     9    13    14    1
    10    24    14    1
    11    24    17    1
    12    10     9    1
    13     8     7    1
    14     7     9    1
    15     7     6    1
    16    11     9    1
    17    14    15    1
    18    18    17    1
    19    18    19    2
    20    17    16    2
    21     2     1    2
    22     5     6    1
    23     5     1    1
    24    15    16    1
    25     1     4    1
    26     1     3    1
