@<TRIPOS>MOLECULE
4gtz_C5P_A_1.pdb
 21 22 0 0 0
SMALL
GASTEIGER

@<TRIPOS>ATOM
      1  O3P       26.6080   22.5890   39.3890 O.3   1009  C5P1009    -0.1145
      2  P         27.0530   21.2400   39.8590 P.3   1009  C5P1009     0.5327
      3  O1P       27.9930   21.5460   41.0190 O.3   1009  C5P1009    -0.1145
      4  O2P       27.5780   20.5620   38.6480 O.2   1009  C5P1009    -0.2224
      5  O5'       25.7270   20.5220   40.3830 O.3   1009  C5P1009    -0.2675
      6  C5'       25.4650   19.1540   40.0800 C.3   1009  C5P1009     0.1859
      7  C4'       24.6420   18.4830   41.1550 C.3   1009  C5P1009     0.1801
      8  O4'       23.2710   18.8980   41.0370 O.3   1009  C5P1009    -0.3320
      9  C3'       24.5930   16.9690   41.0740 C.3   1009  C5P1009     0.2158
     10  O3'       25.6440   16.4170   41.8650 O.3   1009  C5P1009    -0.2175
     11  C2'       23.2340   16.6170   41.7070 C.3   1009  C5P1009     0.2319
     12  O2'       23.3160   16.0570   43.0010 O.3   1009  C5P1009    -0.2157
     13  C1'       22.4610   17.9540   41.7050 C.3   1009  C5P1009     0.2400
     14  N1        21.1700   17.8920   41.0390 N.am  1009  C5P1009    -0.1778
     15  C2        19.9650   18.1630   41.7990 C.1   1009  C5P1009     0.2756
     16  N3        18.6830   18.0840   41.1200 N.2   1009  C5P1009    -0.3024
     17  C4        18.6120   17.7400   39.7380 C.2   1009  C5P1009     0.2346
     18  C5        19.8470   17.4610   38.9830 C.2   1009  C5P1009     0.0687
     19  C6        21.1490   17.5380   39.6580 C.2   1009  C5P1009     0.0836
     20  O2        19.9870   18.4480   42.9420 O.2   1009  C5P1009    -0.1925
     21  N4        17.4210   17.6750   39.1420 N.pl3 1009  C5P1009    -0.0921
@<TRIPOS>BOND
     1     4     2    2
     2    18    19    2
     3    18    17    1
     4    21    17    1
     5     1     2    1
     6    19    14    1
     7    17    16    2
     8     2     5    1
     9     2     3    1
    10     6     5    1
    11     6     7    1
    12     8     7    1
    13     8    13    1
    14    14    13    1
    15    14    15   am
    16     9     7    1
    17     9    11    1
    18     9    10    1
    19    16    15    2
    20    13    11    1
    21    11    12    1
    22    15    20    2
