@<TRIPOS>MOLECULE
4gu3_SIA_A_1.pdb
 20 20 0 0 0
SMALL
GASTEIGER

@<TRIPOS>ATOM
      1  C1        50.7190  -42.7890   44.8590 C.2   501  SIA501      0.3914
      2  C2        49.7190  -43.9190   45.2550 C.3   501  SIA501      0.2203
      3  C3        48.4070  -43.8270   44.4460 C.3   501  SIA501      0.0760
      4  C4        48.4430  -44.6000   43.1180 C.3   501  SIA501      0.1773
      5  C5        49.2180  -45.9240   43.0710 C.3   501  SIA501      0.1552
      6  C6        50.5410  -45.7890   43.8100 C.3   501  SIA501      0.1710
      7  C7        51.3800  -47.0600   43.9270 C.3   501  SIA501      0.2134
      8  C8        52.7140  -46.8480   44.6520 C.3   501  SIA501      0.2173
      9  C9        53.6690  -48.0210   44.5160 C.3   501  SIA501      0.2175
     10  C10       48.9720  -47.1440   40.9790 C.2   501  SIA501      0.2420
     11  C11       49.4000  -47.1090   39.5280 C.3   501  SIA501      0.0964
     12  N5        49.4980  -46.1410   41.6690 N.am  501  SIA501     -0.2020
     13  O1A       51.9830  -42.9500   44.8490 O.co2 501  SIA501     -0.2430
     14  O1B       50.2540  -41.6560   44.5610 O.co2 501  SIA501     -0.2430
     15  O4        47.1620  -44.6970   42.4820 O.3   501  SIA501     -0.2211
     16  O6        50.2440  -45.2720   45.1090 O.3   501  SIA501     -0.3429
     17  O7        50.6290  -47.9780   44.7150 O.3   501  SIA501     -0.2176
     18  O8        53.3980  -45.6210   44.3620 O.3   501  SIA501     -0.2175
     19  O9        54.7970  -47.8170   45.3780 O.3   501  SIA501     -0.2175
     20  O10       48.2300  -47.9990   41.4930 O.2   501  SIA501     -0.2733
@<TRIPOS>BOND
     1    11    10    1
     2    10    20    2
     3    10    12   am
     4    12     5    1
     5    15     4    1
     6     5     4    1
     7     5     6    1
     8     4     3    1
     9     6     7    1
    10     6    16    1
    11     7     8    1
    12     7    17    1
    13    18     8    1
    14     3     2    1
    15     9     8    1
    16     9    19    1
    17    14     1   ar
    18    13     1   ar
    19     1     2    1
    20    16     2    1
