@<TRIPOS>MOLECULE
4gu4_SIA_A_1.pdb
 20 20 0 0 0
SMALL
GASTEIGER

@<TRIPOS>ATOM
      1  C1       -11.2640   67.2250  -17.7180 C.2   501  SIA501      0.3914
      2  C2       -12.7180   66.9750  -18.1360 C.3   501  SIA501      0.2203
      3  C3       -13.3190   65.7350  -17.4410 C.3   501  SIA501      0.0760
      4  C4       -13.8520   66.0290  -16.0370 C.3   501  SIA501      0.1773
      5  C5       -14.7510   67.2620  -15.9330 C.3   501  SIA501      0.1552
      6  C6       -14.0450   68.4440  -16.6020 C.3   501  SIA501      0.1710
      7  C7       -14.8410   69.7500  -16.6700 C.3   501  SIA501      0.2134
      8  C8       -14.1080   70.8920  -17.3810 C.3   501  SIA501      0.2173
      9  C9       -14.3610   72.2120  -16.6910 C.3   501  SIA501      0.2175
     10  C10      -16.0550   67.8990  -13.9200 C.2   501  SIA501      0.2420
     11  C11      -15.9300   68.2360  -12.4640 C.3   501  SIA501      0.0964
     12  N5       -14.9020   67.6010  -14.5220 N.am  501  SIA501     -0.2020
     13  O1A      -10.8320   68.3910  -17.4780 O.co2 501  SIA501     -0.2430
     14  O1B      -10.5090   66.2170  -17.6370 O.co2 501  SIA501     -0.2430
     15  O4       -14.4770   64.8790  -15.4780 O.3   501  SIA501     -0.2211
     16  O6       -13.5650   68.1220  -17.9170 O.3   501  SIA501     -0.3429
     17  O7       -16.0740   69.5310  -17.3550 O.3   501  SIA501     -0.2176
     18  O8       -12.6890   70.7000  -17.5370 O.3   501  SIA501     -0.2175
     19  O9       -13.7010   73.2190  -17.4610 O.3   501  SIA501     -0.2175
     20  O10      -17.1400   67.8880  -14.4820 O.2   501  SIA501     -0.2733
@<TRIPOS>BOND
     1     2    16    1
     2     2     1    1
     3     2     3    1
     4    16     6    1
     5     1    14   ar
     6     1    13   ar
     7    18     8    1
     8    19     9    1
     9     3     4    1
    10     8     9    1
    11     8     7    1
    12    17     7    1
    13     7     6    1
    14     6     5    1
    15     4     5    1
    16     4    15    1
    17     5    12    1
    18    12    10   am
    19    20    10    2
    20    10    11    1
