@<TRIPOS>MOLECULE
4gug_3DS_A_1.pdb
 12 12 0 0 0
SMALL
GASTEIGER

@<TRIPOS>ATOM
      1  OAA       19.5410  -14.6510   33.5050 O.co2 302  3DS302     -0.2409
      2  OAB       20.0360  -18.5280   30.1300 O.2   302  3DS302     -0.2886
      3  OAC       21.6140  -14.6680   34.3180 O.co2 302  3DS302     -0.2409
      4  OAD       24.1080  -15.9830   30.1650 O.3   302  3DS302     -0.2196
      5  OAE       22.5450  -18.0600   28.9730 O.3   302  3DS302     -0.2120
      6  CAF       20.3650  -16.8080   31.7820 C.2   302  3DS302      0.0425
      7  CAG       22.6230  -15.7100   31.9090 C.3   302  3DS302      0.0692
      8  CAH       20.7570  -15.0040   33.4350 C.2   302  3DS302      0.3840
      9  CAI       20.8390  -17.7370   30.7470 C.2   302  3DS302      0.2057
     10  CAJ       21.2020  -15.8520   32.3710 C.2   302  3DS302      0.0631
     11  CAK       22.7590  -16.1910   30.5060 C.3   302  3DS302      0.1942
     12  CAL       22.2710  -17.6700   30.3190 C.3   302  3DS302      0.2432
@<TRIPOS>BOND
     1     5    12    1
     2     2     9    2
     3     4    11    1
     4    12    11    1
     5    12     9    1
     6    11     7    1
     7     9     6    1
     8     6    10    2
     9     7    10    1
    10    10     8    1
    11     8     1   ar
    12     8     3   ar
