@<TRIPOS>MOLECULE
4guh_3DS_A_1.pdb
 11 11 0 0 0
SMALL
GASTEIGER

@<TRIPOS>ATOM
      1  OAA        2.1230    0.2780   -1.5740 O.co2 301  3DS301     -0.2409
      2  OAC        2.4440   -1.8720   -1.5360 O.co2 301  3DS301     -0.2409
      3  OAD        1.5400   -2.8850    3.5370 O.3   301  3DS301     -0.2200
      4  OAE        3.2420   -0.7510    4.7490 O.3   301  3DS301     -0.2200
      5  CAF        3.3140    0.1330    1.1170 C.2   301  3DS301     -0.0211
      6  CAG        1.9640   -1.9370    1.3470 C.3   301  3DS301      0.0682
      7  CAH        2.3390   -0.7780   -0.9260 C.2   301  3DS301      0.3836
      8  CAI        3.7860   -0.0110    2.5210 C.3   301  3DS301      0.0614
      9  CAJ        2.5260   -0.7880    0.5380 C.2   301  3DS301      0.0560
     10  CAK        1.9220   -1.6560    2.8550 C.3   301  3DS301      0.1870
     11  CAL        3.2800   -1.1500    3.3660 C.3   301  3DS301      0.1867
@<TRIPOS>BOND
     1     1     7   ar
     2     2     7   ar
     3     7     9    1
     4     9     5    2
     5     9     6    1
     6     5     8    1
     7     6    10    1
     8     8    11    1
     9    10    11    1
    10    10     3    1
    11    11     4    1
