@<TRIPOS>MOLECULE
4gui_QIC_A_1.pdb
 13 13 0 0 0
SMALL
GASTEIGER

@<TRIPOS>ATOM
      1  C1       -17.1370    1.0480   17.9800 C.3   301  QIC301      0.2239
      2  O1       -17.9490    2.2020   17.6980 O.3   301  QIC301     -0.2139
      3  C2       -16.4760    1.2190   19.3510 C.3   301  QIC301      0.0773
      4  O2       -18.2630    2.3370   20.5600 O.3   301  QIC301     -0.2202
      5  C3       -17.4480    1.1650   20.5140 C.3   301  QIC301      0.1877
      6  O3       -19.3710    0.0710   21.4530 O.3   301  QIC301     -0.2177
      7  C4       -18.3670   -0.0520   20.4480 C.3   301  QIC301      0.2123
      8  O4       -19.8030   -1.4050   19.1030 O.3   301  QIC301     -0.2202
      9  C5       -19.0320   -0.1970   19.0770 C.3   301  QIC301      0.1877
     10  O5       -15.7590    2.0320   16.2960 O.co2 301  QIC301     -0.2429
     11  C6       -17.9940   -0.2240   17.9580 C.3   301  QIC301      0.0773
     12  O6       -15.3280   -0.0180   16.8600 O.co2 301  QIC301     -0.2429
     13  C7       -16.0140    1.0110   16.9820 C.2   301  QIC301      0.3918
@<TRIPOS>BOND
     1    10    13   ar
     2    12    13   ar
     3    13     1    1
     4     2     1    1
     5    11     1    1
     6    11     9    1
     7     1     3    1
     8     9     8    1
     9     9     7    1
    10     3     5    1
    11     7     5    1
    12     7     6    1
    13     5     4    1
