@<TRIPOS>MOLECULE
4guj_SKM_A_1.pdb
 12 12 0 0 0
SMALL
GASTEIGER

@<TRIPOS>ATOM
      1  O12       17.1840    0.0100   83.2070 O.3   301  SKM301     -0.2173
      2  C8        18.2930    0.0720   82.3060 C.3   301  SKM301      0.2167
      3  C6        17.9080   -0.3960   80.9170 C.3   301  SKM301      0.1896
      4  O7        17.2310   -1.6600   81.0070 O.3   301  SKM301     -0.2200
      5  C5        19.1700   -0.5100   80.0710 C.3   301  SKM301      0.0684
      6  C4        20.0250    0.7540   80.1290 C.2   301  SKM301      0.0584
      7  C1        21.0640    0.9290   79.1110 C.2   301  SKM301      0.3837
      8  O2        21.6460   -0.1000   78.6980 O.co2 301  SKM301     -0.2409
      9  O3        21.3540    2.0680   78.6710 O.co2 301  SKM301     -0.2409
     10  C10       19.8320    1.6530   81.0970 C.2   301  SKM301      0.0111
     11  C9        18.8040    1.4880   82.2020 C.3   301  SKM301      0.2066
     12  O11       17.6960    2.3600   81.9550 O.3   301  SKM301     -0.2155
@<TRIPOS>BOND
     1     9     7   ar
     2     8     7   ar
     3     7     6    1
     4     5     6    1
     5     5     3    1
     6     6    10    2
     7     3     4    1
     8     3     2    1
     9    10    11    1
    10    12    11    1
    11    11     2    1
    12     2     1    1
