@<TRIPOS>MOLECULE
4gup_6FP_A_1.pdb
 13 14 0 0 0
SMALL
GASTEIGER

@<TRIPOS>ATOM
      1  C9        -7.2990   -5.8450   -9.9080 C.3   301  6FP301      0.0637
      2  C6        -7.7530   -6.8950  -10.6880 C.2   301  6FP301      0.1143
      3  N5        -7.0570   -8.0470  -10.7260 N.2   301  6FP301     -0.3856
      4  C4A       -7.4650   -9.1010  -11.4760 C.2   301  6FP301      0.2988
      5  C4        -6.7230  -10.2940  -11.5010 C.1   301  6FP301      0.2569
      6  O4        -5.6790  -10.4290  -10.8460 O.2   301  6FP301     -0.2052
      7  N3        -7.2020  -11.3490  -12.3010 N.2   301  6FP301     -0.2466
      8  C2        -8.3900  -11.1940  -13.0470 C.1   301  6FP301      0.2609
      9  N2        -8.8310  -12.1980  -13.7970 N.pl3 301  6FP301     -0.0220
     10  N1        -9.0790  -10.0370  -13.0020 N.2   301  6FP301     -0.2672
     11  C8A       -8.6490   -8.9990  -12.2430 C.1   301  6FP301      0.1401
     12  N8        -9.3630   -7.8490  -12.2190 N.2   301  6FP301     -0.1993
     13  C7        -8.9240   -6.7560  -11.4290 C.3   301  6FP301      0.1913
@<TRIPOS>BOND
     1     9     8    1
     2     8    10    2
     3     8     7    2
     4    10    11    2
     5     7     5    2
     6    11    12    2
     7    11     4    1
     8    12    13    1
     9     5     4    1
    10     5     6    2
    11     4     3    2
    12    13     2    1
    13     3     2    2
    14     2     1    1
