@<TRIPOS>MOLECULE
4guw_LP5_A_1.pdb
 48 48 0 0 0
SMALL
GASTEIGER

@<TRIPOS>ATOM
      1  O48       22.1390    8.1380   -1.8130 O.3   304  LP5304     -0.1145
      2  P45       21.4290    6.7690   -2.0790 P.3   304  LP5304      0.5345
      3  O46       21.2340    6.0330   -0.7950 O.3   304  LP5304     -0.1145
      4  O47       20.2670    6.7410   -3.0000 O.2   304  LP5304     -0.2223
      5  O1        22.5250    6.6940   -3.2900 O.3   304  LP5304     -0.2424
      6  C1        22.2330    7.1800   -4.6090 C.3   304  LP5304      0.2686
      7  C2        21.9010    5.9720   -5.5070 C.3   304  LP5304      0.1942
      8  N2        22.7800    4.8460   -5.0840 N.am  304  LP5304     -0.1981
      9  C7        23.5540    4.0730   -5.8760 C.2   304  LP5304      0.2442
     10  C8        24.2990    3.0000   -5.0730 C.3   304  LP5304      0.1196
     11  C16       23.4170    1.7770   -5.0250 C.3   304  LP5304      0.1611
     12  O44       22.8860    1.7490   -3.6880 O.3   304  LP5304     -0.2226
     13  C17       24.2830    0.5510   -5.3220 C.3   304  LP5304      0.0334
     14  C18       23.6770   -0.4020   -6.3590 C.3   304  LP5304      0.0026
     15  C19       24.6790   -1.5490   -6.6380 C.3   304  LP5304      0.0001
     16  C20       23.9860   -2.7790   -7.2480 C.3   304  LP5304      0.0000
     17  C21       24.8150   -4.0590   -7.0390 C.3   304  LP5304      0.0000
     18  C22       23.8490   -5.2550   -7.0410 C.3   304  LP5304      0.0000
     19  C23       23.1320   -6.5310   -6.5390 C.3   304  LP5304      0.0000
     20  C24       24.2220   -7.6520   -6.4100 C.3   304  LP5304      0.0000
     21  C25       25.0090   -8.9330   -6.7280 C.3   304  LP5304      0.0000
     22  C26       24.1360   -9.9190   -7.5200 C.3   304  LP5304      0.0000
     23  C27       24.4520  -11.3340   -7.0440 C.3   304  LP5304      0.0000
     24  O7        23.6930    4.1810   -7.1130 O.2   304  LP5304     -0.2733
     25  C3        22.0160    6.3370   -7.0300 C.3   304  LP5304      0.2262
     26  C4        21.9950    7.9370   -7.1780 C.3   304  LP5304      0.2231
     27  C5        23.1900    8.5970   -6.3650 C.3   304  LP5304      0.1845
     28  O5        23.4170    7.9080   -5.0540 O.3   304  LP5304     -0.3258
     29  C6        22.9770   10.0930   -6.0380 C.3   304  LP5304      0.2142
     30  O6        21.9790   10.7190   -6.8470 O.3   304  LP5304     -0.2176
     31  O4        21.9210    8.3900   -8.5650 O.3   304  LP5304     -0.2165
     32  O3        21.0210    5.5350   -7.8750 O.3   304  LP5304     -0.4475
     33  C28       21.3130    5.3120   -9.2180 C.2   304  LP5304      0.3196
     34  O42       22.3510    5.6970   -9.7750 O.2   304  LP5304     -0.2500
     35  C29       20.2390    4.5100  -10.0470 C.3   304  LP5304      0.1423
     36  C30       20.1950    4.7830  -11.5700 C.3   304  LP5304      0.1631
     37  O43       21.4850    4.4770  -12.1510 O.3   304  LP5304     -0.2225
     38  C31       19.7700    6.2400  -11.9100 C.3   304  LP5304      0.0335
     39  C32       18.2710    6.3560  -12.2290 C.3   304  LP5304      0.0026
     40  C33       17.9860    7.5480  -13.1650 C.3   304  LP5304      0.0001
     41  C34       17.8770    7.0900  -14.6480 C.3   304  LP5304      0.0000
     42  C35       18.2620    8.2290  -15.6320 C.3   304  LP5304      0.0000
     43  C36       19.7980    8.2230  -15.8460 C.3   304  LP5304      0.0000
     44  C37       20.4870    9.1710  -14.8510 C.3   304  LP5304      0.0000
     45  C38       21.2080   10.3130  -15.5950 C.3   304  LP5304      0.0000
     46  C39       22.7210   10.0680  -15.6460 C.3   304  LP5304      0.0000
     47  C40       23.4110   11.2550  -16.3660 C.3   304  LP5304      0.0000
     48  C41       23.5510   10.9490  -17.8790 C.3   304  LP5304      0.0000
@<TRIPOS>BOND
     1    48    47    1
     2    47    46    1
     3    43    42    1
     4    43    44    1
     5    46    45    1
     6    42    41    1
     7    45    44    1
     8    41    40    1
     9    40    39    1
    10    39    38    1
    11    37    36    1
    12    38    36    1
    13    36    35    1
    14    35    33    1
    15    34    33    2
    16    33    32    1
    17    31    26    1
    18    32    25    1
    19    22    23    1
    20    22    21    1
    21    16    17    1
    22    16    15    1
    23    26    25    1
    24    26    27    1
    25    24     9    2
    26    18    17    1
    27    18    19    1
    28    25     7    1
    29    30    29    1
    30    21    20    1
    31    15    14    1
    32    19    20    1
    33    27    29    1
    34    27    28    1
    35    14    13    1
    36     9     8   am
    37     9    10    1
    38     7     8    1
    39     7     6    1
    40    13    11    1
    41    10    11    1
    42    28     6    1
    43    11    12    1
    44     6     5    1
    45     5     2    1
    46     4     2    2
    47     2     1    1
    48     2     3    1
