@<TRIPOS>MOLECULE
4guy_KLJ_A_1.pdb
 19 19 0 0 0
SMALL
GASTEIGER

@<TRIPOS>ATOM
      1  C1         2.8880   -5.6060    6.6180 C.3   306  KLJ306      0.0534
      2  N1         1.3340   -4.7330    3.5610 N.3   306  KLJ306     -0.0751
      3  O1         7.7360   -7.1950    9.1460 O.3   306  KLJ306     -0.4714
      4  S1         1.2100   -5.8740    4.6900 S.O2  306  KLJ306      0.0580
      5  C2         4.1800   -6.0340    7.2380 C.ar  306  KLJ306     -0.0202
      6  N2         1.2140   -1.6560    5.3090 N.am  306  KLJ306     -0.2014
      7  O2         2.7870   -2.3520    3.8400 O.2   306  KLJ306     -0.5380
      8  C3         4.1560   -6.4220    8.5670 C.ar  306  KLJ306     -0.0011
      9  O3         0.2630   -5.3130    5.6130 O.2   306  KLJ306     -0.1561
     10  C4         5.3540   -6.8220    9.1910 C.ar  306  KLJ306      0.0366
     11  O4         2.1280   -1.1000    6.2090 O.3   306  KLJ306     -0.4026
     12  C5         6.5760   -6.8020    8.4760 C.ar  306  KLJ306      0.1387
     13  O5         0.6820   -7.0950    4.1390 O.2   306  KLJ306     -0.1561
     14  C6         5.3870   -5.9960    6.5110 C.ar  306  KLJ306     -0.0011
     15  C7         6.5900   -6.3880    7.1240 C.ar  306  KLJ306      0.0366
     16  C8         2.6960   -6.2750    5.2700 C.3   306  KLJ306      0.1752
     17  C9         8.9750   -7.3960    8.4680 C.3   306  KLJ306      0.2525
     18  C10        1.6490   -2.4230    4.3020 C.2   306  KLJ306      0.1064
     19  C11        0.6730   -3.4480    3.7220 C.3   306  KLJ306      0.1658
@<TRIPOS>BOND
     1     2    19    1
     2     2     4    1
     3    19    18    1
     4     7    18    2
     5    13     4    2
     6    18     6   am
     7     4    16    1
     8     4     9    2
     9    16     1    1
    10     6    11    1
    11    14    15   ar
    12    14     5   ar
    13     1     5    1
    14    15    12   ar
    15     5     8   ar
    16    17     3    1
    17    12     3    1
    18    12    10   ar
    19     8    10   ar
