@<TRIPOS>MOLECULE
4gv1_0XZ_A_1.pdb
 30 33 0 0 0
SMALL
GASTEIGER

@<TRIPOS>ATOM
      1 CL3       -16.1850   -0.4780    9.5900 Cl    501  0XZ501     -0.0822
      2  C27      -16.7230    0.6360   10.7890 C.ar  501  0XZ501      0.0577
      3  C26      -18.0150    0.5540   11.2850 C.ar  501  0XZ501      0.0111
      4  C25      -18.4180    1.4630   12.2500 C.ar  501  0XZ501     -0.0018
      5  C28      -15.8340    1.6050   11.2380 C.ar  501  0XZ501      0.0111
      6  C29      -16.2390    2.5110   12.2170 C.ar  501  0XZ501     -0.0018
      7  C24      -17.5340    2.4390   12.7240 C.ar  501  0XZ501     -0.0024
      8  C20      -18.0120    3.4110   13.7970 C.3   501  0XZ501      0.1201
      9  C21      -18.3850    2.6590   15.0960 C.3   501  0XZ501      0.0617
     10  C22      -18.7820    3.5840   16.2550 C.3   501  0XZ501      0.1842
     11  O23      -17.7080    4.4200   16.6410 O.3   501  0XZ501     -0.2204
     12  N19      -19.1830    4.1310   13.2710 N.am  501  0XZ501     -0.2014
     13  C17      -19.0740    5.1350   12.3450 C.2   501  0XZ501      0.2575
     14  O18      -17.9650    5.4540   11.9130 O.2   501  0XZ501     -0.2718
     15  C13      -20.3800    5.7800   11.8600 C.3   501  0XZ501      0.1547
     16  C12      -20.0940    6.9710   10.9410 C.3   501  0XZ501      0.0774
     17  C11      -19.5770    6.5580    9.5390 C.3   501  0XZ501      0.2040
     18  N16      -21.1720    6.2410   13.0230 N.3   501  0XZ501     -0.1247
     19  C14      -21.1950    4.6930   11.0970 C.3   501  0XZ501      0.0774
     20  C15      -20.5100    4.3260    9.7760 C.3   501  0XZ501      0.2040
     21  N10      -20.5900    5.5900    9.0610 N.pl3 501  0XZ501     -0.1931
     22  C3       -21.6660    6.0240    8.2730 C.2   501  0XZ501      0.3148
     23  N5       -21.6200    7.3640    7.9470 N.2   501  0XZ501     -0.0389
     24  C6       -22.6390    7.9730    7.2530 C.3   501  0XZ501      0.3998
     25  N4       -23.7110    7.2450    6.8310 N.2   501  0XZ501     -0.1687
     26  C1       -22.7820    5.2800    7.8780 C.3   501  0XZ501      0.2132
     27  C9       -23.2330    3.9630    7.9850 C.2   501  0XZ501      0.0219
     28  C8       -24.4320    3.8200    7.3100 C.2   501  0XZ501      0.1063
     29  N7       -24.7380    5.0480    6.8510 N.2   501  0XZ501     -0.1961
     30  C2       -23.7630    5.9140    7.1610 C.1   501  0XZ501      0.0266
@<TRIPOS>BOND
     1    25    30    2
     2    25    24    1
     3    29    30    2
     4    29    28    1
     5    30    26    1
     6    24    23    1
     7    28    27    2
     8    26    27    1
     9    26    22    1
    10    23    22    2
    11    22    21    1
    12    21    17    1
    13    21    20    1
    14    17    16    1
    15     1     2    1
    16    20    19    1
    17     2     5   ar
    18     2     3   ar
    19    16    15    1
    20    19    15    1
    21     5     6   ar
    22     3     4   ar
    23    15    13    1
    24    15    18    1
    25    14    13    2
    26     6     7   ar
    27     4     7   ar
    28    13    12   am
    29     7     8    1
    30    12     8    1
    31     8     9    1
    32     9    10    1
    33    10    11    1
