@<TRIPOS>MOLECULE
4gva_ADP_A_1.pdb
 27 29 0 0 0
SMALL
GASTEIGER

@<TRIPOS>ATOM
      1  PB         1.0430   18.1450   13.9510 P.3   401  ADP401      0.5373
      2  O1B       -0.1250   18.5500   14.8310 O.3   401  ADP401     -0.1143
      3  O2B        1.6720   16.8000   14.2380 O.3   401  ADP401     -0.1143
      4  O3B        2.0750   19.2420   13.7480 O.2   401  ADP401     -0.2221
      5  PA        -0.5500   16.6350   12.0950 P.3   401  ADP401      0.2231
      6  O1A       -0.1990   15.4130   12.9110 O.3   401  ADP401     -0.4370
      7  O2A       -0.4850   16.5760   10.5820 O.2   401  ADP401     -0.5169
      8  O3A        0.3290   17.9260   12.5210 O.3   401  ADP401     -0.2261
      9  O5'       -2.0510   17.0430   12.4760 O.3   401  ADP401     -0.3111
     10  C5'       -2.6130   18.3190   12.1700 C.3   401  ADP401      0.1813
     11  C4'       -3.8730   18.4040   13.0110 C.3   401  ADP401      0.1821
     12  O4'       -4.9760   17.6700   12.4270 O.3   401  ADP401     -0.3135
     13  C3'       -3.5520   17.7430   14.3500 C.3   401  ADP401      0.2184
     14  O3'       -3.1480   18.6690   15.3680 O.3   401  ADP401     -0.2174
     15  C2'       -4.8120   16.9930   14.7170 C.3   401  ADP401      0.2570
     16  O2'       -5.4830   17.7100   15.7520 O.3   401  ADP401     -0.2130
     17  C1'       -5.5980   16.8460   13.4080 C.3   401  ADP401      0.3186
     18  N9        -5.5250   15.3960   13.0390 N.pl3 401  ADP401     -0.1439
     19  C8        -4.4380   14.7360   12.5670 C.3   401  ADP401      0.3377
     20  N7        -4.7270   13.4230   12.3560 N.2   401  ADP401     -0.2095
     21  C5        -6.0000   13.2030   12.6900 C.2   401  ADP401      0.2526
     22  C6        -6.9200   12.0390   12.7090 C.2   401  ADP401      0.4393
     23  N6        -6.5330   10.7870   12.3040 N.pl3 401  ADP401      0.2180
     24  N1        -8.1810   12.2500   13.1210 N.2   401  ADP401      0.0021
     25  C2        -8.6330   13.4730   13.5190 C.3   401  ADP401      0.5254
     26  N3        -7.8620   14.5700   13.5400 N.2   401  ADP401     -0.0055
     27  C4        -6.5370   14.5090   13.1470 C.2   401  ADP401      0.3518
@<TRIPOS>BOND
     1     7     5    2
     2     5     9    1
     3     5     8    1
     4     5     6    1
     5    10     9    1
     6    10    11    1
     7    23    22    1
     8    20    19    1
     9    20    21    2
    10    12    11    1
    11    12    17    1
    12     8     1    1
    13    19    18    1
    14    21    22    1
    15    21    27    1
    16    22    24    2
    17    11    13    1
    18    18    27    1
    19    18    17    1
    20    24    25    1
    21    27    26    2
    22    17    15    1
    23    25    26    1
    24     4     1    2
    25     1     3    1
    26     1     2    1
    27    13    15    1
    28    13    14    1
    29    15    16    1
