@<TRIPOS>MOLECULE
4gvl_AMP_A_1.pdb
 23 25 0 0 0
SMALL
GASTEIGER

@<TRIPOS>ATOM
      1  P         17.2830  -50.2050  -58.0330 P.3   602  AMP602      0.5327
      2  O1P       17.8740  -51.4940  -57.5060 O.3   602  AMP602     -0.1145
      3  O2P       16.3990  -49.5210  -57.0130 O.3   602  AMP602     -0.1145
      4  O3P       16.7460  -50.3030  -59.4590 O.2   602  AMP602     -0.2224
      5  O5'       18.5560  -49.2040  -58.1110 O.3   602  AMP602     -0.2675
      6  C5'       18.5020  -47.8850  -58.6750 C.3   602  AMP602      0.1860
      7  C4'       19.8040  -47.5250  -59.3940 C.3   602  AMP602      0.1823
      8  O4'       19.7580  -46.2010  -59.9430 O.3   602  AMP602     -0.3135
      9  C3'       21.0160  -47.5730  -58.4710 C.3   602  AMP602      0.2184
     10  O3'       21.9160  -48.5460  -59.0050 O.3   602  AMP602     -0.2174
     11  C2'       21.6180  -46.1700  -58.4970 C.3   602  AMP602      0.2570
     12  O2'       23.0610  -46.1540  -58.4540 O.3   602  AMP602     -0.2130
     13  C1'       21.0440  -45.5780  -59.7850 C.3   602  AMP602      0.3186
     14  N9        21.0020  -44.0790  -59.7890 N.pl3 602  AMP602     -0.1439
     15  C8        20.5740  -43.2740  -58.7880 C.3   602  AMP602      0.3377
     16  N7        20.6840  -41.9570  -59.1280 N.2   602  AMP602     -0.2095
     17  C5        21.1940  -41.8950  -60.3810 C.2   602  AMP602      0.2526
     18  C6        21.5740  -40.8220  -61.3470 C.2   602  AMP602      0.4393
     19  N6        21.4270  -39.5110  -61.0470 N.pl3 602  AMP602      0.2180
     20  N1        22.0750  -41.1950  -62.5460 N.2   602  AMP602      0.0021
     21  C2        22.2420  -42.4930  -62.8670 C.3   602  AMP602      0.5254
     22  N3        21.9270  -43.5150  -62.0440 N.2   602  AMP602     -0.0055
     23  C4        21.4060  -43.2950  -60.8080 C.2   602  AMP602      0.3518
@<TRIPOS>BOND
     1    21    20    1
     2    21    22    1
     3    20    18    2
     4    22    23    2
     5    18    19    1
     6    18    17    1
     7    23    17    1
     8    23    14    1
     9    17    16    2
    10     8    13    1
    11     8     7    1
    12    14    13    1
    13    14    15    1
    14    13    11    1
    15     4     1    2
    16     7     6    1
    17     7     9    1
    18    16    15    1
    19    10     9    1
    20     6     5    1
    21    11     9    1
    22    11    12    1
    23     5     1    1
    24     1     2    1
    25     1     3    1
