@<TRIPOS>MOLECULE
4gvo_HIS_A_1.pdb
 11 11 0 0 0
SMALL
GASTEIGER

@<TRIPOS>ATOM
      1  N         -8.5510   35.7280   -4.3290 N.3   703  HIS703     -0.1204
      2  CA        -7.4250   34.8230   -3.9420 C.3   703  HIS703      0.2002
      3  C         -7.5510   34.2960   -2.5520 C.2   703  HIS703      0.3823
      4  O         -8.3950   34.8030   -1.7980 O.co2 703  HIS703     -0.2440
      5  CB        -6.0980   35.5450   -4.0930 C.3   703  HIS703      0.0776
      6  CG        -5.5500   35.4520   -5.4850 C.2   703  HIS703      0.0767
      7  ND1       -6.2010   35.9850   -6.5290 N.2   703  HIS703     -0.2470
      8  CD2       -4.4110   34.7990   -6.0140 C.2   703  HIS703      0.1098
      9  CE1       -5.5110   35.7010   -7.6630 C.3   703  HIS703      0.2505
     10  NE2       -4.4150   35.0050   -7.3270 N.2   703  HIS703     -0.2415
     11  OXT       -6.8190   33.3490   -2.1820 O.co2 703  HIS703     -0.2440
@<TRIPOS>BOND
     1     9    10    1
     2     9     7    1
     3    10     8    2
     4     7     6    2
     5     8     6    1
     6     6     5    1
     7     1     2    1
     8     5     2    1
     9     2     3    1
    10     3    11   ar
    11     3     4   ar
