@<TRIPOS>MOLECULE
4gvx_NAP_A_1.pdb
 48 52 0 0 0
SMALL
GASTEIGER

@<TRIPOS>ATOM
      1  PA        11.9720  -60.2190   18.9080 P.3   301  NAP301      0.2189
      2  O1A       12.9480  -59.2600   18.2850 O.2   301  NAP301     -0.5170
      3  O2A       12.5570  -60.9490   20.0910 O.3   301  NAP301     -0.4371
      4  O5B       10.6880  -59.3970   19.3430 O.3   301  NAP301     -0.3112
      5  C5B        9.7230  -60.0320   20.1280 C.3   301  NAP301      0.1813
      6  C4B        9.3350  -59.1590   21.3060 C.3   301  NAP301      0.1820
      7  O4B        8.3180  -59.8240   22.0140 O.3   301  NAP301     -0.3136
      8  C3B       10.4290  -58.8500   22.2850 C.3   301  NAP301      0.2157
      9  O3B       10.3410  -57.5090   22.6240 O.3   301  NAP301     -0.2175
     10  C2B       10.1500  -59.7340   23.4330 C.3   301  NAP301      0.2314
     11  O2B       10.6530  -59.2640   24.6640 O.3   301  NAP301     -0.2630
     12  C1B        8.6530  -59.7750   23.3670 C.3   301  NAP301      0.3158
     13  N9A        8.0590  -60.9060   24.0360 N.pl3 301  NAP301     -0.1439
     14  C8A        8.3500  -62.2170   23.8480 C.3   301  NAP301      0.3377
     15  N7A        7.5930  -62.9640   24.6510 N.2   301  NAP301     -0.2095
     16  C5A        6.8170  -62.1590   25.3950 C.2   301  NAP301      0.2526
     17  C6A        5.8500  -62.3660   26.3770 C.2   301  NAP301      0.4393
     18  N6A        5.5370  -63.7080   26.8150 N.pl3 301  NAP301      0.2180
     19  N1A        5.2130  -61.3200   26.9340 N.2   301  NAP301      0.0021
     20  C2A        5.4830  -60.0480   26.5540 C.3   301  NAP301      0.5254
     21  N3A        6.4280  -59.7930   25.5990 N.2   301  NAP301     -0.0055
     22  C4A        7.0920  -60.8250   25.0080 C.2   301  NAP301      0.3518
     23  O3        11.4790  -61.3630   17.9090 O.3   301  NAP301     -0.2703
     24  PN        11.2340  -61.4090   16.3330 P.3   301  NAP301      0.2189
     25  O1N       12.4320  -62.0610   15.6760 O.2   301  NAP301     -0.5170
     26  O2N       10.9140  -60.0520   15.7940 O.3   301  NAP301     -0.4371
     27  O5D       10.0320  -62.4280   16.2090 O.3   301  NAP301     -0.3112
     28  C5D        8.6840  -62.0130   16.1990 C.3   301  NAP301      0.1813
     29  C4D        7.8280  -63.1510   15.6470 C.3   301  NAP301      0.1799
     30  O4D        8.2920  -63.5260   14.3700 O.3   301  NAP301     -0.3327
     31  C3D        7.7920  -64.3770   16.5140 C.3   301  NAP301      0.2158
     32  O3D        6.4990  -64.8480   16.6430 O.3   301  NAP301     -0.2175
     33  C2D        8.6250  -65.3390   15.7740 C.3   301  NAP301      0.2309
     34  O2D        8.2320  -66.6470   16.0100 O.3   301  NAP301     -0.2158
     35  C1D        8.3940  -64.9210   14.3690 C.3   301  NAP301      0.2263
     36  N1N        9.4400  -65.3040   13.4170 N.pl3 301  NAP301     -0.2787
     37  C2N       10.6840  -64.6960   13.4790 C.3   301  NAP301      0.1244
     38  C3N       11.6710  -65.0560   12.5450 C.2   301  NAP301      0.0544
     39  C7N       13.0500  -64.4410   12.5530 C.2   301  NAP301      0.2818
     40  O7N       13.8540  -64.8710   11.7450 O.2   301  NAP301     -0.2670
     41  N7N       13.4520  -63.3910   13.4430 N.am  301  NAP301     -0.0839
     42  C4N       11.3840  -66.0230   11.5820 C.2   301  NAP301      0.0033
     43  C5N       10.1530  -66.6380   11.5430 C.2   301  NAP301      0.0157
     44  C6N        9.1700  -66.2640   12.4620 C.2   301  NAP301      0.0633
     45  P2B       12.0110  -59.7640   25.3170 P.3   301  NAP301      0.5328
     46  O1X       12.8530  -60.5090   24.2980 O.2   301  NAP301     -0.2224
     47  O2X       12.7520  -58.5190   25.7810 O.3   301  NAP301     -0.1145
     48  O3X       11.7290  -60.6450   26.4960 O.3   301  NAP301     -0.1145
@<TRIPOS>BOND
     1    43    42    1
     2    43    44    2
     3    42    38    2
     4    40    39    2
     5    44    36    1
     6    38    39    1
     7    38    37    1
     8    39    41   am
     9    36    37    1
    10    36    35    1
    11    35    30    1
    12    35    33    1
    13    30    29    1
    14    29    28    1
    15    29    31    1
    16    25    24    2
    17    33    34    1
    18    33    31    1
    19    26    24    1
    20    28    27    1
    21    27    24    1
    22    24    23    1
    23    31    32    1
    24    23     1    1
    25     2     1    2
    26     1     4    1
    27     1     3    1
    28     4     5    1
    29     5     6    1
    30     6     7    1
    31     6     8    1
    32     7    12    1
    33     8     9    1
    34     8    10    1
    35    12    10    1
    36    12    13    1
    37    10    11    1
    38    14    13    1
    39    14    15    1
    40    13    22    1
    41    46    45    2
    42    15    16    2
    43    11    45    1
    44    22    16    1
    45    22    21    2
    46    45    47    1
    47    45    48    1
    48    16    17    1
    49    21    20    1
    50    17    18    1
    51    17    19    2
    52    20    19    1
