@<TRIPOS>MOLECULE
4gvx_FUL_A_1.pdb
 11 11 0 0 0
SMALL
GASTEIGER

@<TRIPOS>ATOM
      1  C1        12.5900  -68.7150   13.1210 C.3   303  FUL303      0.3023
      2  C2        13.2800  -69.6450   12.1710 C.3   303  FUL303      0.2434
      3  O2        12.6150  -69.6900   10.9560 O.3   303  FUL303     -0.2148
      4  C3        14.6830  -69.1590   11.9550 C.3   303  FUL303      0.2198
      5  O3        15.3490  -70.0980   11.1770 O.3   303  FUL303     -0.2174
      6  C4        15.3690  -68.9570   13.2830 C.3   303  FUL303      0.2118
      7  O4        15.5860  -70.1830   13.9070 O.3   303  FUL303     -0.2177
      8  C5        14.4980  -68.0630   14.1240 C.3   303  FUL303      0.1509
      9  C6        15.1340  -67.7290   15.4430 C.3   303  FUL303      0.0350
     10  O5        13.2610  -68.6670   14.3200 O.3   303  FUL303     -0.3264
     11  O1        11.2960  -69.1400   13.3400 O.3   303  FUL303     -0.1869
@<TRIPOS>BOND
     1     3     2    1
     2     5     4    1
     3     4     2    1
     4     4     6    1
     5     2     1    1
     6     1    11    1
     7     1    10    1
     8     6     7    1
     9     6     8    1
    10     8    10    1
    11     8     9    1
