@<TRIPOS>MOLECULE
4gvy_CIR_A_1.pdb
 12 11 0 0 0
SMALL
GASTEIGER

@<TRIPOS>ATOM
      1  C1        33.2270    5.8740   42.4060 C.2   403  CIR403      0.3819
      2  O1        33.1970    6.7880   43.2410 O.co2 403  CIR403     -0.2441
      3  O2        33.6500    4.7080   42.6030 O.co2 403  CIR403     -0.2441
      4  C2        32.6800    6.1690   40.9310 C.3   403  CIR403      0.1944
      5  N2        33.1220    5.0780   40.0540 N.3   403  CIR403     -0.1208
      6  C3        31.1240    6.2210   41.0190 C.3   403  CIR403      0.0324
      7  C4        30.4510    5.0120   41.7080 C.3   403  CIR403      0.0256
      8  C5        28.9430    5.3160   42.0200 C.3   403  CIR403      0.1169
      9  N6        28.7650    6.6920   42.5360 N.am  403  CIR403     -0.1859
     10  C7        28.5270    6.9290   43.8820 C.2   403  CIR403      0.3589
     11  O7        28.4270    6.0100   44.7380 O.2   403  CIR403     -0.2474
     12  N8        28.3870    8.2350   44.3250 N.am  403  CIR403     -0.0679
@<TRIPOS>BOND
     1     5     4    1
     2     4     6    1
     3     4     1    1
     4     6     7    1
     5     7     8    1
     6     8     9    1
     7     1     3   ar
     8     1     2   ar
     9     9    10   am
    10    10    12   am
    11    10    11    2
