@<TRIPOS>MOLECULE
4gvy_ADP_A_1.pdb
 27 29 0 0 0
SMALL
GASTEIGER

@<TRIPOS>ATOM
      1  PB        23.0460   10.1040   38.3310 P.3   402  ADP402      0.5373
      2  O1B       24.0510   10.0380   37.2030 O.2   402  ADP402     -0.2221
      3  O2B       21.6680   10.5840   37.9610 O.3   402  ADP402     -0.1143
      4  O3B       23.1650    8.9210   39.2630 O.3   402  ADP402     -0.1143
      5  PA        24.6420   12.3090   39.4970 P.3   402  ADP402      0.2231
      6  O1A       25.6470   12.2890   38.3900 O.2   402  ADP402     -0.5169
      7  O2A       25.0090   12.6590   40.9130 O.3   402  ADP402     -0.4370
      8  O3A       23.3300   11.5250   39.3030 O.3   402  ADP402     -0.2261
      9  O5'       23.9850   13.9160   39.0890 O.3   402  ADP402     -0.3111
     10  C5'       23.3660   14.1060   37.9300 C.3   402  ADP402      0.1813
     11  C4'       22.6200   15.4810   37.8880 C.3   402  ADP402      0.1821
     12  O4'       21.3680   15.3480   38.5690 O.3   402  ADP402     -0.3135
     13  C3'       23.3830   16.5840   38.6430 C.3   402  ADP402      0.2184
     14  O3'       23.3030   17.8030   37.9720 O.3   402  ADP402     -0.2174
     15  C2'       22.5730   16.7660   39.9570 C.3   402  ADP402      0.2570
     16  O2'       22.4820   18.1100   40.3080 O.3   402  ADP402     -0.2130
     17  C1'       21.1820   16.3880   39.4270 C.3   402  ADP402      0.3186
     18  N9        20.1830   15.9990   40.4730 N.pl3 402  ADP402     -0.1439
     19  C8        20.2570   14.8380   41.2720 C.3   402  ADP402      0.3377
     20  N7        19.2230   14.7390   42.1350 N.2   402  ADP402     -0.2095
     21  C5        18.4500   15.8780   41.8760 C.2   402  ADP402      0.2526
     22  C6        17.2390   16.3550   42.4360 C.2   402  ADP402      0.4393
     23  N6        16.5900   15.6690   43.4450 N.pl3 402  ADP402      0.2180
     24  N1        16.6820   17.5250   41.9880 N.2   402  ADP402      0.0021
     25  C2        17.3630   18.1750   40.9930 C.3   402  ADP402      0.5254
     26  N3        18.5100   17.8420   40.3700 N.2   402  ADP402     -0.0055
     27  C4        19.0420   16.6640   40.8450 C.2   402  ADP402      0.3518
@<TRIPOS>BOND
     1     2     1    2
     2    11    10    1
     3    11    12    1
     4    11    13    1
     5    10     9    1
     6     3     1    1
     7    14    13    1
     8     1     4    1
     9     1     8    1
    10     6     5    2
    11    12    17    1
    12    13    15    1
    13     9     5    1
    14     8     5    1
    15    17    15    1
    16    17    18    1
    17     5     7    1
    18    15    16    1
    19    26    27    2
    20    26    25    1
    21    18    27    1
    22    18    19    1
    23    27    21    1
    24    25    24    1
    25    19    20    1
    26    21    20    2
    27    21    22    1
    28    24    22    2
    29    22    23    1
