@<TRIPOS>MOLECULE
4gvz_ADP_A_1.pdb
 27 29 0 0 0
SMALL
GASTEIGER

@<TRIPOS>ATOM
      1  PB        -7.6130   -6.0600   19.9070 P.3   401  ADP401      0.5373
      2  O1B       -8.3330   -4.7810   20.2730 O.3   401  ADP401     -0.1143
      3  O2B       -7.2700   -7.0240   21.0210 O.3   401  ADP401     -0.1143
      4  O3B       -8.1320   -6.6430   18.6090 O.2   401  ADP401     -0.2221
      5  PA        -5.1050   -4.3550   19.8240 P.3   401  ADP401      0.2231
      6  O1A       -5.7240   -3.2200   20.5730 O.3   401  ADP401     -0.4370
      7  O2A       -3.9910   -4.1170   18.8370 O.2   401  ADP401     -0.5169
      8  O3A       -5.8650   -5.6960   19.7120 O.3   401  ADP401     -0.2261
      9  O5'       -3.9230   -4.7890   21.1920 O.3   401  ADP401     -0.3111
     10  C5'       -4.2300   -5.6010   22.1990 C.3   401  ADP401      0.1813
     11  C4'       -2.9380   -6.3710   22.7430 C.3   401  ADP401      0.1821
     12  O4'       -2.8210   -7.6340   22.0700 O.3   401  ADP401     -0.3135
     13  C3'       -1.6150   -5.6130   22.4530 C.3   401  ADP401      0.2184
     14  O3'       -0.7800   -5.5000   23.5660 O.3   401  ADP401     -0.2174
     15  C2'       -0.8520   -6.5160   21.4420 C.3   401  ADP401      0.2570
     16  O2'        0.4760   -6.6740   21.8420 O.3   401  ADP401     -0.2130
     17  C1'       -1.5200   -7.8780   21.6990 C.3   401  ADP401      0.3186
     18  N9        -1.4830   -8.8130   20.5100 N.pl3 401  ADP401     -0.1439
     19  C8        -2.3050   -8.6880   19.3600 C.3   401  ADP401      0.3377
     20  N7        -2.0670   -9.6500   18.4390 N.2   401  ADP401     -0.2095
     21  C5        -1.0480  -10.4330   19.0090 C.2   401  ADP401      0.2526
     22  C6        -0.3660  -11.5840   18.5450 C.2   401  ADP401      0.4393
     23  N6        -0.6600  -12.1390   17.3230 N.pl3 401  ADP401      0.2180
     24  N1         0.6110  -12.1770   19.3070 N.2   401  ADP401      0.0021
     25  C2         0.8620  -11.5780   20.5180 C.3   401  ADP401      0.5254
     26  N3         0.3000  -10.4910   21.0850 N.2   401  ADP401     -0.0055
     27  C4        -0.6760   -9.9230   20.2930 C.2   401  ADP401      0.3518
@<TRIPOS>BOND
     1    23    22    1
     2    20    21    2
     3    20    19    1
     4    22    21    1
     5    22    24    2
     6     4     1    2
     7     7     5    2
     8    21    27    1
     9    24    25    1
    10    19    18    1
    11     8     5    1
    12     8     1    1
    13     5     6    1
    14     5     9    1
    15     1     2    1
    16     1     3    1
    17    27    18    1
    18    27    26    2
    19    18    17    1
    20    25    26    1
    21     9    10    1
    22    15    17    1
    23    15    16    1
    24    15    13    1
    25    17    12    1
    26    12    11    1
    27    10    11    1
    28    13    11    1
    29    13    14    1
