@<TRIPOS>MOLECULE
4gvz_DAR_A_1.pdb
 12 11 0 0 0
SMALL
GASTEIGER

@<TRIPOS>ATOM
      1  N        -10.8490    5.2850   17.0260 N.3   404  DAR404     -0.1208
      2  CA       -10.8690    4.5210   15.7750 C.3   404  DAR404      0.1944
      3  CB       -10.7240    3.0170   16.1170 C.3   404  DAR404      0.0343
      4  CG       -10.3110    2.1470   14.9220 C.3   404  DAR404      0.0490
      5  CD       -10.6980    0.6910   15.2170 C.3   404  DAR404      0.2205
      6  NE       -10.0590    0.1980   16.4380 N.pl3 404  DAR404     -0.0865
      7  CZ       -10.7810   -0.3050   17.5380 C.cat 404  DAR404      0.5346
      8  NH1      -12.1750   -0.3140   17.4240 N.pl3 404  DAR404      0.1354
      9  NH2      -10.2850   -0.7630   18.6690 N.pl3 404  DAR404      0.1354
     10  C         -9.6760    4.9740   14.8690 C.2   404  DAR404      0.3819
     11  O         -9.9850    5.6790   13.8860 O.co2 404  DAR404     -0.2441
     12  OXT       -8.5270    4.6180   15.1910 O.co2 404  DAR404     -0.2441
@<TRIPOS>BOND
     1    11    10   ar
     2    10    12   ar
     3    10     2    1
     4     4     5    1
     5     4     3    1
     6     5     6    1
     7     2     3    1
     8     2     1    1
     9     6     7    2
    10     8     7    1
    11     7     9    1
