@<TRIPOS>MOLECULE
4gw0_ADP_A_1.pdb
 27 29 0 0 0
SMALL
GASTEIGER

@<TRIPOS>ATOM
      1  PB         9.9190  -10.3560   -1.9260 P.3   401  ADP401      0.5373
      2  O1B        8.7410  -10.1520   -2.8580 O.2   401  ADP401     -0.2221
      3  O2B       11.0730  -11.1820   -2.4360 O.3   401  ADP401     -0.1143
      4  O3B       10.2520   -9.1150   -1.1200 O.3   401  ADP401     -0.1143
      5  PA         8.1340  -12.3710   -0.6220 P.3   401  ADP401      0.2231
      6  O1A        7.1170  -12.2590   -1.7120 O.2   401  ADP401     -0.5169
      7  O2A        7.7440  -12.8130    0.7640 O.3   401  ADP401     -0.4370
      8  O3A        9.4820  -11.6410   -0.7810 O.3   401  ADP401     -0.2261
      9  O5'        8.7200  -14.0170   -1.1280 O.3   401  ADP401     -0.3111
     10  C5'        9.2760  -14.2080   -2.3180 C.3   401  ADP401      0.1813
     11  C4'       10.0660  -15.5540   -2.3340 C.3   401  ADP401      0.1821
     12  O4'       11.3240  -15.3810   -1.6600 O.3   401  ADP401     -0.3135
     13  C3'        9.3230  -16.6430   -1.5300 C.3   401  ADP401      0.2184
     14  O3'        9.3480  -17.8800   -2.1670 O.3   401  ADP401     -0.2174
     15  C2'       10.1690  -16.8120   -0.2440 C.3   401  ADP401      0.2570
     16  O2'       10.2590  -18.1580    0.0940 O.3   401  ADP401     -0.2130
     17  C1'       11.5420  -16.4330   -0.8090 C.3   401  ADP401      0.3186
     18  N9        12.5790  -16.0710    0.2090 N.pl3 401  ADP401     -0.1439
     19  C8        12.5800  -14.8690    0.9580 C.3   401  ADP401      0.3377
     20  N7        13.6260  -14.7900    1.8040 N.2   401  ADP401     -0.2095
     21  C5        14.3350  -15.9840    1.5980 C.2   401  ADP401      0.2526
     22  C6        15.5180  -16.4920    2.1780 C.2   401  ADP401      0.4393
     23  N6        16.1970  -15.7830    3.1380 N.pl3 401  ADP401      0.2180
     24  N1        16.0170  -17.7120    1.7970 N.2   401  ADP401      0.0021
     25  C2        15.2950  -18.3760    0.8360 C.3   401  ADP401      0.5254
     26  N3        14.1640  -18.0190    0.1980 N.2   401  ADP401     -0.0055
     27  C4        13.6930  -16.7890    0.6080 C.2   401  ADP401      0.3518
@<TRIPOS>BOND
     1     2     1    2
     2     3     1    1
     3    11    10    1
     4    11    12    1
     5    11    13    1
     6    10     9    1
     7    14    13    1
     8     1     4    1
     9     1     8    1
    10     6     5    2
    11    12    17    1
    12    13    15    1
    13     9     5    1
    14    17    15    1
    15    17    18    1
    16     8     5    1
    17     5     7    1
    18    15    16    1
    19    26    27    2
    20    26    25    1
    21    18    27    1
    22    18    19    1
    23    27    21    1
    24    25    24    1
    25    19    20    1
    26    21    20    2
    27    21    22    1
    28    24    22    2
    29    22    23    1
