@<TRIPOS>MOLECULE
4gw0_ILO_A_1.pdb
 12 11 0 0 0
SMALL
GASTEIGER

@<TRIPOS>ATOM
      1  N         -0.5810   -5.2350   -0.2040 N.3   403  ILO403     -0.1208
      2  CA        -0.0560   -6.2100    0.7700 C.3   403  ILO403      0.1945
      3  CB         1.4900   -6.2360    0.7000 C.3   403  ILO403      0.0350
      4  CG         2.1800   -5.0170    1.3530 C.3   403  ILO403      0.0574
      5  CD         3.6980   -5.2710    1.3480 C.3   403  ILO403      0.2510
      6  NE         3.9980   -6.4850    0.5530 N.pl3 403  ILO403     -0.0316
      7  CZ         4.3670   -6.1650   -0.8040 C.2   403  ILO403      0.3901
      8  CH1        4.6570   -7.3690   -1.6390 C.3   403  ILO403      0.1388
      9  NH2        4.4160   -4.9410   -1.2150 N.2   403  ILO403      0.1917
     10  C         -0.5330   -5.7920    2.2130 C.2   403  ILO403      0.3819
     11  OA1       -0.9880   -4.6390    2.3570 O.co2 403  ILO403     -0.2441
     12  OA2       -0.4190   -6.6550    3.1120 O.co2 403  ILO403     -0.2441
@<TRIPOS>BOND
     1     8     7    1
     2     9     7    2
     3     7     6    1
     4     1     2    1
     5     6     5    1
     6     3     2    1
     7     3     4    1
     8     2    10    1
     9     5     4    1
    10    10    11   ar
    11    10    12   ar
