@<TRIPOS>MOLECULE
4gw2_ADP_A_1.pdb
 27 29 0 0 0
SMALL
GASTEIGER

@<TRIPOS>ATOM
      1  PB        23.1220   10.1530   38.3200 P.3   401  ADP401      0.5373
      2  O1B       24.3240    9.7870   37.4760 O.2   401  ADP401     -0.2221
      3  O2B       22.1080   11.0770   37.6840 O.3   401  ADP401     -0.1143
      4  O3B       22.6060    8.9760   39.1200 O.3   401  ADP401     -0.1143
      5  PA        24.9300   12.1720   39.5930 P.3   401  ADP401      0.2231
      6  O1A       25.9390   12.0260   38.4990 O.2   401  ADP401     -0.5169
      7  O2A       25.3180   12.6440   40.9700 O.3   401  ADP401     -0.4370
      8  O3A       23.5890   11.4310   39.4530 O.3   401  ADP401     -0.2261
      9  O5'       24.3690   13.8190   39.0400 O.3   401  ADP401     -0.3111
     10  C5'       23.7320   13.9950   37.8820 C.3   401  ADP401      0.1813
     11  C4'       22.9800   15.3980   37.8390 C.3   401  ADP401      0.1821
     12  O4'       21.7060   15.2810   38.4960 O.3   401  ADP401     -0.3135
     13  C3'       23.7310   16.5030   38.6250 C.3   401  ADP401      0.2184
     14  O3'       23.6630   17.7310   37.9800 O.3   401  ADP401     -0.2174
     15  C2'       22.8960   16.6610   39.9290 C.3   401  ADP401      0.2570
     16  O2'       22.8170   17.9920   40.3330 O.3   401  ADP401     -0.2130
     17  C1'       21.5190   16.3360   39.3530 C.3   401  ADP401      0.3186
     18  N9        20.4770   16.0060   40.3700 N.pl3 401  ADP401     -0.1439
     19  C8        20.4710   14.8370   41.1670 C.3   401  ADP401      0.3377
     20  N7        19.4170   14.7880   42.0050 N.2   401  ADP401     -0.2095
     21  C5        18.7100   15.9730   41.7390 C.2   401  ADP401      0.2526
     22  C6        17.5210   16.5110   42.2820 C.2   401  ADP401      0.4393
     23  N6        16.8240   15.8420   43.2650 N.pl3 401  ADP401      0.2180
     24  N1        17.0310   17.7190   41.8430 N.2   401  ADP401      0.0021
     25  C2        17.7640   18.3400   40.8680 C.3   401  ADP401      0.5254
     26  N3        18.9010   17.9510   40.2600 N.2   401  ADP401     -0.0055
     27  C4        19.3650   16.7380   40.7290 C.2   401  ADP401      0.3518
@<TRIPOS>BOND
     1     2     1    2
     2     3     1    1
     3    11    10    1
     4    11    12    1
     5    11    13    1
     6    10     9    1
     7    14    13    1
     8     1     4    1
     9     1     8    1
    10    12    17    1
    11     6     5    2
    12    13    15    1
    13     9     5    1
    14    17    15    1
    15    17    18    1
    16     8     5    1
    17     5     7    1
    18    15    16    1
    19    26    27    2
    20    26    25    1
    21    18    27    1
    22    18    19    1
    23    27    21    1
    24    25    24    1
    25    19    20    1
    26    21    20    2
    27    21    22    1
    28    24    22    2
    29    22    23    1
