@<TRIPOS>MOLECULE
4gw8_3RA_A_1.pdb
 23 26 0 0 0
SMALL
GASTEIGER

@<TRIPOS>ATOM
      1  CAA      -17.0240   35.0830   -2.5390 C.ar  401  3RA401      0.0174
      2  CAB      -17.3690   35.1350   -3.8730 C.ar  401  3RA401      0.0014
      3  CAC      -18.6970   35.3250   -4.2600 C.ar  401  3RA401      0.0001
      4  CAD      -19.6890   35.4810   -3.2890 C.ar  401  3RA401      0.0014
      5  CAE      -19.3410   35.4410   -1.9370 C.ar  401  3RA401      0.0174
      6  CAF      -18.0000   35.2550   -1.5570 C.ar  401  3RA401      0.0835
      7  NAG      -17.6140   35.1710   -0.2780 N.pl3 401  3RA401     -0.1248
      8  CAH      -18.0840   35.8880    0.7410 C.1   401  3RA401      0.2354
      9  NAI      -19.0610   36.8190    0.7550 N.2   401  3RA401     -0.3174
     10  CAJ      -19.1680   37.2950    2.0070 C.2   401  3RA401      0.2209
     11  CAK      -18.2280   36.5960    2.7570 C.1   401  3RA401      0.2428
     12  NAL      -17.5830   35.7330    1.9570 N.2   401  3RA401     -0.2489
     13  OAM      -18.0030   36.7460    3.9690 O.2   401  3RA401     -0.2062
     14  CAN      -19.9850   38.2610    2.6140 C.3   401  3RA401      0.0998
     15  CAO      -20.7450   39.0990    1.8120 C.ar  401  3RA401     -0.0111
     16  CAP      -21.0620   38.7430    0.4840 C.ar  401  3RA401      0.0364
     17  CAQ      -21.7930   39.5950   -0.3140 C.ar  401  3RA401      0.1761
     18  CAR      -22.2570   40.7960    0.2120 C.ar  401  3RA401      0.1764
     19  CAS      -21.9580   41.1440    1.5270 C.ar  401  3RA401      0.0399
     20  CAT      -21.2000   40.2960    2.3350 C.ar  401  3RA401     -0.0005
     21  OAU      -22.2250   39.4650   -1.6060 O.3   401  3RA401     -0.4346
     22  CAV      -22.7890   40.7140   -1.9670 C.3   401  3RA401      0.4294
     23  OAW      -22.9860   41.4490   -0.7400 O.3   401  3RA401     -0.4346
@<TRIPOS>BOND
     1     3     2   ar
     2     3     4   ar
     3     2     1   ar
     4     4     5   ar
     5     1     6   ar
     6    22    21    1
     7    22    23    1
     8     5     6   ar
     9    21    17    1
    10     6     7    1
    11    23    18    1
    12    17    18   ar
    13    17    16   ar
    14     7     8    1
    15    18    19   ar
    16    16    15   ar
    17     8     9    2
    18     8    12    2
    19     9    10    2
    20    19    20   ar
    21    15    20   ar
    22    15    14    1
    23    12    11    2
    24    10    14    1
    25    10    11    1
    26    11    13    2
