@<TRIPOS>MOLECULE
4gw9_BLA_A_1.pdb
 43 46 0 0 0
SMALL
GASTEIGER

@<TRIPOS>ATOM
      1  CHA       67.9070   56.0970  -12.7270 C.3   900  BLA900      0.1170
      2  NA        66.8850   56.1730  -10.5700 N.2   900  BLA900     -0.4104
      3  C1A       68.0120   56.2500  -11.2970 C.2   900  BLA900      0.1114
      4  C2A       69.2890   56.3760  -10.5220 C.2   900  BLA900      0.0024
      5  C3A       68.7890   56.4120   -9.1630 C.2   900  BLA900      0.0021
      6  C4A       67.3410   56.2910   -9.3320 C.2   900  BLA900      0.1114
      7  CMA       69.5820   56.5500   -7.8680 C.3   900  BLA900      0.0331
      8  CAA       70.7780   56.4820  -10.7890 C.3   900  BLA900      0.0402
      9  CBA       71.1670   57.4370  -11.8660 C.3   900  BLA900      0.1188
     10  CGA       71.3950   58.8210  -11.2860 C.2   900  BLA900      0.3652
     11  O1A       71.2240   59.7920  -12.1590 O.co2 900  BLA900     -0.2456
     12  O2A       71.7200   58.8330  -10.0380 O.co2 900  BLA900     -0.2456
     13  CHB       66.7520   56.3940   -7.9850 C.3   900  BLA900      0.1181
     14  NB        66.4220   57.3550   -5.9200 N.2   900  BLA900     -0.3372
     15  C1B       67.1670   57.4950   -7.0510 C.2   900  BLA900      0.1257
     16  C2B       68.1510   58.6030   -6.9790 C.2   900  BLA900      0.0168
     17  C3B       67.8640   59.1240   -5.5980 C.2   900  BLA900      0.0929
     18  C4B       66.7770   58.2390   -5.0570 C.1   900  BLA900      0.2041
     19  CMB       69.1690   59.0800   -7.9960 C.3   900  BLA900      0.0342
     20  OB        66.1290   58.1940   -3.9370 O.2   900  BLA900     -0.2093
     21  CAB       68.5740   60.2320   -4.9490 C.2   900  BLA900      0.0124
     22  CBB       68.2750   60.4860   -3.7050 C.2   900  BLA900      0.0008
     23  NC        62.7750   55.7550  -10.7300 N.2   900  BLA900     -0.3375
     24  C1C       61.7300   55.8240   -9.9070 C.1   900  BLA900      0.2000
     25  C2C       60.4570   55.2760  -10.3810 C.2   900  BLA900      0.0710
     26  C3C       60.8830   54.8530  -11.6900 C.2   900  BLA900      0.0125
     27  C4C       62.3090   55.1580  -11.8240 C.2   900  BLA900      0.1254
     28  CMC       59.0880   55.1760   -9.7560 C.3   900  BLA900      0.0445
     29  OC        61.8370   56.3480   -8.7610 O.2   900  BLA900     -0.2096
     30  CAC       60.0810   54.1170  -12.6530 C.3   900  BLA900      0.0291
     31  CBC       59.0050   53.5000  -12.1400 C.3   900  BLA900      0.0051
     32  CHD       63.0920   54.7850  -13.0280 C.3   900  BLA900      0.1181
     33  ND        65.4880   55.4490  -12.4580 N.2   900  BLA900     -0.4104
     34  C1D       64.5070   55.0780  -13.3400 C.2   900  BLA900      0.1114
     35  C2D       64.9520   55.0110  -14.7120 C.2   900  BLA900      0.0021
     36  C3D       66.3550   55.3910  -14.6560 C.2   900  BLA900      0.0024
     37  C4D       66.6060   55.6410  -13.2430 C.2   900  BLA900      0.1114
     38  CMD       64.1480   54.6410  -15.9010 C.3   900  BLA900      0.0331
     39  CAD       67.2360   55.4500  -15.8560 C.3   900  BLA900      0.0402
     40  CBD       68.1730   56.6130  -16.0610 C.3   900  BLA900      0.1188
     41  CGD       68.5790   56.4990  -17.4880 C.2   900  BLA900      0.3652
     42  O1D       67.6920   56.2260  -18.3720 O.co2 900  BLA900     -0.2456
     43  O2D       69.7940   56.6900  -17.6470 O.co2 900  BLA900     -0.2456
@<TRIPOS>BOND
     1    42    41   ar
     2    43    41   ar
     3    41    40    1
     4    40    39    1
     5    38    35    1
     6    39    36    1
     7    35    36    2
     8    35    34    1
     9    36    37    1
    10    34    32    1
    11    34    33    2
    12    37     1    1
    13    37    33    2
    14    32    27    1
    15     1     3    1
    16    30    31    1
    17    30    26    1
    18    11    10   ar
    19     9    10    1
    20     9     8    1
    21    27    26    1
    22    27    23    2
    23    26    25    2
    24     3     2    2
    25     3     4    1
    26    10    12   ar
    27     8     4    1
    28    23    24    2
    29     2     6    2
    30     4     5    2
    31    25    24    1
    32    25    28    1
    33    24    29    2
    34     6     5    1
    35     6    13    1
    36     5     7    1
    37    19    16    1
    38    13    15    1
    39    15    16    1
    40    15    14    2
    41    16    17    2
    42    14    18    2
    43    17    18    1
    44    17    21    1
    45    18    20    2
    46    21    22    2
