@<TRIPOS>MOLECULE
4gwd_ABH_A_1.pdb
 13 12 0 0 0
SMALL
GASTEIGER

@<TRIPOS>ATOM
      1  N         26.2260   -9.6770   -3.7380 N.3   404  ABH404      0.0000
      2  CA        26.0030   -9.7600   -5.1860 C.3   404  ABH404      0.0000
      3  C         24.6060   -9.2660   -5.5200 C.2   404  ABH404      0.0000
      4  O         24.2050   -9.1860   -6.7970 O.co2 404  ABH404      0.0000
      5  OT        23.8520   -8.9360   -4.6280 O.co2 404  ABH404      0.0000
      6  CB        26.2250  -11.2090   -5.6850 C.3   404  ABH404      0.0000
      7  CG        25.3390  -12.2170   -4.9300 C.3   404  ABH404      0.0000
      8  CD        25.6090  -13.6360   -5.4410 C.3   404  ABH404      0.0000
      9  CE        24.3760  -14.5010   -5.1680 C.3   404  ABH404      0.0000
     10  B         24.7270  -16.0620   -5.0160 B     404  ABH404      0.0000
     11  O2        23.5540  -16.7740   -4.9570 O.3   404  ABH404      0.0000
     12  O1        25.4300  -16.2650   -3.8650 O.3   404  ABH404      0.0000
     13  O3        25.4750  -16.5040   -6.0790 O.3   404  ABH404      0.0000
@<TRIPOS>BOND
     1     4     3   ar
     2    13    10    1
     3     6     2    1
     4     6     7    1
     5     3     2    1
     6     3     5   ar
     7     8     9    1
     8     8     7    1
     9     2     1    1
    10     9    10    1
    11    10    11    1
    12    10    12    1
