@<TRIPOS>MOLECULE
4gwe_FMN_A_1.pdb
 31 33 0 0 0
SMALL
GASTEIGER

@<TRIPOS>ATOM
      1  N1         3.3790  -35.5600  -10.4650 N.2   401  FMN401     -0.2887
      2  C2         2.6040  -34.8770   -9.5950 C.1   401  FMN401      0.3669
      3  O2         3.0440  -33.8230   -9.1000 O.2   401  FMN401     -0.1744
      4  N3         1.3880  -35.3120   -9.2250 N.2   401  FMN401     -0.2300
      5  C4         0.8310  -36.4340   -9.7150 C.1   401  FMN401      0.2513
      6  O4        -0.2840  -36.8310   -9.3280 O.2   401  FMN401     -0.2057
      7  C4A        1.5910  -37.2230  -10.6780 C.2   401  FMN401      0.2703
      8  N5         1.1140  -38.3540  -11.2300 N.2   401  FMN401     -0.3882
      9  C5A        1.8790  -39.0820  -12.0810 C.2   401  FMN401      0.1277
     10  C6         1.4050  -40.2580  -12.6290 C.3   401  FMN401      0.0820
     11  C7         2.1740  -40.9940  -13.5150 C.2   401  FMN401     -0.0408
     12  C7M        1.6740  -42.2890  -14.0820 C.3   401  FMN401      0.0265
     13  C8         3.5220  -40.5220  -13.8590 C.2   401  FMN401     -0.0280
     14  C8M        4.3660  -41.3140  -14.8180 C.3   401  FMN401      0.0304
     15  C9         4.0100  -39.3590  -13.3050 C.2   401  FMN401      0.0123
     16  C9A        3.2250  -38.6180  -12.4340 C.2   401  FMN401      0.0793
     17  N10        3.7070  -37.4210  -11.8780 N.pl3 401  FMN401     -0.2545
     18  C10        2.9230  -36.7050  -10.9970 C.2   401  FMN401      0.2449
     19  C1'        5.0740  -36.9580  -12.1310 C.3   401  FMN401      0.1336
     20  C2'        5.9640  -37.7790  -11.1610 C.3   401  FMN401      0.2048
     21  O2'        5.7590  -37.4630   -9.7650 O.3   401  FMN401     -0.2185
     22  C3'        7.4610  -37.6450  -11.4410 C.3   401  FMN401      0.2165
     23  O3'        7.8670  -36.2890  -11.2260 O.3   401  FMN401     -0.2175
     24  C4'        7.8480  -38.0510  -12.8700 C.3   401  FMN401      0.2147
     25  O4'        7.2330  -39.3140  -13.1860 O.3   401  FMN401     -0.2176
     26  C5'        9.3450  -38.1090  -13.1400 C.3   401  FMN401      0.1892
     27  O5'       10.0030  -39.0400  -12.3090 O.3   401  FMN401     -0.2674
     28  P         10.3950  -40.5470  -12.7870 P.3   401  FMN401      0.5327
     29  O1P       11.2970  -40.4310  -13.9910 O.2   401  FMN401     -0.2224
     30  O2P        9.0680  -41.2120  -13.0980 O.3   401  FMN401     -0.1145
     31  O3P       11.0730  -41.1030  -11.5690 O.3   401  FMN401     -0.1145
@<TRIPOS>BOND
     1    14    13    1
     2    12    11    1
     3    29    28    2
     4    13    11    2
     5    13    15    1
     6    11    10    1
     7    15    16    2
     8    25    24    1
     9    26    24    1
    10    26    27    1
    11    30    28    1
    12    24    22    1
    13    28    27    1
    14    28    31    1
    15    10     9    1
    16    16     9    1
    17    16    17    1
    18    19    17    1
    19    19    20    1
    20     9     8    2
    21    17    18    1
    22    22    23    1
    23    22    20    1
    24     8     7    2
    25    20    21    1
    26    18     7    1
    27    18     1    2
    28     7     5    1
    29     1     2    2
    30     5     6    2
    31     5     4    2
    32     2     4    2
    33     2     3    2
