@<TRIPOS>MOLECULE
4gwe_07V_A_1.pdb
 11 11 0 0 0
SMALL
GASTEIGER

@<TRIPOS>ATOM
      1  CAG        1.3470  -35.1330  -13.9910 C.3   409  07V409      0.0731
      2  CAJ        0.6920  -34.6390  -12.7690 C.2   409  07V409      0.1691
      3  OAD        1.2350  -33.8040  -12.0730 O.2   409  07V409     -0.2917
      4  CAI       -0.6440  -35.1470  -12.4250 C.2   409  07V409      0.0086
      5  CAC       -1.3610  -34.5250  -11.2810 C.3   409  07V409      0.0337
      6  CAE       -1.2230  -36.1400  -13.1550 C.2   409  07V409     -0.0272
      7  CAF       -0.4830  -36.7800  -14.2740 C.3   409  07V409      0.0303
      8  CAK        1.0040  -36.5560  -14.2880 C.3   409  07V409      0.0303
      9  CAH        1.6200  -36.9710  -15.5930 C.2   409  07V409     -0.0435
     10  CAB        1.8050  -35.9920  -16.7020 C.3   409  07V409      0.0264
     11  CAA        1.7760  -38.2920  -15.8970 C.2   409  07V409     -0.0091
@<TRIPOS>BOND
     1    10     9    1
     2    11     9    2
     3     9     8    1
     4     8     7    1
     5     8     1    1
     6     7     6    1
     7     1     2    1
     8     6     4    2
     9     2     4    1
    10     2     3    2
    11     4     5    1
