@<TRIPOS>MOLECULE
4gwi_BDZ_A_1.pdb
 46 49 0 0 0
SMALL
GASTEIGER

@<TRIPOS>ATOM
      1  C1        -5.2570   -3.5940  -18.9270 C.3   205  BDZ205      0.2663
      2  O1        -4.3260   -4.1190  -19.8100 O.3   205  BDZ205     -0.3260
      3  C2        -4.8310   -4.1250  -17.5760 C.3   205  BDZ205      0.2066
      4  O2        -5.2370   -5.4380  -17.5150 O.3   205  BDZ205     -0.3231
      5  C3        -5.5610   -3.3590  -16.4800 C.3   205  BDZ205      0.2166
      6  O3        -5.0440   -3.6550  -15.2090 O.3   205  BDZ205     -0.2175
      7  C4        -5.4650   -1.8660  -16.6860 C.3   205  BDZ205      0.2143
      8  O4        -4.1450   -1.4590  -16.5330 O.3   205  BDZ205     -0.2176
      9  C5        -5.9040   -1.5420  -18.0880 C.3   205  BDZ205      0.1835
     10  O5        -5.1080   -2.2240  -19.0300 O.3   205  BDZ205     -0.3257
     11  C6        -5.7750   -0.0900  -18.3570 C.3   205  BDZ205      0.2142
     12  O6        -6.3680    0.1140  -19.6030 O.3   205  BDZ205     -0.2176
     13  CAA       -4.3730   -6.2610  -16.7320 C.3   205  BDZ205      0.2695
     14  CAB       -5.0400   -7.6040  -16.5000 C.3   205  BDZ205      0.2406
     15  CAC       -5.1710   -8.3720  -17.7790 C.3   205  BDZ205      0.2197
     16  CAD       -3.7840   -8.5640  -18.3550 C.3   205  BDZ205      0.2118
     17  CAE       -3.1940   -7.1840  -18.5510 C.3   205  BDZ205      0.1508
     18  CAF       -1.8120   -7.2400  -19.1590 C.3   205  BDZ205      0.0350
     19  OAG       -6.3260   -7.3860  -15.9430 O.3   205  BDZ205     -0.2149
     20  OAH       -5.7540   -9.5820  -17.5100 O.3   205  BDZ205     -0.2174
     21  OAI       -3.0320   -9.3390  -17.4600 O.3   205  BDZ205     -0.2177
     22  OAJ       -3.1310   -6.4820  -17.3440 O.3   205  BDZ205     -0.3284
     23  CAV       -4.2180   -4.3300  -23.8990 C.3   205  BDZ205      0.2916
     24  CAW       -3.5850   -3.1260  -23.2060 C.3   205  BDZ205      0.1838
     25  CAX       -3.1810   -3.3580  -21.7830 C.3   205  BDZ205      0.1723
     26  CAY       -4.4480   -3.8040  -21.1770 C.3   205  BDZ205      0.1764
     27  CAZ       -4.8140   -5.0710  -21.8470 C.3   205  BDZ205      0.1802
     28  CBA       -5.9780   -5.2590  -20.9570 C.3   205  BDZ205      0.2141
     29  CBB       -2.4030   -1.7900  -24.7840 C.2   205  BDZ205      0.2420
     30  CBC       -3.7380   -1.0550  -24.8510 C.3   205  BDZ205      0.0964
     31  NBD       -2.3930   -2.7820  -23.9290 N.am  205  BDZ205     -0.1993
     32  OBE       -4.7380   -3.7370  -25.0670 O.3   205  BDZ205     -0.1879
     33  OBF       -2.9190   -2.0800  -21.3630 O.3   205  BDZ205     -0.3265
     34  OBH       -5.2610   -4.8720  -23.1600 O.3   205  BDZ205     -0.3243
     35  OBI       -6.7780   -6.3030  -21.4430 O.3   205  BDZ205     -0.2176
     36  OBJ       -1.4200   -1.4450  -25.4330 O.2   205  BDZ205     -0.2733
     37  CBK       -1.5650   -1.7620  -21.3050 C.3   205  BDZ205      0.2694
     38  CBL       -1.5070   -0.2560  -21.0730 C.3   205  BDZ205      0.2406
     39  CBM       -2.0540    0.0930  -19.7000 C.3   205  BDZ205      0.2197
     40  CBN       -1.3810   -0.7440  -18.6280 C.3   205  BDZ205      0.2118
     41  CBO       -1.5760   -2.1940  -18.9900 C.3   205  BDZ205      0.1508
     42  CBP       -1.0050   -3.0440  -17.8830 C.3   205  BDZ205      0.0350
     43  OBQ       -2.3130    0.4140  -22.0370 O.3   205  BDZ205     -0.2149
     44  OBR       -1.8900    1.4630  -19.4290 O.3   205  BDZ205     -0.2174
     45  OBS       -0.0070   -0.4650  -18.5800 O.3   205  BDZ205     -0.2177
     46  OBT       -0.9140   -2.4140  -20.2130 O.3   205  BDZ205     -0.3284
@<TRIPOS>BOND
     1    36    29    2
     2    32    23    1
     3    30    29    1
     4    29    31   am
     5    31    24    1
     6    23    24    1
     7    23    34    1
     8    24    25    1
     9    34    27    1
    10    43    38    1
    11    27    26    1
    12    27    28    1
    13    25    33    1
    14    25    26    1
    15    35    28    1
    16    33    37    1
    17    37    38    1
    18    37    46    1
    19    26     2    1
    20    38    39    1
    21    46    41    1
    22     2     1    1
    23    39    44    1
    24    39    40    1
    25    12    11    1
    26    18    17    1
    27    10     1    1
    28    10     9    1
    29    41    40    1
    30    41    42    1
    31     1     3    1
    32    40    45    1
    33    17    16    1
    34    17    22    1
    35    11     9    1
    36    16    15    1
    37    16    21    1
    38     9     7    1
    39    15    20    1
    40    15    14    1
    41     3     4    1
    42     3     5    1
    43     4    13    1
    44    22    13    1
    45    13    14    1
    46     7     8    1
    47     7     5    1
    48    14    19    1
    49     5     6    1
