@<TRIPOS>MOLECULE
4gwj_FUC_A_1.pdb
 10 10 0 0 0
SMALL
GASTEIGER

@<TRIPOS>ATOM
      1  C1        -4.4640   -6.2210  -16.6690 C.3   205  FUC205      0.1776
      2  C2        -5.2320   -7.5360  -16.4340 C.3   205  FUC205      0.2141
      3  C3        -5.2330   -8.4750  -17.6270 C.3   205  FUC205      0.2172
      4  C4        -3.8320   -8.5240  -18.2210 C.3   205  FUC205      0.2116
      5  C5        -3.2640   -7.1600  -18.5680 C.3   205  FUC205      0.1483
      6  C6        -1.9050   -6.9960  -19.2170 C.3   205  FUC205      0.0349
      7  O2        -6.4390   -7.2630  -15.7380 O.3   205  FUC205     -0.2176
      8  O3        -5.8180   -9.6810  -17.4230 O.3   205  FUC205     -0.2175
      9  O4        -3.0550   -9.3110  -17.3130 O.3   205  FUC205     -0.2177
     10  O5        -3.1710   -6.3880  -17.2880 O.3   205  FUC205     -0.3508
@<TRIPOS>BOND
     1     6     5    1
     2     5     4    1
     3     5    10    1
     4     4     3    1
     5     4     9    1
     6     3     8    1
     7     3     2    1
     8    10     1    1
     9     1     2    1
    10     2     7    1
