@<TRIPOS>MOLECULE
4gwk_3PG_A_1.pdb
 11 10 0 0 0
SMALL
GASTEIGER

@<TRIPOS>ATOM
      1  C1        59.6170   22.1390  -11.0480 C.2   501  3PG501      0.3972
      2  O1        60.0340   21.0600  -10.5810 O.co2 501  3PG501     -0.2427
      3  O2        58.8810   22.9550  -10.4620 O.co2 501  3PG501     -0.2427
      4  C2        60.0880   22.4830  -12.4610 C.3   501  3PG501      0.2838
      5  O3        59.4400   23.6440  -13.0030 O.3   501  3PG501     -0.2081
      6  C3        59.8720   21.2900  -13.3930 C.3   501  3PG501      0.1983
      7  O1P       58.4700   21.0870  -13.5890 O.3   501  3PG501     -0.2669
      8  P         57.9220   19.6870  -14.1510 P.3   501  3PG501      0.5327
      9  O2P       58.2470   19.7190  -15.7410 O.2   501  3PG501     -0.2224
     10  O3P       58.7780   18.4830  -13.5030 O.3   501  3PG501     -0.1145
     11  O4P       56.4600   19.5310  -13.9420 O.3   501  3PG501     -0.1145
@<TRIPOS>BOND
     1     9     8    2
     2     8    11    1
     3     8     7    1
     4     8    10    1
     5     7     6    1
     6     6     4    1
     7     5     4    1
     8     4     1    1
     9     1     2   ar
    10     1     3   ar
