@<TRIPOS>MOLECULE
4gwm_FUC_A_1.pdb
 10 10 0 0 0
SMALL
GASTEIGER

@<TRIPOS>ATOM
      1  C1       -19.3960   28.9700  -40.5430 C.3   708  FUC708      0.1776
      2  C2       -19.1280   27.6210  -41.2140 C.3   708  FUC708      0.2141
      3  C3       -18.8550   26.5300  -40.1680 C.3   708  FUC708      0.2172
      4  C4       -19.9760   26.4600  -39.1260 C.3   708  FUC708      0.2116
      5  C5       -20.1400   27.8300  -38.4640 C.3   708  FUC708      0.1483
      6  C6       -21.3110   27.9180  -37.5060 C.3   708  FUC708      0.0349
      7  O2       -18.0450   27.7900  -42.1210 O.3   708  FUC708     -0.2176
      8  O3       -18.7120   25.2550  -40.7970 O.3   708  FUC708     -0.2175
      9  O4       -21.1920   26.0490  -39.7450 O.3   708  FUC708     -0.2177
     10  O5       -20.3600   28.8220  -39.4860 O.3   708  FUC708     -0.3508
@<TRIPOS>BOND
     1     7     2    1
     2     2     1    1
     3     2     3    1
     4     8     3    1
     5     1    10    1
     6     3     4    1
     7     9     4    1
     8    10     5    1
     9     4     5    1
    10     5     6    1
