@<TRIPOS>MOLECULE
4gwm_MAN_A_1.pdb
 11 11 0 0 0
SMALL
GASTEIGER

@<TRIPOS>ATOM
      1  C1       -40.0240   33.6090  -53.6190 C.3   719  MAN719      0.1777
      2  C2       -39.3080   33.2490  -52.3080 C.3   719  MAN719      0.2141
      3  C3       -37.9700   33.9780  -52.1980 C.3   719  MAN719      0.2173
      4  C4       -37.1160   33.7490  -53.4410 C.3   719  MAN719      0.2142
      5  C5       -37.9100   34.1910  -54.6680 C.3   719  MAN719      0.1810
      6  C6       -37.1970   33.9750  -55.9810 C.3   719  MAN719      0.2141
      7  O2       -39.1300   31.8400  -52.2210 O.3   719  MAN719     -0.2176
      8  O3       -37.2850   33.6000  -51.0110 O.3   719  MAN719     -0.2175
      9  O4       -35.8990   34.4840  -53.3560 O.3   719  MAN719     -0.2176
     10  O5       -39.1400   33.4500  -54.7400 O.3   719  MAN719     -0.3481
     11  O6       -36.9990   32.5940  -56.2170 O.3   719  MAN719     -0.2176
@<TRIPOS>BOND
     1    11     6    1
     2     6     5    1
     3    10     5    1
     4    10     1    1
     5     5     4    1
     6     1     2    1
     7     4     9    1
     8     4     3    1
     9     2     7    1
    10     2     3    1
    11     3     8    1
