@<TRIPOS>MOLECULE
4gwn_FUC_A_1.pdb
 10 10 0 0 0
SMALL
GASTEIGER

@<TRIPOS>ATOM
      1  C1        38.3240   27.7120   20.4800 C.3   707  FUC707      0.1776
      2  C2        37.1290   26.7380   20.4030 C.3   707  FUC707      0.2141
      3  C3        36.9540   26.1310   19.0060 C.3   707  FUC707      0.2172
      4  C4        38.2670   25.5880   18.4420 C.3   707  FUC707      0.2116
      5  C5        39.3230   26.6910   18.4760 C.3   707  FUC707      0.1483
      6  C6        40.6850   26.2430   18.0010 C.3   707  FUC707      0.0349
      7  O2        35.9310   27.3900   20.8200 O.3   707  FUC707     -0.2176
      8  O3        35.9820   25.0910   19.0370 O.3   707  FUC707     -0.2175
      9  O4        38.6980   24.4490   19.1820 O.3   707  FUC707     -0.2177
     10  O5        39.4760   27.1520   19.8330 O.3   707  FUC707     -0.3508
@<TRIPOS>BOND
     1     6     5    1
     2     4     5    1
     3     4     3    1
     4     4     9    1
     5     5    10    1
     6     3     8    1
     7     3     2    1
     8    10     1    1
     9     2     1    1
    10     2     7    1
