@<TRIPOS>MOLECULE
4gwn_MAN_A_1.pdb
 11 11 0 0 0
SMALL
GASTEIGER

@<TRIPOS>ATOM
      1  C1        49.3370   16.9270   41.1080 C.3   717  MAN717      0.1777
      2  C2        49.3020   17.1950   39.6030 C.3   717  MAN717      0.2141
      3  C3        48.9890   18.6670   39.3350 C.3   717  MAN717      0.2173
      4  C4        47.7060   19.1000   40.0390 C.3   717  MAN717      0.2142
      5  C5        47.7760   18.7720   41.5280 C.3   717  MAN717      0.1810
      6  C6        46.4550   18.9780   42.2280 C.3   717  MAN717      0.2141
      7  O2        48.3300   16.3460   38.9990 O.3   717  MAN717     -0.2176
      8  O3        48.9160   18.9260   37.9360 O.3   717  MAN717     -0.2175
      9  O4        47.4980   20.4990   39.8790 O.3   717  MAN717     -0.2176
     10  O5        48.1180   17.3860   41.7180 O.3   717  MAN717     -0.3481
     11  O6        45.4230   18.3170   41.5180 O.3   717  MAN717     -0.2176
@<TRIPOS>BOND
     1     8     3    1
     2     7     2    1
     3     3     2    1
     4     3     4    1
     5     2     1    1
     6     9     4    1
     7     4     5    1
     8     1    10    1
     9    11     6    1
    10     5    10    1
    11     5     6    1
