@<TRIPOS>MOLECULE
4gx0_GLC_B_1.pdb
 12 12 0 0 0
SMALL
GASTEIGER

@<TRIPOS>ATOM
      1  C1       -47.7760   22.9000   21.5890 C.3   606  GLC606      0.3024
      2  C2       -48.7800   23.7420   22.3380 C.3   606  GLC606      0.2434
      3  C3       -49.7980   22.9470   22.9580 C.3   606  GLC606      0.2199
      4  C4       -50.4170   22.0480   22.0510 C.3   606  GLC606      0.2144
      5  C5       -49.4220   21.2250   21.2960 C.3   606  GLC606      0.1836
      6  C6       -50.0510   20.3920   20.2350 C.3   606  GLC606      0.2142
      7  O1       -46.9780   22.1410   22.4310 O.3   606  GLC606     -0.1869
      8  O2       -48.1060   24.4280   23.3360 O.3   606  GLC606     -0.2148
      9  O3       -50.8060   23.8330   23.3600 O.3   606  GLC606     -0.2174
     10  O4       -51.2260   21.1190   22.7890 O.3   606  GLC606     -0.2176
     11  O5       -48.3920   22.0350   20.6820 O.3   606  GLC606     -0.3236
     12  O6       -50.3980   19.1250   20.5460 O.3   606  GLC606     -0.2176
@<TRIPOS>BOND
     1     6    12    1
     2     6     5    1
     3    11     5    1
     4    11     1    1
     5     5     4    1
     6     1     2    1
     7     1     7    1
     8     4    10    1
     9     4     3    1
    10     2     3    1
    11     2     8    1
    12     3     9    1
