@<TRIPOS>MOLECULE
4gx1_ADP_A_1.pdb
 27 29 0 0 0
SMALL
GASTEIGER

@<TRIPOS>ATOM
      1  PB        -1.8590  -20.8240   23.2680 P.3   606  ADP606      0.5373
      2  O1B       -2.6180  -20.0900   24.3430 O.3   606  ADP606     -0.1143
      3  O2B       -2.8700  -21.3330   22.2700 O.2   606  ADP606     -0.2221
      4  O3B       -1.1900  -22.0340   23.8810 O.3   606  ADP606     -0.1143
      5  PA        -0.6200  -19.4330   21.1880 P.3   606  ADP606      0.2231
      6  O1A        0.8870  -19.4210   20.7830 O.2   606  ADP606     -0.5169
      7  O2A       -1.2450  -18.0300   20.9230 O.3   606  ADP606     -0.4370
      8  O3A       -0.7950  -19.8270   22.6950 O.3   606  ADP606     -0.2261
      9  O5'       -1.3040  -20.5290   20.3010 O.3   606  ADP606     -0.3111
     10  C5'       -2.4310  -20.3270   19.5190 C.3   606  ADP606      0.1813
     11  C4'       -3.1260  -21.6240   19.1310 C.3   606  ADP606      0.1821
     12  O4'       -4.5160  -21.5990   19.2120 O.3   606  ADP606     -0.3135
     13  C3'       -2.7560  -22.0330   17.7300 C.3   606  ADP606      0.2184
     14  O3'       -2.0010  -23.2310   17.6730 O.3   606  ADP606     -0.2174
     15  C2'       -3.9970  -22.1810   17.0340 C.3   606  ADP606      0.2570
     16  O2'       -3.9450  -23.2370   16.1300 O.3   606  ADP606     -0.2130
     17  C1'       -4.9760  -22.4310   18.1280 C.3   606  ADP606      0.3186
     18  N9        -6.3290  -22.1730   17.7020 N.pl3 606  ADP606     -0.1439
     19  C8        -6.8200  -20.9940   17.2800 C.3   606  ADP606      0.3377
     20  N7        -8.1130  -21.1510   16.9320 N.2   606  ADP606     -0.2095
     21  C5        -8.4360  -22.4450   17.1270 C.2   606  ADP606      0.2526
     22  C6        -9.6130  -23.1570   16.9350 C.2   606  ADP606      0.4393
     23  N6       -10.7760  -22.5080   16.4270 N.pl3 606  ADP606      0.2180
     24  N1        -9.6250  -24.4740   17.2270 N.2   606  ADP606      0.0021
     25  C2        -8.5290  -25.1050   17.6940 C.3   606  ADP606      0.5254
     26  N3        -7.3850  -24.4250   17.8840 N.2   606  ADP606     -0.0055
     27  C4        -7.3080  -23.1020   17.6130 C.2   606  ADP606      0.3518
@<TRIPOS>BOND
     1    16    15    1
     2    23    22    1
     3    20    21    2
     4    20    19    1
     5    22    21    1
     6    22    24    2
     7    15    13    1
     8    15    17    1
     9    21    27    1
    10    24    25    1
    11    19    18    1
    12    27    18    1
    13    27    26    2
    14    14    13    1
    15    25    26    1
    16    18    17    1
    17    13    11    1
    18    17    12    1
    19    11    12    1
    20    11    10    1
    21    10     9    1
    22     9     5    1
    23     6     5    2
    24     7     5    1
    25     5     8    1
    26     3     1    2
    27     8     1    1
    28     1     4    1
    29     1     2    1
