@<TRIPOS>MOLECULE
4gx1_GLC_C_1.pdb
 12 12 0 0 0
SMALL
GASTEIGER

@<TRIPOS>ATOM
      1  C1       -49.8100  -52.0690   96.0300 C.3   608  GLC608      0.3024
      2  C2       -50.6730  -53.1060   95.3370 C.3   608  GLC608      0.2434
      3  C3       -51.8160  -52.5250   94.7000 C.3   608  GLC608      0.2199
      4  C4       -52.5780  -51.7250   95.5930 C.3   608  GLC608      0.2144
      5  C5       -51.7420  -50.6490   96.2150 C.3   608  GLC608      0.1836
      6  C6       -52.4770  -49.8270   97.2210 C.3   608  GLC608      0.2142
      7  O1       -49.0360  -51.3260   95.1490 O.3   608  GLC608     -0.1869
      8  O2       -49.9190  -53.7450   94.3620 O.3   608  GLC608     -0.2148
      9  O3       -52.6440  -53.5850   94.3090 O.3   608  GLC608     -0.2174
     10  O4       -53.6220  -51.0660   94.8600 O.3   608  GLC608     -0.2176
     11  O5       -50.5410  -51.1810   96.8360 O.3   608  GLC608     -0.3236
     12  O6       -53.3230  -48.8620   96.7940 O.3   608  GLC608     -0.2176
@<TRIPOS>BOND
     1     9     3    1
     2     8     2    1
     3     3     2    1
     4     3     4    1
     5    10     4    1
     6     7     1    1
     7     2     1    1
     8     4     5    1
     9     1    11    1
    10     5    11    1
    11     5     6    1
    12    12     6    1
