@<TRIPOS>MOLECULE
4gx2_NAD_A_1.pdb
 44 48 0 0 0
SMALL
GASTEIGER

@<TRIPOS>ATOM
      1  PA       -36.8320   18.8480   56.5000 P.3   608  NAD608      0.2189
      2  O1A      -36.8640   17.6320   55.5320 O.2   608  NAD608     -0.5170
      3  O2A      -35.7980   19.8770   55.9990 O.3   608  NAD608     -0.4371
      4  O5B      -38.2170   19.5540   56.5540 O.3   608  NAD608     -0.3112
      5  C5B      -39.0620   19.4950   55.4420 C.3   608  NAD608      0.1813
      6  C4B      -39.4580   20.8100   54.8440 C.3   608  NAD608      0.1821
      7  O4B      -39.3600   20.8350   53.3870 O.3   608  NAD608     -0.3135
      8  C3B      -40.8150   21.2960   55.2210 C.3   608  NAD608      0.2184
      9  O3B      -40.7160   22.4090   56.0330 O.3   608  NAD608     -0.2174
     10  C2B      -41.4670   21.7020   54.0030 C.3   608  NAD608      0.2570
     11  O2B      -41.8860   23.0120   54.1100 O.3   608  NAD608     -0.2130
     12  C1B      -40.4330   21.5620   52.8910 C.3   608  NAD608      0.3186
     13  N9A      -40.9570   21.0790   51.5650 N.pl3 608  NAD608     -0.1439
     14  C8A      -41.4650   19.8740   51.2550 C.3   608  NAD608      0.3377
     15  N7A      -41.8070   19.8830   49.9470 N.2   608  NAD608     -0.2095
     16  C5A      -41.5110   21.0930   49.4310 C.2   608  NAD608      0.2526
     17  C6A      -41.6330   21.6790   48.1720 C.2   608  NAD608      0.4393
     18  N6A      -42.1820   20.9370   47.0860 N.pl3 608  NAD608      0.2180
     19  N1A      -41.2300   22.9490   47.9830 N.2   608  NAD608      0.0021
     20  C2A      -40.7090   23.6600   49.0030 C.3   608  NAD608      0.5254
     21  N3A      -40.5790   23.1220   50.2280 N.2   608  NAD608     -0.0055
     22  C4A      -40.9730   21.8530   50.4600 C.2   608  NAD608      0.3518
     23  O3       -36.3900   18.3510   57.9330 O.3   608  NAD608     -0.2703
     24  PN       -36.8440   16.9280   58.4720 P.3   608  NAD608      0.2189
     25  O1N      -36.5330   15.8110   57.4720 O.2   608  NAD608     -0.5170
     26  O2N      -38.3150   16.9650   58.7690 O.3   608  NAD608     -0.4371
     27  O5D      -36.0870   16.6470   59.7640 O.3   608  NAD608     -0.3112
     28  C5D      -35.9190   15.3600   60.1720 C.3   608  NAD608      0.1813
     29  C4D      -36.0240   15.1810   61.6320 C.3   608  NAD608      0.1799
     30  O4D      -34.8890   14.5690   62.1350 O.3   608  NAD608     -0.3327
     31  C3D      -36.1360   16.4910   62.3040 C.3   608  NAD608      0.2158
     32  O3D      -37.5060   16.7990   62.5670 O.3   608  NAD608     -0.2175
     33  C2D      -35.3910   16.3880   63.5080 C.3   608  NAD608      0.2309
     34  O2D      -36.2010   16.4800   64.6430 O.3   608  NAD608     -0.2158
     35  C1D      -34.7740   15.0330   63.4760 C.3   608  NAD608      0.2263
     36  N1N      -33.3710   14.9480   63.8760 N.pl3 608  NAD608     -0.2787
     37  C2N      -32.7240   16.0030   64.4230 C.3   608  NAD608      0.1244
     38  C3N      -31.3780   15.8950   64.7360 C.2   608  NAD608      0.0544
     39  C7N      -30.5710   17.0390   65.3210 C.2   608  NAD608      0.2818
     40  O7N      -29.5540   17.4340   64.7250 O.2   608  NAD608     -0.2670
     41  N7N      -30.9190   17.6420   66.5660 N.am  608  NAD608     -0.0839
     42  C4N      -30.7390   14.6980   64.5020 C.2   608  NAD608      0.0033
     43  C5N      -31.4150   13.6330   63.9430 C.2   608  NAD608      0.0157
     44  C6N      -32.7520   13.7910   63.6380 C.2   608  NAD608      0.0633
@<TRIPOS>BOND
     1    18    17    1
     2    19    17    2
     3    19    20    1
     4    17    16    1
     5    20    21    1
     6    16    15    2
     7    16    22    1
     8    15    14    1
     9    21    22    2
    10    22    13    1
    11    14    13    1
    12    13    12    1
    13    12     7    1
    14    12    10    1
    15     7     6    1
    16    10    11    1
    17    10     8    1
    18     6     8    1
    19     6     5    1
    20     8     9    1
    21     5     4    1
    22     2     1    2
    23     3     1    1
    24     1     4    1
    25     1    23    1
    26    25    24    2
    27    23    24    1
    28    24    26    1
    29    24    27    1
    30    27    28    1
    31    28    29    1
    32    29    30    1
    33    29    31    1
    34    30    35    1
    35    31    32    1
    36    31    33    1
    37    35    33    1
    38    35    36    1
    39    33    34    1
    40    44    36    1
    41    44    43    2
    42    36    37    1
    43    43    42    1
    44    37    38    1
    45    42    38    2
    46    40    39    2
    47    38    39    1
    48    39    41   am
