@<TRIPOS>MOLECULE
4gx7_MMA_A_1.pdb
 13 13 0 0 0
SMALL
GASTEIGER

@<TRIPOS>ATOM
      1  C1        34.3040   38.5710   25.6160 C.3   801  MMA801      0.2695
      2  C2        35.2520   37.8040   24.7870 C.3   801  MMA801      0.2406
      3  C3        36.6400   38.2040   25.0220 C.3   801  MMA801      0.2198
      4  C4        36.8710   39.6770   24.9530 C.3   801  MMA801      0.2144
      5  C5        35.7890   40.5380   25.5700 C.3   801  MMA801      0.1835
      6  C6        35.8860   41.9210   25.0460 C.3   801  MMA801      0.2142
      7  C7        33.6550   38.8550   27.8660 C.3   801  MMA801      0.1769
      8  O1        34.5010   38.2980   26.9080 O.3   801  MMA801     -0.3259
      9  O2        34.9280   38.0360   23.4270 O.3   801  MMA801     -0.2149
     10  O3        37.4730   37.5520   24.0650 O.3   801  MMA801     -0.2174
     11  O4        38.0760   39.9650   25.6110 O.3   801  MMA801     -0.2176
     12  O5        34.4630   40.0580   25.3600 O.3   801  MMA801     -0.3256
     13  O6        35.8730   42.9630   25.9620 O.3   801  MMA801     -0.2176
@<TRIPOS>BOND
     1     9     2    1
     2    10     3    1
     3     2     3    1
     4     2     1    1
     5     4     3    1
     6     4     5    1
     7     4    11    1
     8     6     5    1
     9     6    13    1
    10    12     5    1
    11    12     1    1
    12     1     8    1
    13     8     7    1
