@<TRIPOS>MOLECULE
4gxj_6CF_A_1.pdb
 30 31 0 0 0
SMALL
GASTEIGER

@<TRIPOS>ATOM
      1  N1         1.0910   -7.6440    9.6030 N.am  401  6CF401     -0.1802
      2  P1         5.7660   -5.3280    9.9100 P.3   401  6CF401      0.4410
      3  C2        -0.1310   -8.2040    9.9870 C.1   401  6CF401      0.2756
      4  O2        -1.0360   -8.5330    9.0170 O.2   401  6CF401     -0.1925
      5  P2         4.9720   -2.5510    9.1000 P.3   401  6CF401      0.4486
      6  N3        -0.4360   -8.4390   11.3840 N.2   401  6CF401     -0.3024
      7  P3         6.9970   -1.0190    9.9070 P.3   401  6CF401      0.5390
      8  C4         0.4940   -8.1020   12.3590 C.2   401  6CF401      0.2346
      9  N4         0.2570   -8.3050   13.7590 N.pl3 401  6CF401     -0.0921
     10  C5         1.7110   -7.5340   11.9110 C.2   401  6CF401      0.0687
     11  C6         2.0180   -7.3000   10.5850 C.2   401  6CF401      0.0835
     12  C1'        1.3570   -7.4040    8.1840 C.3   401  6CF401      0.2090
     13  F1A        3.9250   -3.9420   10.8920 F     401  6CF401     -0.1787
     14  O1A        6.0480   -6.3070   11.0960 O.3   401  6CF401     -0.1352
     15  O1B        5.6980   -3.1010    7.8350 O.2   401  6CF401     -0.2488
     16  O1G        7.2960   -0.6100   11.3200 O.3   401  6CF401     -0.1143
     17  C2'        0.8800   -6.0230    7.8100 C.3   401  6CF401      0.0874
     18  F2A        5.9150   -3.1840   11.4770 F     401  6CF401     -0.1787
     19  O2A        7.0420   -5.3220    8.9990 O.2   401  6CF401     -0.2492
     20  O2B        3.4470   -2.4430    8.7890 O.3   401  6CF401     -0.1349
     21  O2G        7.7030   -2.3270    9.7530 O.3   401  6CF401     -0.1143
     22  C3'        2.2020   -5.3260    7.6880 C.3   401  6CF401      0.1857
     23  O3'        2.1570   -4.3190    6.7450 O.3   401  6CF401     -0.2203
     24  C3A        5.1650   -3.7090   10.4910 C.3   401  6CF401      0.4484
     25  O3B        5.4980   -1.1410    9.5150 O.3   401  6CF401     -0.1990
     26  O3G        7.7870   -0.0380    9.0840 O.2   401  6CF401     -0.2220
     27  C4'        3.1730   -6.3660    7.2940 C.3   401  6CF401      0.1773
     28  O4'        2.7070   -7.5260    7.8810 O.3   401  6CF401     -0.3339
     29  C5'        4.5580   -6.0100    7.7700 C.3   401  6CF401      0.1836
     30  O5'        4.5240   -5.8990    9.1530 O.3   401  6CF401     -0.2860
@<TRIPOS>BOND
     1    23    22    1
     2    27    22    1
     3    27    29    1
     4    27    28    1
     5    22    17    1
     6    29    30    1
     7    17    12    1
     8    15     5    2
     9    28    12    1
    10    12     1    1
    11    20     5    1
    12    19     2    2
    13     4     3    2
    14    26     7    2
    15     5    25    1
    16     5    24    1
    17    30     2    1
    18    25     7    1
    19     1     3   am
    20     1    11    1
    21    21     7    1
    22     7    16    1
    23     2    24    1
    24     2    14    1
    25     3     6    2
    26    24    13    1
    27    24    18    1
    28    11    10    2
    29     6     8    2
    30    10     8    1
    31     8     9    1
