@<TRIPOS>MOLECULE
4gxk_F2A_A_1.pdb
 30 32 0 0 0
SMALL
GASTEIGER

@<TRIPOS>ATOM
      1  PA         6.7930    4.5830    8.6450 P.3   404  F2A404      0.3820
      2  O1A        5.5940    4.7080    9.6510 O.3   404  F2A404     -0.1392
      3  O2A        7.9910    5.4570    9.1880 O.2   404  F2A404     -0.2548
      4  C3A        7.4430    2.8550    8.3130 C.3   404  F2A404      0.2357
      5  O5'        6.4640    5.2810    7.2710 O.3   404  F2A404     -0.2896
      6  PB         6.1980    1.6260    7.7570 P.3   404  F2A404      0.3895
      7  O1B        4.7410    2.1530    8.0470 O.3   404  F2A404     -0.1388
      8  O2B        6.5000    1.3950    6.2790 O.2   404  F2A404     -0.2544
      9  O3B        6.4490    0.2680    8.5110 O.3   404  F2A404     -0.2026
     10  PG         6.3360    0.1540   10.0560 P.3   404  F2A404      0.5389
     11  O1G        7.6650   -0.0220   10.6690 O.3   404  F2A404     -0.1143
     12  O2G        5.4230   -1.0930   10.4120 O.2   404  F2A404     -0.2220
     13  O3G        5.7320    1.3970   10.6200 O.3   404  F2A404     -0.1143
     14  C5'        5.2300    5.1050    6.5950 C.3   404  F2A404      0.1835
     15  C4'        5.2940    5.3800    5.1740 C.3   404  F2A404      0.1795
     16  O4'        5.9350    6.6770    4.8070 O.3   404  F2A404     -0.3155
     17  C1'        6.7620    6.4580    3.6970 C.3   404  F2A404      0.2873
     18  N9         8.1300    6.6340    3.9660 N.pl3 404  F2A404     -0.1460
     19  C4         9.0330    6.9050    3.0000 C.2   404  F2A404      0.3518
     20  N3         8.9580    7.0850    1.6540 N.2   404  F2A404     -0.0055
     21  C2        10.0480    7.3530    0.9280 C.3   404  F2A404      0.5254
     22  N1        11.2540    7.4480    1.5180 N.2   404  F2A404      0.0021
     23  C6        11.4010    7.2810    2.8520 C.2   404  F2A404      0.4393
     24  N6        12.7250    7.3950    3.4720 N.pl3 404  F2A404      0.2180
     25  C5        10.2630    7.0060    3.6200 C.2   404  F2A404      0.2526
     26  N7        10.0660    6.7890    4.9420 N.2   404  F2A404     -0.2095
     27  C8         8.7540    6.5590    5.1460 C.3   404  F2A404      0.3377
     28  C2'        6.5010    5.0330    3.2470 C.3   404  F2A404      0.1151
     29  C3'        6.1460    4.3720    4.5120 C.3   404  F2A404      0.1883
     30  O3'        5.5270    3.1290    4.2140 O.3   404  F2A404     -0.2202
@<TRIPOS>BOND
     1    21    22    1
     2    21    20    1
     3    22    23    2
     4    20    19    2
     5    23    24    1
     6    23    25    1
     7    19    25    1
     8    19    18    1
     9    28    17    1
    10    28    29    1
    11    25    26    2
    12    17    18    1
    13    17    16    1
    14    18    27    1
    15    30    29    1
    16    29    15    1
    17    16    15    1
    18    26    27    1
    19    15    14    1
    20     8     6    2
    21    14     5    1
    22     5     1    1
    23     6     7    1
    24     6     4    1
    25     6     9    1
    26     4     1    1
    27     9    10    1
    28     1     3    2
    29     1     2    1
    30    10    12    2
    31    10    13    1
    32    10    11    1
