@<TRIPOS>MOLECULE
4gxm_0WV_A_1.pdb
 11 11 0 0 0
SMALL
GASTEIGER

@<TRIPOS>ATOM
      1  C4        -0.6110  -36.8480  -13.8950 C.ar  414  0WV414     -0.0004
      2  C5         0.7020  -36.4680  -14.2960 C.ar  414  0WV414     -0.0008
      3  C6         1.2760  -35.3530  -13.6120 C.ar  414  0WV414      0.0414
      4  C7        -1.4350  -34.4330  -11.1260 C.3   414  0WV414      0.0344
      5  C8         1.4550  -37.1770  -15.3870 C.2   414  0WV414     -0.0217
      6  C9         2.7570  -36.8560  -15.6130 C.2   414  0WV414     -0.0046
      7  C10        0.8650  -38.2770  -16.1790 C.3   414  0WV414      0.0310
      8  C3        -1.2620  -36.1560  -12.8920 C.ar  414  0WV414     -0.0011
      9  C1         0.5710  -34.7660  -12.5810 C.ar  414  0WV414      0.1917
     10  O1         1.1880  -33.7340  -11.9440 O.3   414  0WV414     -0.2869
     11  C2        -0.6950  -35.1210  -12.2390 C.ar  414  0WV414      0.0171
@<TRIPOS>BOND
     1     7     5    1
     2     6     5    2
     3     5     2    1
     4     2     1   ar
     5     2     3   ar
     6     1     8   ar
     7     3     9   ar
     8     8    11   ar
     9     9    11   ar
    10     9    10    1
    11    11     4    1
