@<TRIPOS>MOLECULE
4gxm_FMN_A_1.pdb
 31 33 0 0 0
SMALL
GASTEIGER

@<TRIPOS>ATOM
      1  N1         3.3430  -35.6150  -10.5410 N.2   407  FMN407     -0.2887
      2  C2         2.5640  -34.9600   -9.6440 C.1   407  FMN407      0.3669
      3  O2         3.0110  -33.9150   -9.1140 O.2   407  FMN407     -0.1744
      4  N3         1.3610  -35.4230   -9.2570 N.2   407  FMN407     -0.2300
      5  C4         0.8060  -36.5410   -9.7680 C.1   407  FMN407      0.2513
      6  O4        -0.2850  -36.9600   -9.3290 O.2   407  FMN407     -0.2057
      7  C4A        1.5510  -37.2890  -10.7600 C.2   407  FMN407      0.2706
      8  N5         1.0750  -38.4010  -11.3400 N.2   407  FMN407     -0.3841
      9  C5A        1.8430  -39.1080  -12.2030 C.2   407  FMN407      0.1452
     10  C6         1.3880  -40.2970  -12.7380 C.2   407  FMN407      0.0252
     11  C7         2.1280  -41.0220  -13.6510 C.2   407  FMN407     -0.0375
     12  C7M        1.6200  -42.3170  -14.1700 C.3   407  FMN407      0.0268
     13  C8         3.4460  -40.5520  -14.0140 C.3   407  FMN407      0.0417
     14  C8M        4.2770  -41.3190  -15.0140 C.3   407  FMN407      0.0091
     15  C9         3.9250  -39.3770  -13.4590 C.2   407  FMN407     -0.0049
     16  C9A        3.1780  -38.6330  -12.5640 C.2   407  FMN407      0.0795
     17  N10        3.6490  -37.4430  -11.9770 N.pl3 407  FMN407     -0.2545
     18  C10        2.8670  -36.7400  -11.0950 C.2   407  FMN407      0.2449
     19  C1'        5.0110  -36.9750  -12.2260 C.3   407  FMN407      0.1336
     20  C2'        5.9410  -37.8070  -11.3000 C.3   407  FMN407      0.2048
     21  O2'        5.7780  -37.5290   -9.9000 O.3   407  FMN407     -0.2185
     22  C3'        7.4340  -37.6340  -11.6040 C.3   407  FMN407      0.2165
     23  O3'        7.8200  -36.2620  -11.4050 O.3   407  FMN407     -0.2175
     24  C4'        7.8150  -38.0000  -13.0460 C.3   407  FMN407      0.2147
     25  O4'        7.1860  -39.2230  -13.4560 O.3   407  FMN407     -0.2176
     26  C5'        9.3250  -38.0890  -13.2450 C.3   407  FMN407      0.1892
     27  O5'        9.9440  -39.0330  -12.3760 O.3   407  FMN407     -0.2674
     28  P         10.3280  -40.5340  -12.8720 P.3   407  FMN407      0.5327
     29  O1P       11.0160  -41.1220  -11.6720 O.3   407  FMN407     -0.1145
     30  O2P        9.0230  -41.2270  -13.2020 O.3   407  FMN407     -0.1145
     31  O3P       11.2230  -40.4140  -14.0790 O.2   407  FMN407     -0.2224
@<TRIPOS>BOND
     1    14    13    1
     2    12    11    1
     3    31    28    2
     4    13    11    1
     5    13    15    1
     6    11    10    2
     7    15    16    2
     8    25    24    1
     9    26    24    1
    10    26    27    1
    11    30    28    1
    12    24    22    1
    13    28    27    1
    14    28    29    1
    15    10     9    1
    16    16     9    1
    17    16    17    1
    18    19    17    1
    19    19    20    1
    20     9     8    2
    21    17    18    1
    22    22    23    1
    23    22    20    1
    24     8     7    2
    25    20    21    1
    26    18     7    1
    27    18     1    2
    28     7     5    1
    29     1     2    2
    30     5     6    2
    31     5     4    2
    32     2     4    2
    33     2     3    2
