@<TRIPOS>MOLECULE
4gxq_ATP_A_1.pdb
 31 33 0 0 0
SMALL
GASTEIGER

@<TRIPOS>ATOM
      1  PG        98.6520  -46.1600    4.1150 P.3   601  ATP601      0.5373
      2  O1G       99.4940  -45.1110    3.4680 O.2   601  ATP601     -0.2221
      3  O2G       99.2390  -46.6120    5.4430 O.3   601  ATP601     -0.1143
      4  O3G       97.1690  -45.8310    4.1940 O.3   601  ATP601     -0.1143
      5  PB        98.5630  -48.9650    3.4690 P.3   601  ATP601      0.2277
      6  O1B       97.8610  -49.7400    2.3970 O.2   601  ATP601     -0.5168
      7  O2B       98.0320  -49.1190    4.8870 O.3   601  ATP601     -0.4368
      8  O3B       98.6850  -47.4030    3.0780 O.3   601  ATP601     -0.2258
      9  PA       100.6560  -50.9040    3.6540 P.3   601  ATP601      0.2189
     10  O1A      101.6550  -50.8430    4.7720 O.3   601  ATP601     -0.4371
     11  O2A      101.0930  -51.4540    2.3050 O.2   601  ATP601     -0.5170
     12  O3A      100.1270  -49.3800    3.4920 O.3   601  ATP601     -0.2700
     13  O5'       99.4490  -51.8740    4.0120 O.3   601  ATP601     -0.3112
     14  C5'       99.2490  -52.3660    5.3380 C.3   601  ATP601      0.1813
     15  C4'       97.7760  -52.6420    5.5210 C.3   601  ATP601      0.1821
     16  O4'       97.3270  -53.6510    4.6150 O.3   601  ATP601     -0.3135
     17  C3'       97.4280  -53.1840    6.9010 C.3   601  ATP601      0.2184
     18  O3'       97.4010  -52.1560    7.8770 O.3   601  ATP601     -0.2174
     19  C2'       96.0830  -53.7890    6.6170 C.3   601  ATP601      0.2570
     20  O2'       95.1140  -52.7380    6.5790 O.3   601  ATP601     -0.2130
     21  C1'       96.2650  -54.3830    5.2270 C.3   601  ATP601      0.3186
     22  N9        96.6330  -55.8180    5.2430 N.pl3 601  ATP601     -0.1439
     23  C8        97.8830  -56.3300    5.1040 C.3   601  ATP601      0.3377
     24  N7        97.8560  -57.6810    5.1470 N.2   601  ATP601     -0.2095
     25  C5        96.5730  -58.0450    5.3100 C.2   601  ATP601      0.2526
     26  C6        95.8210  -59.3050    5.4380 C.2   601  ATP601      0.4393
     27  N6        96.4350  -60.5110    5.3890 N.pl3 601  ATP601      0.2180
     28  N1        94.4750  -59.2250    5.6060 N.2   601  ATP601      0.0021
     29  C2        93.8170  -58.0540    5.6490 C.3   601  ATP601      0.5254
     30  N3        94.4290  -56.8700    5.5410 N.2   601  ATP601     -0.0055
     31  C4        95.7750  -56.8070    5.3640 C.2   601  ATP601      0.3518
@<TRIPOS>BOND
     1    11     9    2
     2     6     5    2
     3     8     5    1
     4     8     1    1
     5     2     1    2
     6     5    12    1
     7     5     7    1
     8    12     9    1
     9     9    13    1
    10     9    10    1
    11    13    14    1
    12     1     4    1
    13     1     3    1
    14    16    21    1
    15    16    15    1
    16    23    24    1
    17    23    22    1
    18    24    25    2
    19    21    22    1
    20    21    19    1
    21    22    31    1
    22    25    31    1
    23    25    26    1
    24    14    15    1
    25    31    30    2
    26    27    26    1
    27    26    28    2
    28    15    17    1
    29    30    29    1
    30    28    29    1
    31    20    19    1
    32    19    17    1
    33    17    18    1
