@<TRIPOS>MOLECULE
4gxr_ATP_A_1.pdb
 31 33 0 0 0
SMALL
GASTEIGER

@<TRIPOS>ATOM
      1  PG       -64.3700    9.6330    4.4540 P.3   601  ATP601      0.5373
      2  O1G      -63.6940    9.4960    5.7870 O.3   601  ATP601     -0.1143
      3  O2G      -65.8370    9.2250    4.4690 O.3   601  ATP601     -0.1143
      4  O3G      -64.0870   10.9500    3.7860 O.2   601  ATP601     -0.2221
      5  PB       -63.1250    7.1200    3.8310 P.3   601  ATP601      0.2277
      6  O1B      -63.4900    6.8180    5.2730 O.3   601  ATP601     -0.4368
      7  O2B      -63.4150    6.1250    2.7570 O.2   601  ATP601     -0.5168
      8  O3B      -63.7280    8.5640    3.4330 O.3   601  ATP601     -0.2258
      9  PA       -60.3060    6.4850    4.0040 P.3   601  ATP601      0.2189
     10  O1A      -59.5770    7.0490    5.2010 O.3   601  ATP601     -0.4371
     11  O2A      -59.5440    6.3560    2.7020 O.2   601  ATP601     -0.5170
     12  O3A      -61.5490    7.4810    3.7540 O.3   601  ATP601     -0.2700
     13  O5'      -60.9120    5.0410    4.3410 O.3   601  ATP601     -0.3112
     14  C5'      -60.9000    4.4850    5.6640 C.3   601  ATP601      0.1813
     15  C4'      -62.1040    3.5630    5.8250 C.3   601  ATP601      0.1821
     16  O4'      -62.0830    2.5030    4.8650 O.3   601  ATP601     -0.3135
     17  C3'      -62.1590    2.8590    7.1720 C.3   601  ATP601      0.2184
     18  O3'      -62.6570    3.7080    8.1990 O.3   601  ATP601     -0.2174
     19  C2'      -63.0380    1.6680    6.8640 C.3   601  ATP601      0.2570
     20  O2'      -64.4300    2.0060    6.8950 O.3   601  ATP601     -0.2130
     21  C1'      -62.6240    1.3180    5.4480 C.3   601  ATP601      0.3186
     22  N9       -61.5750    0.2760    5.4540 N.pl3 601  ATP601     -0.1439
     23  C8       -60.2570    0.4680    5.2630 C.3   601  ATP601      0.3377
     24  N7       -59.5900   -0.7080    5.3290 N.2   601  ATP601     -0.2095
     25  C5       -60.4900   -1.6670    5.5670 C.2   601  ATP601      0.2526
     26  C6       -60.4570   -3.1270    5.7620 C.2   601  ATP601      0.4393
     27  N6       -59.2980   -3.8070    5.6940 N.pl3 601  ATP601      0.2180
     28  N1       -61.6310   -3.7540    5.9910 N.2   601  ATP601      0.0021
     29  C2       -62.8030   -3.0930    6.0550 C.3   601  ATP601      0.5254
     30  N3       -62.9040   -1.7610    5.8980 N.2   601  ATP601     -0.0055
     31  C4       -61.7980   -1.0140    5.6480 C.2   601  ATP601      0.3518
@<TRIPOS>BOND
     1    11     9    2
     2     7     5    2
     3     8     5    1
     4     8     1    1
     5    12     5    1
     6    12     9    1
     7     4     1    2
     8     5     6    1
     9     9    13    1
    10     9    10    1
    11    13    14    1
    12     1     3    1
    13     1     2    1
    14    16    21    1
    15    16    15    1
    16    23    24    1
    17    23    22    1
    18    24    25    2
    19    21    22    1
    20    21    19    1
    21    22    31    1
    22    25    31    1
    23    25    26    1
    24    31    30    2
    25    14    15    1
    26    27    26    1
    27    26    28    2
    28    15    17    1
    29    30    29    1
    30    28    29    1
    31    19    20    1
    32    19    17    1
    33    17    18    1
