@<TRIPOS>MOLECULE
4gxs_0YS_B_1.pdb
 32 33 0 0 0
SMALL
GASTEIGER

@<TRIPOS>ATOM
      1  O7       -17.7900   12.2760    3.0850 O.co2 301  0YS301     -0.2437
      2  C17      -17.9920   11.3980    2.3030 C.2   301  0YS301      0.3843
      3  O8       -17.0530   10.3370    2.1600 O.co2 301  0YS301     -0.2437
      4  C9       -18.9860   11.6930    1.1660 C.3   301  0YS301      0.1994
      5  N1       -19.4410   13.0930    1.3370 N.am  301  0YS301     -0.1918
      6  C10      -20.7480   13.4830    0.8270 C.2   301  0YS301      0.2653
      7  C11      -21.1030   14.9830    0.7780 C.ar  301  0YS301      0.0569
      8  C16      -20.0100   15.9170    0.8460 C.ar  301  0YS301      0.0192
      9  C15      -20.2510   17.3300    0.7680 C.ar  301  0YS301      0.0975
     10 CL1       -18.8670   18.4710    0.8370 Cl    301  0YS301     -0.0789
     11  C14      -21.6400   17.8350    0.6020 C.ar  301  0YS301      0.2165
     12  O6       -21.8840   19.2100    0.4790 O.3   301  0YS301     -0.2848
     13  C13      -22.7290   16.8960    0.5370 C.ar  301  0YS301      0.0975
     14 CL        -24.3840   17.5470    0.3480 Cl    301  0YS301     -0.0789
     15  C12      -22.5050   15.4700    0.6190 C.ar  301  0YS301      0.0192
     16  O5       -21.4530   12.6350    0.3960 O.2   301  0YS301     -0.2684
     17  C8       -18.4000   11.5550   -0.2850 C.3   301  0YS301      0.0507
     18  C7       -17.1500   12.4600   -0.6030 C.3   301  0YS301      0.0757
     19  C6       -16.1860   12.0460   -1.7060 C.3   301  0YS301      0.0195
     20  C5       -15.7320   13.3330   -2.3790 C.3   301  0YS301      0.0311
     21  N2       -17.4000   13.9280   -0.8700 N.3   301  0YS301     -0.2091
     22  C3       -16.7420   14.3190   -2.0900 C.3   301  0YS301      0.1825
     23  C4       -17.7140   14.5310   -3.1290 C.2   301  0YS301      0.3809
     24  O4       -18.8690   14.3990   -2.8600 O.co2 301  0YS301     -0.2441
     25  O3       -17.3810   15.2560   -4.2950 O.co2 301  0YS301     -0.2441
     26  C2       -16.0170   15.6880   -1.8340 C.3   301  0YS301      0.2052
     27  O2       -16.8710   16.7960   -1.7790 O.3   301  0YS301     -0.2189
     28  C        -14.9790   15.6910   -0.6810 C.3   301  0YS301      0.2263
     29  N        -13.9280   16.6510   -0.9700 N.3   301  0YS301     -0.1180
     30  C1       -15.6390   16.0410    0.6800 C.2   301  0YS301      0.3845
     31  O        -16.4440   15.3100    1.1800 O.co2 301  0YS301     -0.2440
     32  O1       -14.9050   16.8750    1.5290 O.co2 301  0YS301     -0.2440
@<TRIPOS>BOND
     1    25    23   ar
     2    23    24   ar
     3    23    22    1
     4    20    22    1
     5    20    19    1
     6    22    26    1
     7    22    21    1
     8    26    27    1
     9    26    28    1
    10    19    18    1
    11    29    28    1
    12    21    18    1
    13    28    30    1
    14    18    17    1
    15    17     4    1
    16    14    13    1
    17    16     6    2
    18    12    11    1
    19    13    11   ar
    20    13    15   ar
    21    11     9   ar
    22    15     7   ar
    23    30    31   ar
    24    30    32   ar
    25     9    10    1
    26     9     8   ar
    27     7     6    1
    28     7     8   ar
    29     6     5   am
    30     4     5    1
    31     4     2    1
    32     3     2   ar
    33     2     1   ar
