@<TRIPOS>MOLECULE
4gxx_MAN_A_1.pdb
 11 11 0 0 0
SMALL
GASTEIGER

@<TRIPOS>ATOM
      1  C1       -11.8670   -5.9930   -9.0100 C.3   405  MAN405      0.1777
      2  C2       -10.5480   -5.3150   -9.3690 C.3   405  MAN405      0.2141
      3  C3        -9.4420   -5.9760   -8.5570 C.3   405  MAN405      0.2173
      4  C4        -9.7900   -5.8970   -7.0630 C.3   405  MAN405      0.2142
      5  C5       -11.2230   -6.3710   -6.7710 C.3   405  MAN405      0.1810
      6  C6       -11.5650   -6.1320   -5.2950 C.3   405  MAN405      0.2141
      7  O2       -10.5960   -3.9220   -9.1010 O.3   405  MAN405     -0.2176
      8  O3        -8.2190   -5.3270   -8.8190 O.3   405  MAN405     -0.2175
      9  O4        -8.8700   -6.6470   -6.2890 O.3   405  MAN405     -0.2176
     10  O5       -12.1520   -5.7240   -7.6430 O.3   405  MAN405     -0.3481
     11  O6       -12.8180   -6.6760   -4.9210 O.3   405  MAN405     -0.2176
@<TRIPOS>BOND
     1     2     7    1
     2     2     1    1
     3     2     3    1
     4     1    10    1
     5     8     3    1
     6     3     4    1
     7    10     5    1
     8     4     5    1
     9     4     9    1
    10     5     6    1
    11     6    11    1
