@<TRIPOS>MOLECULE
4gy2_ATP_B_1.pdb
 31 33 0 0 0
SMALL
GASTEIGER

@<TRIPOS>ATOM
      1  PG        -1.9670  -32.5870   24.8800 P.3   402  ATP402      0.5373
      2  O1G       -1.9320  -31.4310   23.9140 O.2   402  ATP402     -0.2221
      3  O2G       -3.3190  -33.2400   24.7170 O.3   402  ATP402     -0.1143
      4  O3G       -1.5770  -32.2810   26.3190 O.3   402  ATP402     -0.1143
      5  PB        -0.7860  -34.7690   23.3950 P.3   402  ATP402      0.2277
      6  O1B       -1.9500  -34.6640   22.4460 O.2   402  ATP402     -0.5168
      7  O2B        0.5650  -34.9020   22.7940 O.3   402  ATP402     -0.4368
      8  O3B       -0.7310  -33.4910   24.3350 O.3   402  ATP402     -0.2258
      9  PA        -1.3100  -37.4380   24.1380 P.3   402  ATP402      0.2189
     10  O1A       -0.7170  -37.6670   22.7940 O.2   402  ATP402     -0.5170
     11  O2A       -2.7610  -37.7490   24.3670 O.3   402  ATP402     -0.4371
     12  O3A       -0.9540  -35.9140   24.4840 O.3   402  ATP402     -0.2700
     13  O5'       -0.5000  -38.2750   25.2780 O.3   402  ATP402     -0.3112
     14  C5'        0.8920  -37.9840   25.5370 C.3   402  ATP402      0.1813
     15  C4'        1.2050  -38.1780   27.0000 C.3   402  ATP402      0.1821
     16  O4'        0.6340  -39.4370   27.3510 O.3   402  ATP402     -0.3135
     17  C3'        2.6610  -38.2780   27.3750 C.3   402  ATP402      0.2184
     18  O3'        2.8570  -37.5990   28.6220 O.3   402  ATP402     -0.2174
     19  C2'        2.8180  -39.7520   27.7080 C.3   402  ATP402      0.2570
     20  O2'        3.8230  -40.0180   28.6790 O.3   402  ATP402     -0.2130
     21  C1'        1.4660  -40.1280   28.2470 C.3   402  ATP402      0.3186
     22  N9         1.2320  -41.5620   28.0870 N.pl3 402  ATP402     -0.1439
     23  C8         1.2040  -42.3050   26.9660 C.3   402  ATP402      0.3377
     24  N7         0.9200  -43.6220   27.2120 N.2   402  ATP402     -0.2095
     25  C5         0.7790  -43.7080   28.5340 C.2   402  ATP402      0.2526
     26  C6         0.4970  -44.7630   29.4860 C.2   402  ATP402      0.4393
     27  N6         0.3150  -46.0270   29.1270 N.pl3 402  ATP402      0.2180
     28  N1         0.4320  -44.4140   30.7790 N.2   402  ATP402      0.0021
     29  C2         0.6200  -43.1480   31.2120 C.3   402  ATP402      0.5254
     30  N3         0.9050  -42.1350   30.3960 N.2   402  ATP402     -0.0055
     31  C4         0.9870  -42.3620   29.0880 C.2   402  ATP402      0.3518
@<TRIPOS>BOND
     1     6     5    2
     2    10     9    2
     3     7     5    1
     4     5     8    1
     5     5    12    1
     6     2     1    2
     7     9    11    1
     8     9    12    1
     9     9    13    1
    10     8     1    1
    11     3     1    1
    12     1     4    1
    13    13    14    1
    14    14    15    1
    15    23    24    1
    16    23    22    1
    17    15    16    1
    18    15    17    1
    19    24    25    2
    20    16    21    1
    21    17    19    1
    22    17    18    1
    23    19    21    1
    24    19    20    1
    25    22    21    1
    26    22    31    1
    27    25    31    1
    28    25    26    1
    29    31    30    2
    30    27    26    1
    31    26    28    2
    32    30    29    1
    33    28    29    1
