@<TRIPOS>MOLECULE
4gy2_LAR_B_1.pdb
 29 31 0 0 0
SMALL
GASTEIGER

@<TRIPOS>ATOM
      1  S1         8.7720  -36.4640   29.0970 S.3   403  LAR403     -0.0192
      2  N1         6.5300  -35.8150   28.1250 N.2   403  LAR403     -0.1932
      3  O1         7.8810  -39.5480   24.3330 O.2   403  LAR403     -0.2449
      4  O2         5.7860  -38.6280   23.9300 O.3   403  LAR403     -0.4490
      5  O3         8.1960  -35.3630   24.8060 O.3   403  LAR403     -0.3329
      6  O4         8.6060  -37.2140   26.1430 O.3   403  LAR403     -0.1930
      7  O5         6.4610  -37.2600   29.8560 O.2   403  LAR403     -0.2155
      8  C1         6.7690  -39.7050   23.8600 C.2   403  LAR403      0.3407
      9  C2         6.4490  -41.0100   23.2430 C.2   403  LAR403      0.0734
     10  C3         7.0660  -41.5140   22.1480 C.2   403  LAR403     -0.0372
     11  C4         8.1500  -40.7400   21.4070 C.3   403  LAR403      0.0269
     12  C5         9.5900  -41.0650   21.8170 C.3   403  LAR403      0.0300
     13  C6        10.2830  -39.7400   22.0480 C.2   403  LAR403     -0.0304
     14  C7        11.1820  -39.1480   21.2370 C.2   403  LAR403     -0.0307
     15  C8        11.7180  -37.8410   21.6650 C.3   403  LAR403      0.0257
     16  C9        11.4680  -37.5670   22.9530 C.3   403  LAR403      0.0047
     17  C10       11.8050  -36.3340   23.7700 C.3   403  LAR403      0.0004
     18  C11       10.9860  -35.1060   23.3200 C.3   403  LAR403      0.0025
     19  C12        9.5500  -35.3600   22.8040 C.3   403  LAR403      0.0298
     20  C13        8.6600  -36.1960   23.7370 C.3   403  LAR403      0.1214
     21  C14        7.4860  -36.9230   23.0440 C.3   403  LAR403      0.0734
     22  C15        6.2600  -37.2510   23.9480 C.3   403  LAR403      0.1766
     23  C16        6.3350  -36.7720   25.4170 C.3   403  LAR403      0.1048
     24  C17        7.6650  -36.1600   25.8770 C.3   403  LAR403      0.2448
     25  C18        7.4940  -35.2940   27.1540 C.3   403  LAR403      0.1810
     26  C19        8.8160  -35.1500   27.9260 C.3   403  LAR403      0.1042
     27  C20        7.0900  -36.5520   29.0810 C.1   403  LAR403      0.1790
     28  C21        6.6170  -42.8600   21.6230 C.3   403  LAR403      0.0266
     29  C22       13.3230  -36.1440   23.8260 C.3   403  LAR403      0.0000
@<TRIPOS>BOND
     1    14    15    1
     2    14    13    2
     3    11    12    1
     4    11    10    1
     5    28    10    1
     6    15    16    1
     7    12    13    1
     8    10     9    2
     9    19    18    1
    10    19    20    1
    11    16    17    1
    12    21    20    1
    13    21    22    1
    14     9     8    1
    15    18    17    1
    16    20     5    1
    17    17    29    1
    18     8     4    1
    19     8     3    2
    20     4    22    1
    21    22    23    1
    22     5    24    1
    23    23    24    1
    24    24     6    1
    25    24    25    1
    26    25    26    1
    27    25     2    1
    28    26     1    1
    29     2    27    2
    30    27     1    1
    31    27     7    2
