@<TRIPOS>MOLECULE
4gyf_HSO_A_1.pdb
 10 10 0 0 0
SMALL
GASTEIGER

@<TRIPOS>ATOM
      1  N         24.5190   28.8570    5.0940 N.3   313  HSO313     -0.1241
      2  CA        25.8090   28.8650    5.7840 C.3   313  HSO313      0.1618
      3  CB        26.1490   30.2310    6.3850 C.3   313  HSO313      0.0704
      4  CG        27.5470   30.2890    6.9580 C.2   313  HSO313      0.0649
      5  ND1       27.9810   31.1030    7.9480 N.2   313  HSO313     -0.2310
      6  CD2       28.6210   29.4970    6.5560 C.3   313  HSO313      0.1683
      7  CE1       29.2870   30.8350    8.1620 C.2   313  HSO313      0.1939
      8  NE2       29.6910   29.8550    7.3110 N.2   313  HSO313     -0.2440
      9  C         25.7090   27.8590    6.9230 C.2   313  HSO313      0.2264
     10  O         26.2900   26.7780    6.8460 O.2   313  HSO313     -0.2867
@<TRIPOS>BOND
     1     1     2    1
     2     2     3    1
     3     2     9    1
     4     3     4    1
     5     6     4    1
     6     6     8    1
     7    10     9    2
     8     4     5    2
     9     8     7    2
    10     5     7    1
