@<TRIPOS>MOLECULE
4gyi_ADP_A_1.pdb
 27 29 0 0 0
SMALL
GASTEIGER

@<TRIPOS>ATOM
      1  PB        16.3110   25.6690  -23.4100 P.3   401  ADP401      0.5373
      2  O1B       17.5170   26.3860  -23.9670 O.2   401  ADP401     -0.2221
      3  O2B       15.2560   26.4880  -22.7080 O.3   401  ADP401     -0.1143
      4  O3B       16.8720   24.4440  -22.5580 O.3   401  ADP401     -0.1143
      5  PA        14.1180   24.3270  -24.7260 P.3   401  ADP401      0.2231
      6  O1A       13.2990   25.0170  -23.6690 O.3   401  ADP401     -0.4370
      7  O2A       14.0820   22.8050  -24.7760 O.2   401  ADP401     -0.5169
      8  O3A       15.6440   24.8420  -24.6450 O.3   401  ADP401     -0.2261
      9  O5'       13.7120   24.9700  -26.1320 O.3   401  ADP401     -0.3111
     10  C5'       13.8360   26.3860  -26.3230 C.3   401  ADP401      0.1813
     11  C4'       12.8130   26.8570  -27.3550 C.3   401  ADP401      0.1821
     12  O4'       12.9590   26.1170  -28.5800 O.3   401  ADP401     -0.3135
     13  C3'       11.3560   26.6430  -26.9460 C.3   401  ADP401      0.2184
     14  O3'       10.8170   27.7100  -26.1580 O.3   401  ADP401     -0.2174
     15  C2'       10.6420   26.5110  -28.2740 C.3   401  ADP401      0.2570
     16  O2'       10.4920   27.7980  -28.8850 O.3   401  ADP401     -0.2130
     17  C1'       11.6710   25.8200  -29.1330 C.3   401  ADP401      0.3186
     18  N9        11.5610   24.3480  -29.1270 N.pl3 401  ADP401     -0.1439
     19  C8        12.3310   23.5080  -28.4100 C.3   401  ADP401      0.3377
     20  N7        12.0160   22.2100  -28.6640 N.2   401  ADP401     -0.2095
     21  C5        11.0280   22.2390  -29.5820 C.2   401  ADP401      0.2526
     22  C6        10.2320   21.2340  -30.3080 C.2   401  ADP401      0.4393
     23  N6        10.4430   19.9190  -30.0930 N.pl3 401  ADP401      0.2180
     24  N1         9.3050   21.6750  -31.1820 N.2   401  ADP401      0.0021
     25  C2         9.0930   22.9890  -31.4180 C.3   401  ADP401      0.5254
     26  N3         9.7820   23.9570  -30.8000 N.2   401  ADP401     -0.0055
     27  C4        10.7360   23.6440  -29.8860 C.2   401  ADP401      0.3518
@<TRIPOS>BOND
     1    25    24    1
     2    25    26    1
     3    24    22    2
     4    26    27    2
     5    22    23    1
     6    22    21    1
     7    27    21    1
     8    27    18    1
     9    21    20    2
    10    17    18    1
    11    17    12    1
    12    17    15    1
    13    18    19    1
    14    16    15    1
    15    20    19    1
    16    12    11    1
    17    15    13    1
    18    11    13    1
    19    11    10    1
    20    13    14    1
    21    10     9    1
    22     9     5    1
    23     7     5    2
    24     5     8    1
    25     5     6    1
    26     8     1    1
    27     2     1    2
    28     1     3    1
    29     1     4    1
