@<TRIPOS>MOLECULE
4gyj_MUB_A_1.pdb
 19 19 0 0 0
SMALL
GASTEIGER

@<TRIPOS>ATOM
      1  C1        31.9120  -27.9000  -20.4160 C.3   702  MUB702      0.2915
      2  C2        31.0420  -28.3830  -19.2520 C.3   702  MUB702      0.1813
      3  C3        31.7020  -28.1530  -18.0580 C.3   702  MUB702      0.1433
      4  C4        32.9670  -28.9130  -18.0070 C.3   702  MUB702      0.0639
      5  C5        33.8110  -28.5320  -19.2120 C.3   702  MUB702      0.1532
      6  C6        35.0450  -29.3350  -19.4290 C.3   702  MUB702      0.2116
      7  C7        28.8060  -28.0820  -20.3660 C.2   702  MUB702      0.2420
      8  C8        27.5070  -27.3400  -20.4840 C.3   702  MUB702      0.0964
      9  C9        30.6850  -27.5920  -15.8290 C.3   702  MUB702      0.2177
     10  C10       29.7160  -26.4590  -16.0970 C.2   702  MUB702      0.3913
     11  C11       30.2700  -28.3500  -14.6240 C.3   702  MUB702      0.0444
     12  O1        32.2420  -26.6060  -20.2170 O.3   702  MUB702     -0.1879
     13  O3        30.8330  -28.5070  -16.9040 O.3   702  MUB702     -0.3455
     14  O5        33.0880  -28.6670  -20.4100 O.3   702  MUB702     -0.3269
     15  O6        35.4920  -29.4120  -20.7130 O.3   702  MUB702     -0.2177
     16  O7        29.0260  -28.9990  -21.1110 O.2   702  MUB702     -0.2733
     17  O11       30.0010  -25.2920  -15.7260 O.co2 702  MUB702     -0.2430
     18  O10       28.6110  -26.6450  -16.6800 O.co2 702  MUB702     -0.2430
     19  N2        29.7420  -27.6380  -19.3550 N.am  702  MUB702     -0.1993
@<TRIPOS>BOND
     1    16     7    2
     2    15     6    1
     3     8     7    1
     4     1    14    1
     5     1    12    1
     6     1     2    1
     7    14     5    1
     8     7    19   am
     9     6     5    1
    10    19     2    1
    11     2     3    1
    12     5     4    1
    13     3     4    1
    14     3    13    1
    15    13     9    1
    16    18    10   ar
    17    10     9    1
    18    10    17   ar
    19     9    11    1
