@<TRIPOS>MOLECULE
4gyj_NAG_A_1.pdb
 15 15 0 0 0
SMALL
GASTEIGER

@<TRIPOS>ATOM
      1  C1        34.4090  -29.4900  -16.0180 C.3   701  NAG701      0.2917
      2  C2        34.1590  -29.3790  -14.5350 C.3   701  NAG701      0.1871
      3  C3        33.8340  -30.6640  -13.8480 C.3   701  NAG701      0.2095
      4  C4        33.0490  -31.5160  -14.6620 C.3   701  NAG701      0.2136
      5  C5        33.8520  -31.9460  -15.8430 C.3   701  NAG701      0.1835
      6  C6        33.0170  -32.6970  -16.7860 C.3   701  NAG701      0.2142
      7  C7        35.2130  -27.6050  -13.1230 C.2   701  NAG701      0.2421
      8  C8        36.4140  -27.0210  -12.4130 C.3   701  NAG701      0.0964
      9  N2        35.3510  -28.8340  -13.8850 N.am  701  NAG701     -0.1991
     10  O1        33.5860  -28.6010  -16.7460 O.3   701  NAG701     -0.1879
     11  O3        33.1430  -30.3110  -12.6420 O.3   701  NAG701     -0.2183
     12  O4        32.5900  -32.6630  -13.9100 O.3   701  NAG701     -0.2176
     13  O5        34.4050  -30.7720  -16.5840 O.3   701  NAG701     -0.3242
     14  O6        31.9300  -32.0060  -17.3380 O.3   701  NAG701     -0.2176
     15  O7        34.1210  -27.0550  -13.0640 O.2   701  NAG701     -0.2733
@<TRIPOS>BOND
     1    14     6    1
     2     6     5    1
     3    10     1    1
     4    13     1    1
     5    13     5    1
     6     1     2    1
     7     5     4    1
     8     4    12    1
     9     4     3    1
    10     2     9    1
    11     2     3    1
    12     9     7   am
    13     3    11    1
    14     7    15    2
    15     7     8    1
