@<TRIPOS>MOLECULE
4gyk_NAG_A_1.pdb
 15 15 0 0 0
SMALL
GASTEIGER

@<TRIPOS>ATOM
      1  C1        10.3410   21.2510   22.2590 C.3   701  NAG701      0.2917
      2  C2        10.0900   19.8040   22.5940 C.3   701  NAG701      0.1871
      3  C3         9.7010   18.9760   21.4140 C.3   701  NAG701      0.2095
      4  C4         8.7680   19.6010   20.5310 C.3   701  NAG701      0.2136
      5  C5         9.2320   20.9760   20.1500 C.3   701  NAG701      0.1835
      6  C6         8.2420   21.6230   19.2950 C.3   701  NAG701      0.2142
      7  C7        11.2670   18.5330   24.3920 C.2   701  NAG701      0.2421
      8  C8        12.5150   17.9620   25.0240 C.3   701  NAG701      0.0964
      9  N2        11.3370   19.2720   23.1420 N.am  701  NAG701     -0.1991
     10  O1        10.4610   21.9260   23.4960 O.3   701  NAG701     -0.1879
     11  O3         9.2650   17.6730   21.8600 O.3   701  NAG701     -0.2183
     12  O4         8.5460   18.7700   19.3540 O.3   701  NAG701     -0.2176
     13  O5         9.3740   21.7960   21.3860 O.3   701  NAG701     -0.3242
     14  O6         7.0830   22.1090   19.9370 O.3   701  NAG701     -0.2176
     15  O7        10.1820   18.3960   24.9310 O.2   701  NAG701     -0.2733
@<TRIPOS>BOND
     1     6    14    1
     2     6     5    1
     3    12     4    1
     4     5     4    1
     5     5    13    1
     6     4     3    1
     7    13     1    1
     8     3    11    1
     9     3     2    1
    10     1     2    1
    11     1    10    1
    12     2     9    1
    13     9     7   am
    14     7    15    2
    15     7     8    1
