@<TRIPOS>MOLECULE
4gyk_MUB_A_1.pdb
 19 19 0 0 0
SMALL
GASTEIGER

@<TRIPOS>ATOM
      1  C1        10.1970   25.8160   24.8950 C.3   702  MUB702      0.2915
      2  C2         8.9700   24.8670   24.8200 C.3   702  MUB702      0.1813
      3  C3         9.3230   23.5320   24.7530 C.3   702  MUB702      0.1433
      4  C4        10.2520   23.3310   23.6460 C.3   702  MUB702      0.0639
      5  C5        11.5150   24.0630   23.9860 C.3   702  MUB702      0.1532
      6  C6        12.6250   23.7170   23.0380 C.3   702  MUB702      0.2116
      7  C7         6.6340   25.2110   25.7150 C.2   702  MUB702      0.2420
      8  C8         5.6490   25.4260   26.8550 C.3   702  MUB702      0.0964
      9  C9         7.6200   21.8850   25.6030 C.3   702  MUB702      0.2177
     10  C10        6.3680   21.1760   25.1750 C.2   702  MUB702      0.3913
     11  C11        8.6060   20.8790   26.0640 C.3   702  MUB702      0.0444
     12  O1        10.6980   25.8000   26.1520 O.3   702  MUB702     -0.1879
     13  O3         8.1380   22.6560   24.5410 O.3   702  MUB702     -0.3455
     14  O5        11.2330   25.4470   23.9900 O.3   702  MUB702     -0.3269
     15  O6        13.2860   22.5410   23.2560 O.3   702  MUB702     -0.2177
     16  O7         6.2370   25.1470   24.5670 O.2   702  MUB702     -0.2733
     17  O11        6.3290   19.9140   25.1670 O.co2 702  MUB702     -0.2430
     18  O10        5.3550   21.8340   24.8340 O.co2 702  MUB702     -0.2430
     19  N2         8.0430   25.0820   25.9950 N.am  702  MUB702     -0.1993
@<TRIPOS>BOND
     1     6    15    1
     2     6     5    1
     3     4     5    1
     4     4     3    1
     5     5    14    1
     6    14     1    1
     7    13     3    1
     8    13     9    1
     9    16     7    2
    10     3     2    1
    11     2     1    1
    12     2    19    1
    13    18    10   ar
    14     1    12    1
    15    17    10   ar
    16    10     9    1
    17     9    11    1
    18     7    19   am
    19     7     8    1
