@<TRIPOS>MOLECULE
4gyw_UDP_A_1.pdb
 25 26 0 0 0
SMALL
GASTEIGER

@<TRIPOS>ATOM
      1  N1       -15.4240   27.7310   14.4520 N.am  1101  UDP1101    -0.1766
      2  C2       -14.3000   27.2340   15.0560 C.1   1101  UDP1101     0.2845
      3  N3       -13.6980   27.9730   16.0510 N.2   1101  UDP1101    -0.2452
      4  C4       -14.2130   29.1940   16.4400 C.1   1101  UDP1101     0.2182
      5  C5       -15.3350   29.7100   15.8010 C.2   1101  UDP1101     0.1242
      6  C6       -15.9460   28.9510   14.8090 C.2   1101  UDP1101     0.0929
      7  O2       -13.8280   26.1390   14.7220 O.2   1101  UDP1101    -0.1918
      8  O4       -13.6540   29.8190   17.3350 O.2   1101  UDP1101    -0.2085
      9  C1'      -16.0160   27.0020   13.3330 C.3   1101  UDP1101     0.2401
     10  C2'      -17.4890   26.6830   13.4430 C.3   1101  UDP1101     0.2319
     11  O2'      -17.6880   25.4760   14.1550 O.3   1101  UDP1101    -0.2157
     12  C3'      -17.8250   26.5510   11.9650 C.3   1101  UDP1101     0.2158
     13  C4'      -16.9160   27.5660   11.2900 C.3   1101  UDP1101     0.1799
     14  O4'      -15.8830   27.8700   12.2190 O.3   1101  UDP1101    -0.3320
     15  O3'      -17.4790   25.2600   11.5020 O.3   1101  UDP1101    -0.2175
     16  C5'      -17.6510   28.8610   10.9420 C.3   1101  UDP1101     0.1813
     17  O5'      -18.1620   28.7260    9.6360 O.3   1101  UDP1101    -0.3111
     18  PA       -19.3910   29.6250    9.1330 P.3   1101  UDP1101     0.2231
     19  O1A      -19.6030   29.4160    7.6830 O.2   1101  UDP1101    -0.5169
     20  O2A      -19.1610   31.0350    9.4980 O.3   1101  UDP1101    -0.4370
     21  O3A      -20.5660   29.0060   10.0510 O.3   1101  UDP1101    -0.2261
     22  PB       -22.1600   29.0650    9.8120 P.3   1101  UDP1101     0.5373
     23  O1B      -22.6850   29.3100   11.1820 O.3   1101  UDP1101    -0.1143
     24  O2B      -22.6110   27.7660    9.2900 O.3   1101  UDP1101    -0.1143
     25  O3B      -22.5010   30.1700    8.8920 O.2   1101  UDP1101    -0.2221
@<TRIPOS>BOND
     1    19    18    2
     2    25    22    2
     3    18    20    1
     4    18    17    1
     5    18    21    1
     6    24    22    1
     7    17    16    1
     8    22    21    1
     9    22    23    1
    10    16    13    1
    11    13    12    1
    12    13    14    1
    13    15    12    1
    14    12    10    1
    15    14     9    1
    16     9    10    1
    17     9     1    1
    18    10    11    1
    19     1     6    1
    20     1     2   am
    21     7     2    2
    22     6     5    2
    23     2     3    2
    24     5     4    1
    25     3     4    2
    26     4     8    2
