@<TRIPOS>MOLECULE
4gyw_NAG_B_1.pdb
 14 14 0 0 0
SMALL
GASTEIGER

@<TRIPOS>ATOM
      1  C1       -21.6970   27.1410    6.0500 C.3   101  NAG101      0.1665
      2  C2       -23.0280   27.7630    5.6450 C.3   101  NAG101      0.1576
      3  C3       -24.1910   26.9830    6.2490 C.3   101  NAG101      0.2069
      4  C4       -24.0640   25.5130    5.8800 C.3   101  NAG101      0.2134
      5  C5       -22.7090   25.0040    6.3480 C.3   101  NAG101      0.1809
      6  C6       -22.5180   23.5470    5.9360 C.3   101  NAG101      0.2141
      7  C7       -23.3190   30.1560    5.3020 C.2   101  NAG101      0.2420
      8  C8       -23.4890   31.5070    5.9500 C.3   101  NAG101      0.0964
      9  N2       -23.0700   29.1330    6.1160 N.am  101  NAG101     -0.2019
     10  O3       -25.4280   27.4920    5.7900 O.3   101  NAG101     -0.2184
     11  O4       -25.0710   24.7710    6.5250 O.3   101  NAG101     -0.2176
     12  O5       -21.6950   25.7610    5.7300 O.3   101  NAG101     -0.3489
     13  O6       -22.2640   23.4950    4.5440 O.3   101  NAG101     -0.2176
     14  O7       -23.4110   30.0100    4.0810 O.2   101  NAG101     -0.2733
@<TRIPOS>BOND
     1    14     7    2
     2    13     6    1
     3     7     8    1
     4     7     9   am
     5     2     1    1
     6     2     9    1
     7     2     3    1
     8    12     1    1
     9    12     5    1
    10    10     3    1
    11     4     3    1
    12     4     5    1
    13     4    11    1
    14     6     5    1
