@<TRIPOS>MOLECULE
4gyy_12V_A_1.pdb
 39 41 0 0 0
SMALL
GASTEIGER

@<TRIPOS>ATOM
      1  N1       -15.3130   27.8000   14.2000 N.am  1501  12V1501    -0.1766
      2  C2       -14.1630   27.2630   14.8360 C.1   1501  12V1501     0.2845
      3  O2       -13.7240   26.1700   14.4890 O.2   1501  12V1501    -0.1918
      4  N3       -13.5680   28.0010   15.8620 N.2   1501  12V1501    -0.2452
      5  C4       -14.1150   29.1720   16.1690 C.1   1501  12V1501     0.2182
      6  O4       -13.5430   29.8790   17.1660 O.2   1501  12V1501    -0.2085
      7  C5       -15.2550   29.7700   15.5610 C.2   1501  12V1501     0.1242
      8  C6       -15.8270   29.0350   14.5500 C.2   1501  12V1501     0.0929
      9  PA       -19.1830   29.7150    8.6690 P.3   1501  12V1501     0.2189
     10  PB       -21.9720   29.2850    9.3390 P.3   1501  12V1501     0.2196
     11  C1'      -22.0450   28.0430    6.9690 C.3   1501  12V1501     0.1916
     12  O1'      -22.4450   27.9940    8.2210 O.3   1501  12V1501    -0.3033
     13  O1A      -19.1810   29.4150    7.2230 O.2   1501  12V1501    -0.5170
     14  C1B      -15.9090   27.0580   13.0760 C.3   1501  12V1501     0.2401
     15  O1B      -22.0320   30.6060    8.6230 O.2   1501  12V1501    -0.5170
     16  C2'      -23.1800   28.2190    5.9380 C.3   1501  12V1501     0.1659
     17  N2'      -23.8280   29.5180    6.0880 N.am  1501  12V1501    -0.2010
     18  O2'      -17.6090   25.4860   13.8940 O.3   1501  12V1501    -0.2157
     19  O2A      -18.8790   31.0240    9.3570 O.3   1501  12V1501    -0.4371
     20  C2B      -17.3970   26.6950   13.1850 C.3   1501  12V1501     0.2319
     21  O2B      -22.7280   28.9120   10.5580 O.3   1501  12V1501    -0.4371
     22  C3'      -24.1960   27.0640    6.1040 C.3   1501  12V1501     0.2061
     23  O3'      -25.2850   27.3270    5.2620 O.3   1501  12V1501    -0.2184
     24  O3A      -20.4230   29.0530    9.4380 O.3   1501  12V1501    -0.2703
     25  C3B      -17.7330   26.5340   11.6700 C.3   1501  12V1501     0.2158
     26  O3B      -17.3300   25.2370   11.3040 O.3   1501  12V1501    -0.2175
     27  C4'      -23.6530   25.6720    5.6680 C.3   1501  12V1501     0.1964
     28  O4'      -24.7360   24.7810    5.8020 O.3   1501  12V1501    -0.2193
     29  C4B      -16.7960   27.5660   10.9790 C.3   1501  12V1501     0.1799
     30  O4B      -15.7690   27.8550   11.9310 O.3   1501  12V1501    -0.3320
     31  C5'      -22.5590   25.1750    6.6050 C.3   1501  12V1501     0.1158
     32  S5'      -21.1830   26.3770    6.5990 S.3   1501  12V1501    -0.1053
     33  C5B      -17.5180   28.8850   10.6070 C.3   1501  12V1501     0.1813
     34  O5B      -17.9440   28.7190    9.3270 O.3   1501  12V1501    -0.3112
     35  C6'      -21.8000   23.9180    6.1250 C.3   1501  12V1501     0.1955
     36  O6'      -21.2140   24.1000    4.8550 O.3   1501  12V1501    -0.2194
     37  C7'      -23.2780   30.6430    5.5130 C.2   1501  12V1501     0.2420
     38  O7'      -22.2410   30.5900    4.8460 O.2   1501  12V1501    -0.2733
     39  C8'      -23.9950   31.9660    5.7160 C.3   1501  12V1501     0.0964
@<TRIPOS>BOND
     1    38    37    2
     2    36    35    1
     3    23    22    1
     4    37    39    1
     5    37    17   am
     6    27    28    1
     7    27    22    1
     8    27    31    1
     9    16    17    1
    10    16    22    1
    11    16    11    1
    12    35    31    1
    13    32    31    1
    14    32    11    1
    15    11    12    1
    16    13     9    2
    17    12    10    1
    18    15    10    2
    19     9    34    1
    20     9    19    1
    21     9    24    1
    22    34    33    1
    23    10    24    1
    24    10    21    1
    25    33    29    1
    26    29    25    1
    27    29    30    1
    28    26    25    1
    29    25    20    1
    30    30    14    1
    31    14    20    1
    32    14     1    1
    33    20    18    1
    34     1     8    1
    35     1     2   am
    36     3     2    2
    37     8     7    2
    38     2     4    2
    39     7     5    1
    40     4     5    2
    41     5     6    2
