@<TRIPOS>MOLECULE
4gyz_D5M_A_1.pdb
 22 24 0 0 0
SMALL
GASTEIGER

@<TRIPOS>ATOM
      1  O5'       22.1080   75.3040   46.7430 O.3   401  D5M401     -0.2675
      2  C5'       20.8750   74.6900   46.8610 C.3   401  D5M401      0.1859
      3  C4'       19.8240   75.7340   47.0390 C.3   401  D5M401      0.1796
      4  O4'       20.0070   76.4170   48.2150 O.3   401  D5M401     -0.3155
      5  C3'       19.9120   76.7240   45.9380 C.3   401  D5M401      0.1883
      6  O3'       18.9100   76.5170   45.0150 O.3   401  D5M401     -0.2202
      7  C2'       19.7640   78.0690   46.5520 C.3   401  D5M401      0.1151
      8  C1'       19.7190   77.7540   48.0130 C.3   401  D5M401      0.2873
      9  N9        20.6750   78.5650   48.7040 N.pl3 401  D5M401     -0.1460
     10  C8        21.9150   78.2420   49.0670 C.3   401  D5M401      0.3377
     11  N7        22.5190   79.2360   49.6890 N.2   401  D5M401     -0.2095
     12  C5        21.6100   80.2270   49.7120 C.2   401  D5M401      0.2526
     13  C6        21.6510   81.4760   50.2090 C.2   401  D5M401      0.4393
     14  N6        22.8560   81.9710   50.7920 N.pl3 401  D5M401      0.2180
     15  N1        20.5690   82.2730   50.0980 N.2   401  D5M401      0.0021
     16  C2        19.5720   81.8960   49.2070 C.3   401  D5M401      0.5254
     17  N3        19.3350   80.5560   48.9430 N.2   401  D5M401     -0.0055
     18  C4        20.4520   79.8420   49.1080 C.2   401  D5M401      0.3518
     19  P         23.3790   74.4230   46.5180 P.3   401  D5M401      0.5327
     20  O1P       23.5800   73.5200   47.7160 O.3   401  D5M401     -0.1145
     21  O3P       24.5800   75.3170   46.3330 O.3   401  D5M401     -0.1145
     22  O2P       23.1810   73.5830   45.2780 O.2   401  D5M401     -0.2224
@<TRIPOS>BOND
     1     6     5    1
     2    22    19    2
     3     5     7    1
     4     5     3    1
     5    21    19    1
     6    19     1    1
     7    19    20    1
     8     7     8    1
     9     1     2    1
    10     2     3    1
    11     3     4    1
    12     8     4    1
    13     8     9    1
    14     9    10    1
    15     9    18    1
    16    17    18    2
    17    17    16    1
    18    10    11    1
    19    18    12    1
    20    16    15    1
    21    11    12    2
    22    12    13    1
    23    15    13    2
    24    13    14    1
