@<TRIPOS>MOLECULE
4gz3_0YT_B_1.pdb
 14 14 0 0 0
SMALL
GASTEIGER

@<TRIPOS>ATOM
      1  C1       -21.5240   27.1650    6.0380 C.3   101  0YT101      0.0820
      2  C2       -22.8820   27.7810    5.6930 C.3   101  0YT101      0.1389
      3  N2       -22.9660   29.1750    6.1000 N.am  101  0YT101     -0.2036
      4  C7       -23.2010   30.2140    5.2160 C.2   101  0YT101      0.2419
      5  O7       -23.3150   30.0300    4.0500 O.2   101  0YT101     -0.2733
      6  C8       -23.2870   31.6280    5.8070 C.3   101  0YT101      0.0964
      7  C3       -24.0700   26.9440    6.2300 C.3   101  0YT101      0.2036
      8  O3       -25.2950   27.5200    5.7680 O.3   101  0YT101     -0.2185
      9  C4       -24.0090   25.4210    5.9240 C.3   101  0YT101      0.1962
     10  O4       -25.1620   24.8410    6.3970 O.3   101  0YT101     -0.2194
     11  C5       -22.8160   24.7280    6.5630 C.3   101  0YT101      0.1135
     12  C6       -22.7930   23.2180    6.3410 C.3   101  0YT101      0.1954
     13  O6       -23.1470   22.7700    5.0910 O.3   101  0YT101     -0.2194
     14  S5       -21.3680   25.3780    5.8040 S.3   101  0YT101     -0.1339
@<TRIPOS>BOND
     1     5     4    2
     2    13    12    1
     3     4     6    1
     4     4     3   am
     5     2     1    1
     6     2     3    1
     7     2     7    1
     8     8     7    1
     9    14     1    1
    10    14    11    1
    11     9     7    1
    12     9    10    1
    13     9    11    1
    14    12    11    1
