@<TRIPOS>MOLECULE
4gz3_UDP_A_1.pdb
 25 26 0 0 0
SMALL
GASTEIGER

@<TRIPOS>ATOM
      1  N1       -15.2680   27.6930   14.4530 N.am  1101  UDP1101    -0.1766
      2  C2       -14.1350   27.2220   15.0720 C.1   1101  UDP1101     0.2845
      3  N3       -13.5570   27.9670   16.0730 N.2   1101  UDP1101    -0.2452
      4  C4       -14.1050   29.1840   16.4430 C.1   1101  UDP1101     0.2182
      5  C5       -15.2410   29.6690   15.8010 C.2   1101  UDP1101     0.1242
      6  C6       -15.8380   28.8860   14.8170 C.2   1101  UDP1101     0.0929
      7  O2       -13.6560   26.1330   14.7330 O.2   1101  UDP1101    -0.1918
      8  O4       -13.5770   29.8440   17.3340 O.2   1101  UDP1101    -0.2085
      9  C1'      -15.8350   26.9120   13.3490 C.3   1101  UDP1101     0.2401
     10  C2'      -17.3050   26.5680   13.4620 C.3   1101  UDP1101     0.2319
     11  O2'      -17.5280   25.3740   14.1880 O.3   1101  UDP1101    -0.2157
     12  C3'      -17.6570   26.4320   11.9900 C.3   1101  UDP1101     0.2158
     13  C4'      -16.7670   27.4570   11.3060 C.3   1101  UDP1101     0.1799
     14  O4'      -15.7190   27.7370   12.1990 O.3   1101  UDP1101    -0.3320
     15  O3'      -17.3120   25.1560   11.5040 O.3   1101  UDP1101    -0.2175
     16  C5'      -17.5290   28.7390   10.9970 C.3   1101  UDP1101     0.1813
     17  O5'      -18.0120   28.6690    9.6800 O.3   1101  UDP1101    -0.3111
     18  PA       -19.2280   29.6030    9.1830 P.3   1101  UDP1101     0.2231
     19  O1A      -19.4100   29.4290    7.7300 O.2   1101  UDP1101    -0.5169
     20  O2A      -19.0060   31.0030    9.5910 O.3   1101  UDP1101    -0.4370
     21  O3A      -20.4110   28.9260   10.0480 O.3   1101  UDP1101    -0.2261
     22  PB       -21.9950   29.0240    9.7840 P.3   1101  UDP1101     0.5373
     23  O1B      -22.3730   30.1090    8.8400 O.2   1101  UDP1101    -0.2221
     24  O2B      -22.4530   27.7350    9.2390 O.3   1101  UDP1101    -0.1143
     25  O3B      -22.5950   29.2790   11.1110 O.3   1101  UDP1101    -0.1143
@<TRIPOS>BOND
     1    19    18    2
     2    23    22    2
     3    18    20    1
     4    18    17    1
     5    18    21    1
     6    24    22    1
     7    17    16    1
     8    22    21    1
     9    22    25    1
    10    16    13    1
    11    13    12    1
    12    13    14    1
    13    15    12    1
    14    12    10    1
    15    14     9    1
    16     9    10    1
    17     9     1    1
    18    10    11    1
    19     1     6    1
    20     1     2   am
    21     7     2    2
    22     6     5    2
    23     2     3    2
    24     5     4    1
    25     3     4    2
    26     4     8    2
