@<TRIPOS>MOLECULE
4gz5_UD1_A_1.pdb
 39 41 0 0 0
SMALL
GASTEIGER

@<TRIPOS>ATOM
      1  C1'     -131.9150   28.7570   36.9940 C.3   1501  UD11501     0.2633
      2  C2'     -131.2020   29.3530   38.2590 C.3   1501  UD11501     0.1845
      3  C3'     -132.2150   29.4930   39.4140 C.3   1501  UD11501     0.2094
      4  C4'     -133.4380   30.3480   38.9600 C.3   1501  UD11501     0.2136
      5  C5'     -133.9970   29.8080   37.6030 C.3   1501  UD11501     0.1834
      6  C6'     -135.0450   30.7530   36.9900 C.3   1501  UD11501     0.2142
      7  C7'     -128.7960   28.7610   38.3960 C.2   1501  UD11501     0.2420
      8  C8'     -127.8220   27.6990   38.8500 C.3   1501  UD11501     0.0964
      9  N2'     -130.1090   28.4650   38.6240 N.am  1501  UD11501    -0.1992
     10  O1'     -132.4300   27.5180   37.2520 O.3   1501  UD11501    -0.2864
     11  O3'     -131.5960   30.1410   40.4860 O.3   1501  UD11501    -0.2183
     12  O4'     -134.3960   30.2350   39.9810 O.3   1501  UD11501    -0.2176
     13  O5'     -132.9640   29.6520   36.6490 O.3   1501  UD11501    -0.3260
     14  O6'     -134.4270   31.9390   36.5850 O.3   1501  UD11501    -0.2176
     15  O7'     -128.4170   29.8040   37.8650 O.2   1501  UD11501    -0.2733
     16  N1      -135.1540   22.8900   29.5790 N.am  1501  UD11501    -0.1766
     17  C2      -136.0000   22.5290   28.4550 C.1   1501  UD11501     0.2845
     18  N3      -135.6620   21.3800   27.7110 N.2   1501  UD11501    -0.2452
     19  C4      -134.6840   20.6160   28.1660 C.1   1501  UD11501     0.2182
     20  C5      -133.8270   20.9290   29.2700 C.2   1501  UD11501     0.1242
     21  C6      -134.1830   22.0260   30.0080 C.2   1501  UD11501     0.0929
     22  O2      -136.9690   23.1910   28.1570 O.2   1501  UD11501    -0.1918
     23  O4      -134.3350   19.5620   27.4090 O.2   1501  UD11501    -0.2085
     24  C1B     -135.4840   24.0990   30.3800 C.3   1501  UD11501     0.2401
     25  C2B     -136.2970   23.8090   31.6520 C.3   1501  UD11501     0.2319
     26  O2'     -137.6030   23.5330   31.2620 O.3   1501  UD11501    -0.2157
     27  C3B     -136.0620   25.1450   32.3850 C.3   1501  UD11501     0.2158
     28  C4B     -134.6530   25.5800   31.8900 C.3   1501  UD11501     0.1799
     29  O4B     -134.3300   24.7070   30.8070 O.3   1501  UD11501    -0.3320
     30  O3B     -137.0740   25.9970   31.9520 O.3   1501  UD11501    -0.2175
     31  C5B     -133.5180   25.3980   32.9030 C.3   1501  UD11501     0.1813
     32  O5B     -132.5390   26.2650   32.5440 O.3   1501  UD11501    -0.3112
     33  PA      -131.3100   26.5850   33.7300 P.3   1501  UD11501     0.2189
     34  O1A     -131.0020   28.0140   33.4640 O.3   1501  UD11501    -0.4371
     35  O2A     -130.4030   25.4250   33.4620 O.2   1501  UD11501    -0.5170
     36  O3A     -132.0380   26.3090   35.1010 O.3   1501  UD11501    -0.2703
     37  PB      -131.8440   25.9740   36.6240 P.3   1501  UD11501     0.2208
     38  O1B     -130.4100   25.9320   37.0330 O.2   1501  UD11501    -0.5170
     39  O2B     -132.8350   25.0010   37.1750 O.3   1501  UD11501    -0.4371
@<TRIPOS>BOND
     1    23    19    2
     2    18    19    2
     3    18    17    2
     4    22    17    2
     5    19    20    1
     6    17    16   am
     7    20    21    2
     8    16    21    1
     9    16    24    1
    10    24    29    1
    11    24    25    1
    12    29    28    1
    13    26    25    1
    14    25    27    1
    15    28    27    1
    16    28    31    1
    17    30    27    1
    18    32    31    1
    19    32    33    1
    20    35    33    2
    21    34    33    1
    22    33    36    1
    23    36    37    1
    24    14     6    1
    25    37    38    2
    26    37    39    1
    27    37    10    1
    28    13     1    1
    29    13     5    1
    30     6     5    1
    31     1    10    1
    32     1     2    1
    33     5     4    1
    34    15     7    2
    35     2     9    1
    36     2     3    1
    37     7     9   am
    38     7     8    1
    39     4     3    1
    40     4    12    1
    41     3    11    1
