@<TRIPOS>MOLECULE
4gz6_12V_A_1.pdb
 39 41 0 0 0
SMALL
GASTEIGER

@<TRIPOS>ATOM
      1  N1      -135.0430   22.8240   29.7500 N.am  1501  12V1501    -0.1766
      2  C2      -135.8450   22.4570   28.6150 C.1   1501  12V1501     0.2845
      3  O2      -136.7750   23.1660   28.2670 O.2   1501  12V1501    -0.1918
      4  N3      -135.5320   21.2680   27.9190 N.2   1501  12V1501    -0.2452
      5  C4      -134.5110   20.5640   28.3670 C.1   1501  12V1501     0.2182
      6  O4      -134.2050   19.4160   27.7000 O.2   1501  12V1501    -0.2085
      7  C5      -133.6800   20.8780   29.4840 C.2   1501  12V1501     0.1242
      8  C6      -133.9920   22.0410   30.1560 C.2   1501  12V1501     0.0929
      9  PA      -131.1590   26.4640   34.0510 P.3   1501  12V1501     0.2189
     10  PB      -131.8090   25.8180   36.8070 P.3   1501  12V1501     0.2196
     11  C1'     -131.9880   28.5170   37.1950 C.3   1501  12V1501     0.1916
     12  O1'     -132.6230   27.3760   37.2640 O.3   1501  12V1501    -0.3033
     13  O1A     -131.0910   27.9400   34.1180 O.3   1501  12V1501    -0.4371
     14  C1B     -135.3530   24.0830   30.4990 C.3   1501  12V1501     0.2401
     15  O1B     -130.3180   25.9900   36.9290 O.2   1501  12V1501    -0.5170
     16  C2'     -131.3880   29.0530   38.5440 C.3   1501  12V1501     0.1659
     17  N2'     -130.3360   28.2090   39.0570 N.am  1501  12V1501    -0.2010
     18  O2'     -137.3690   23.5380   31.7180 O.3   1501  12V1501    -0.2157
     19  O2A     -130.0850   25.4820   33.6550 O.2   1501  12V1501    -0.5170
     20  C2B     -136.0170   23.8290   31.8590 C.3   1501  12V1501     0.2319
     21  O2B     -132.6590   24.8650   37.5530 O.3   1501  12V1501    -0.4371
     22  C3'     -132.4970   29.2670   39.6320 C.3   1501  12V1501     0.2061
     23  O3'     -131.8810   29.8310   40.7600 O.3   1501  12V1501    -0.2184
     24  O3A     -131.9900   25.8060   35.2450 O.3   1501  12V1501    -0.2703
     25  C3B     -135.8090   25.2190   32.4960 C.3   1501  12V1501     0.2158
     26  O3B     -136.7800   26.0250   31.9100 O.3   1501  12V1501    -0.2175
     27  C4'     -133.6080   30.2760   39.2580 C.3   1501  12V1501     0.1964
     28  O4'     -134.4620   30.3320   40.3700 O.3   1501  12V1501    -0.2193
     29  C4B     -134.4150   25.6190   31.9610 C.3   1501  12V1501     0.1799
     30  O4B     -134.2250   24.8470   30.7660 O.3   1501  12V1501    -0.3320
     31  C5'     -134.4160   29.7990   38.0630 C.3   1501  12V1501     0.1158
     32  S5'     -133.2930   29.7700   36.6570 S.3   1501  12V1501    -0.1053
     33  C5B     -133.2920   25.2700   32.9620 C.3   1501  12V1501     0.1813
     34  O5B     -132.3040   26.1850   32.7760 O.3   1501  12V1501    -0.3112
     35  C6'     -135.3570   30.8260   37.4850 C.3   1501  12V1501     0.1955
     36  O6'     -134.6470   31.8110   36.7850 O.3   1501  12V1501    -0.2194
     37  C7'     -129.0140   28.4900   38.8010 C.2   1501  12V1501     0.2420
     38  O7'     -128.6660   29.4690   38.1250 O.2   1501  12V1501    -0.2733
     39  C8'     -127.9950   27.5520   39.3800 C.3   1501  12V1501     0.0964
@<TRIPOS>BOND
     1     6     5    2
     2     4     5    2
     3     4     2    2
     4     3     2    2
     5     5     7    1
     6     2     1   am
     7     7     8    2
     8     1     8    1
     9     1    14    1
    10    14    30    1
    11    14    20    1
    12    30    29    1
    13    18    20    1
    14    20    25    1
    15    26    25    1
    16    29    25    1
    17    29    33    1
    18    34    33    1
    19    34     9    1
    20    19     9    2
    21     9    13    1
    22     9    24    1
    23    24    10    1
    24    32    11    1
    25    32    31    1
    26    36    35    1
    27    10    15    2
    28    10    12    1
    29    10    21    1
    30    11    12    1
    31    11    16    1
    32    35    31    1
    33    31    27    1
    34    38    37    2
    35    16    17    1
    36    16    22    1
    37    37    17   am
    38    37    39    1
    39    27    22    1
    40    27    28    1
    41    22    23    1
