@<TRIPOS>MOLECULE
4gzl_GNP_A_1.pdb
 32 34 0 0 0
SMALL
GASTEIGER

@<TRIPOS>ATOM
      1  PG        -7.7820   -5.9150   15.1320 P.3   201  GNP201      0.4884
      2  O1G       -6.8870   -6.9990   14.3810 O.2   201  GNP201     -0.2331
      3  O2G       -8.5010   -6.6470   16.2940 O.3   201  GNP201     -0.1240
      4  O3G       -7.0760   -4.6770   15.3990 O.3   201  GNP201     -0.1240
      5  N3B       -9.0180   -5.3860   14.0380 N.3   201  GNP201     -0.0163
      6  PB       -10.2610   -6.5360   13.6550 P.3   201  GNP201      0.4669
      7  O1B       -9.7980   -7.3190   12.4420 O.2   201  GNP201     -0.2351
      8  O2B      -10.7600   -7.5790   14.7480 O.3   201  GNP201     -0.1253
      9  O3A      -11.4610   -5.6310   13.1900 O.3   201  GNP201     -0.2360
     10  PA       -12.8850   -5.4250   13.8990 P.3   201  GNP201      0.2220
     11  O1A      -13.6840   -6.7000   13.9050 O.2   201  GNP201     -0.5170
     12  O2A      -12.6640   -4.8960   15.3050 O.3   201  GNP201     -0.4370
     13  O5'      -13.5380   -4.3820   12.9220 O.3   201  GNP201     -0.3111
     14  C5'      -12.8190   -3.2950   12.3110 C.3   201  GNP201      0.1813
     15  C4'      -13.8650   -2.2860   11.8500 C.3   201  GNP201      0.1799
     16  O4'      -14.4980   -2.7880   10.6430 O.3   201  GNP201     -0.3326
     17  C3'      -14.9640   -2.0330   12.8950 C.3   201  GNP201      0.2158
     18  O3'      -15.3700   -0.6770   12.8400 O.3   201  GNP201     -0.2175
     19  C2'      -16.1440   -2.7900   12.3270 C.3   201  GNP201      0.2310
     20  O2'      -17.3940   -2.2920   12.8190 O.3   201  GNP201     -0.2158
     21  C1'      -15.9330   -2.7260   10.8120 C.3   201  GNP201      0.2293
     22  N9       -16.5370   -3.9630   10.3220 N.pl3 201  GNP201     -0.2354
     23  C8       -16.2970   -5.1900   10.8010 C.3   201  GNP201      0.2246
     24  N7       -17.0050   -6.1160   10.1190 N.2   201  GNP201     -0.2322
     25  C5       -17.7340   -5.4490    9.2250 C.2   201  GNP201      0.2182
     26  C6       -18.7030   -5.8060    8.1930 C.1   201  GNP201      0.2372
     27  O6       -19.0070   -7.0050    8.1160 O.2   201  GNP201     -0.2069
     28  N1       -19.2360   -4.8330    7.4260 N.2   201  GNP201     -0.2485
     29  C2       -18.8950   -3.5250    7.5960 C.1   201  GNP201      0.2531
     30  N2       -19.4250   -2.5060    6.8320 N.pl3 201  GNP201     -0.0226
     31  N3       -18.0140   -3.1560    8.5400 N.2   201  GNP201     -0.3074
     32  C4       -17.4190   -4.0530    9.3530 C.2   201  GNP201      0.2300
@<TRIPOS>BOND
     1    30    29    1
     2    28    29    2
     3    28    26    2
     4    29    31    2
     5    27    26    2
     6    26    25    1
     7    31    32    2
     8    25    32    1
     9    25    24    2
    10    32    22    1
    11    24    23    1
    12    22    23    1
    13    22    21    1
    14    16    21    1
    15    16    15    1
    16    21    19    1
    17    15    14    1
    18    15    17    1
    19    14    13    1
    20    19    20    1
    21    19    17    1
    22     7     6    2
    23    18    17    1
    24    13    10    1
    25     9     6    1
    26     9    10    1
    27     6     5    1
    28     6     8    1
    29    10    11    2
    30    10    12    1
    31     5     1    1
    32     2     1    2
    33     1     4    1
    34     1     3    1
