@<TRIPOS>MOLECULE
4gzm_GSP_A_1.pdb
 32 34 0 0 0
SMALL
GASTEIGER

@<TRIPOS>ATOM
      1  PG        12.5400    9.3200   21.6550 P.3   1000  GSP1000     0.4340
      2  O3B       12.8070    9.9810   23.0990 O.3   1000  GSP1000    -0.2405
      3  S1G       14.2270    8.6090   20.9930 S.3   1000  GSP1000     0.0416
      4  O2G       12.0170   10.4500   20.6360 O.2   1000  GSP1000    -0.2423
      5  O3G       11.4420    8.1460   21.7720 O.3   1000  GSP1000    -0.1305
      6  PB        11.6720   10.8590   23.8240 P.3   1000  GSP1000     0.2262
      7  O1B       11.2090   11.9430   22.8780 O.2   1000  GSP1000    -0.5168
      8  O2B       10.6710    9.9020   24.4200 O.3   1000  GSP1000    -0.4369
      9  PA        12.8440   10.7690   26.3700 P.3   1000  GSP1000     0.2189
     10  O1A       13.5950    9.5070   26.0170 O.2   1000  GSP1000    -0.5170
     11  O2A       11.5640   10.6770   27.1660 O.3   1000  GSP1000    -0.4371
     12  O3A       12.5100   11.5570   25.0070 O.3   1000  GSP1000    -0.2701
     13  O5'       13.8610   11.7800   27.1170 O.3   1000  GSP1000    -0.3112
     14  C5'       15.0220   12.3040   26.4560 C.3   1000  GSP1000     0.1813
     15  C4'       16.0510   12.9050   27.4220 C.3   1000  GSP1000     0.1799
     16  O4'       15.6460   14.2140   27.8520 O.3   1000  GSP1000    -0.3326
     17  C3'       16.2820   12.0580   28.6700 C.3   1000  GSP1000     0.2158
     18  O3'       17.6840   11.8290   28.8540 O.3   1000  GSP1000    -0.2175
     19  C2'       15.7180   12.8770   29.8150 C.3   1000  GSP1000     0.2310
     20  O2'       16.5320   12.8280   30.9910 O.3   1000  GSP1000    -0.2158
     21  C1'       15.5880   14.2950   29.2800 C.3   1000  GSP1000     0.2293
     22  N9        14.2730   14.8060   29.7330 N.pl3 1000  GSP1000    -0.2354
     23  C8        13.0600   14.3560   29.3450 C.3   1000  GSP1000     0.2246
     24  N7        12.0570   15.0310   29.9590 N.2   1000  GSP1000    -0.2322
     25  C5        12.6320   15.9370   30.7640 C.2   1000  GSP1000     0.2182
     26  C6        12.1530   16.9780   31.6980 C.1   1000  GSP1000     0.2372
     27  O6        10.9320   17.1620   31.8710 O.2   1000  GSP1000    -0.2069
     28  N1        13.0730   17.7110   32.3450 N.2   1000  GSP1000    -0.2485
     29  C2        14.4010   17.5300   32.1690 C.1   1000  GSP1000     0.2531
     30  N2        15.2580   18.3150   32.8630 N.pl3 1000  GSP1000    -0.0226
     31  N3        14.9150   16.5930   31.3270 N.2   1000  GSP1000    -0.3074
     32  C4        14.0920   15.7850   30.6160 C.2   1000  GSP1000     0.2300
@<TRIPOS>BOND
     1     4     1    2
     2     3     1    1
     3     1     5    1
     4     1     2    1
     5     7     6    2
     6     2     6    1
     7     6     8    1
     8     6    12    1
     9    12     9    1
    10    10     9    2
    11     9    13    1
    12     9    11    1
    13    14    13    1
    14    14    15    1
    15    15    16    1
    16    15    17    1
    17    16    21    1
    18    17    18    1
    19    17    19    1
    20    21    22    1
    21    21    19    1
    22    23    22    1
    23    23    24    1
    24    22    32    1
    25    19    20    1
    26    24    25    2
    27    32    25    1
    28    32    31    2
    29    25    26    1
    30    31    29    2
    31    26    27    2
    32    26    28    2
    33    29    28    2
    34    29    30    1
