@<TRIPOS>MOLECULE
4gzo_EPE_A_1.pdb
 15 15 0 0 0
SMALL
GASTEIGER

@<TRIPOS>ATOM
      1  N1         9.2360   25.5790   14.0150 N.3   501  EPE501     -0.2689
      2  C2         8.9800   25.4760   15.4780 C.3   501  EPE501      0.0897
      3  C3         9.4260   26.7060   16.2790 C.3   501  EPE501      0.0897
      4  N4        10.3180   27.5810   15.5330 N.3   501  EPE501     -0.2681
      5  C5        10.0340   27.9080   14.1400 C.3   501  EPE501      0.0897
      6  C6         9.0250   26.9550   13.5040 C.3   501  EPE501      0.0897
      7  C7        11.3420   28.3350   16.2330 C.3   501  EPE501      0.1081
      8  C8        12.7060   27.6770   16.1050 C.3   501  EPE501      0.1993
      9  O8        12.5770   26.3350   16.5240 O.3   501  EPE501     -0.2189
     10  C9         8.4170   24.5630   13.3060 C.3   501  EPE501      0.0939
     11  C10        7.5280   25.1570   12.2150 C.3   501  EPE501      0.1225
     12  S          5.8950   24.4030   12.0110 S.3   501  EPE501     -0.1946
     13  O1S        4.8740   25.3540   12.4600 O.3   501  EPE501     -0.3074
     14  O2S        5.7320   24.1690   10.5750 O.3   501  EPE501     -0.3074
     15  O3S        5.7560   23.1460   12.7560 O.3   501  EPE501     -0.3074
@<TRIPOS>BOND
     1    14    12    1
     2    12    11    1
     3    12    13    1
     4    12    15    1
     5    11    10    1
     6    10     1    1
     7     6     1    1
     8     6     5    1
     9     1     2    1
    10     5     4    1
    11     2     3    1
    12     4     7    1
    13     4     3    1
    14     8     7    1
    15     8     9    1
