@<TRIPOS>MOLECULE
4gzp_G39_A_1.pdb
 20 20 0 0 0
SMALL
GASTEIGER

@<TRIPOS>ATOM
      1  C1        24.2680   -5.8850   12.7270 C.2   512  G39512      0.3644
      2  O1A       23.0010   -5.6930   12.7970 O.co2 512  G39512     -0.2457
      3  O1B       25.1050   -5.0540   12.3450 O.co2 512  G39512     -0.2457
      4  C2        24.8930   -7.1060   13.1720 C.3   512  G39512      0.1074
      5  C3        26.4160   -7.2310   13.0840 C.3   512  G39512      0.0322
      6  C4        26.8920   -8.0330   14.3250 C.3   512  G39512      0.1146
      7  C5        26.1200   -9.3260   14.3940 C.3   512  G39512      0.1398
      8  N5        26.7090  -10.2540   15.3540 N.am  512  G39512     -0.2032
      9  C10       26.9190  -11.5210   14.9690 C.2   512  G39512      0.2419
     10  O10       26.5570  -11.9550   13.8750 O.2   512  G39512     -0.2733
     11  C11       27.5900  -12.4100   15.9290 C.3   512  G39512      0.0964
     12  C6        24.6830   -9.0240   14.7390 C.3   512  G39512      0.1369
     13  C7        24.1240   -8.0540   13.7260 C.3   512  G39512      0.0427
     14  O7        23.9780  -10.2690   14.5770 O.3   512  G39512     -0.3569
     15  C8        22.9180  -10.5040   15.5450 C.3   512  G39512      0.1152
     16  C9        21.8350   -9.4500   15.3290 C.3   512  G39512      0.0296
     17  C81       22.2580  -11.8710   15.3000 C.3   512  G39512      0.0296
     18  C82       23.3020  -12.9710   15.1950 C.3   512  G39512      0.0026
     19  C91       21.1140   -9.0960   16.6150 C.3   512  G39512      0.0026
     20  N4        28.2520   -8.4820   14.1850 N.3   512  G39512     -0.1310
@<TRIPOS>BOND
     1     3     1   ar
     2     1     2   ar
     3     1     4    1
     4     5     4    1
     5     5     6    1
     6     4    13    1
     7    13    12    1
     8    10     9    2
     9    20     6    1
    10     6     7    1
    11     7    12    1
    12     7     8    1
    13    14    12    1
    14    14    15    1
    15     9     8   am
    16     9    11    1
    17    18    17    1
    18    17    15    1
    19    16    15    1
    20    16    19    1
