@<TRIPOS>MOLECULE
4gzq_SIA_A_1.pdb
 21 21 0 0 0
SMALL
GASTEIGER

@<TRIPOS>ATOM
      1  C1         5.9840   24.6460   13.2360 C.2   501  SIA501      0.4179
      2  C2         7.4310   25.0290   13.4820 C.3   501  SIA501      0.3155
      3  C3         7.5750   26.5470   13.6700 C.3   501  SIA501      0.1056
      4  C4         8.4760   26.9760   14.8270 C.3   501  SIA501      0.1798
      5  C5         9.5930   25.9790   15.0950 C.3   501  SIA501      0.1554
      6  C6         9.0480   24.5680   15.3450 C.3   501  SIA501      0.1734
      7  C7        10.1110   23.5030   15.0610 C.3   501  SIA501      0.2135
      8  C8         9.7210   22.1200   15.5850 C.3   501  SIA501      0.2173
      9  C9        10.9300   21.2000   15.4200 C.3   501  SIA501      0.2175
     10  C10       11.6920   26.7800   16.0810 C.2   501  SIA501      0.2420
     11  C11       12.3730   27.2050   17.3440 C.3   501  SIA501      0.0964
     12  N5        10.4150   26.4130   16.2200 N.am  501  SIA501     -0.2020
     13  O1A        5.1570   25.5280   12.9000 O.co2 501  SIA501     -0.2401
     14  O1B        5.6610   23.4420   13.3990 O.co2 501  SIA501     -0.2401
     15  O2         8.1880   24.6370   12.3340 O.3   501  SIA501     -0.1830
     16  O4         9.0780   28.2220   14.4820 O.3   501  SIA501     -0.2210
     17  O6         7.8370   24.2690   14.6300 O.3   501  SIA501     -0.3220
     18  O7        10.3580   23.4230   13.6500 O.3   501  SIA501     -0.2176
     19  O8         9.2680   22.2030   16.9530 O.3   501  SIA501     -0.2175
     20  O9        11.1560   20.4150   16.5980 O.3   501  SIA501     -0.2175
     21  O10       12.2850   26.7870   15.0100 O.2   501  SIA501     -0.2733
@<TRIPOS>BOND
     1    15     2    1
     2    13     1   ar
     3     1    14   ar
     4     1     2    1
     5     2     3    1
     6     2    17    1
     7    18     7    1
     8     3     4    1
     9    16     4    1
    10    17     6    1
    11     4     5    1
    12    21    10    2
    13     7     6    1
    14     7     8    1
    15     5     6    1
    16     5    12    1
    17     9     8    1
    18     9    20    1
    19     8    19    1
    20    10    12   am
    21    10    11    1
