@<TRIPOS>MOLECULE
4gzs_EPE_A_1.pdb
 15 15 0 0 0
SMALL
GASTEIGER

@<TRIPOS>ATOM
      1  N1        12.6430   25.5950   14.5590 N.3   502  EPE502     -0.2689
      2  C2        13.8790   25.7350   15.3890 C.3   502  EPE502      0.0897
      3  C3        14.8580   26.7860   14.7870 C.3   502  EPE502      0.0897
      4  N4        14.1490   27.7350   13.9540 N.3   502  EPE502     -0.2681
      5  C5        12.7830   28.0830   14.2740 C.3   502  EPE502      0.0897
      6  C6        11.8830   26.8500   14.3350 C.3   502  EPE502      0.0897
      7  C7        14.6780   28.1130   12.6630 C.3   502  EPE502      0.1081
      8  C8        15.7370   27.1350   12.1810 C.3   502  EPE502      0.1993
      9  O8        15.1410   26.2540   11.2590 O.3   502  EPE502     -0.2189
     10  C9        11.7650   24.5490   15.1430 C.3   502  EPE502      0.0939
     11  C10       10.8040   25.1650   16.1750 C.3   502  EPE502      0.1225
     12  S         10.5210   24.2360   17.7040 S.3   502  EPE502     -0.1946
     13  O1S        9.0910   24.2710   17.9390 O.3   502  EPE502     -0.3074
     14  O2S       11.0540   22.8790   17.7220 O.3   502  EPE502     -0.3074
     15  O3S       11.1650   24.9570   18.7970 O.3   502  EPE502     -0.3074
@<TRIPOS>BOND
     1     9     8    1
     2     8     7    1
     3     7     4    1
     4     4     5    1
     5     4     3    1
     6     5     6    1
     7     6     1    1
     8     1    10    1
     9     1     2    1
    10     3     2    1
    11    10    11    1
    12    11    12    1
    13    12    14    1
    14    12    13    1
    15    12    15    1
