@<TRIPOS>MOLECULE
4gzs_MAN_A_1.pdb
 11 11 0 0 0
SMALL
GASTEIGER

@<TRIPOS>ATOM
      1  C1        21.3320   35.0290  -16.8430 C.3   506  MAN506      0.1777
      2  C2        20.8100   36.2890  -17.5910 C.3   506  MAN506      0.2141
      3  C3        20.0290   37.2320  -16.6670 C.3   506  MAN506      0.2173
      4  C4        18.9910   36.4480  -15.8770 C.3   506  MAN506      0.2142
      5  C5        19.7380   35.4020  -15.0450 C.3   506  MAN506      0.1810
      6  C6        18.8090   34.6850  -14.0660 C.3   506  MAN506      0.2141
      7  O2        20.0100   35.9660  -18.7350 O.3   506  MAN506     -0.2176
      8  O3        19.3940   38.2600  -17.3950 O.3   506  MAN506     -0.2175
      9  O4        18.2090   37.3220  -15.0900 O.3   506  MAN506     -0.2176
     10  O5        20.3960   34.4890  -15.9100 O.3   506  MAN506     -0.3481
     11  O6        19.0120   33.2710  -14.1250 O.3   506  MAN506     -0.2176
@<TRIPOS>BOND
     1     7     2    1
     2     2     1    1
     3     2     3    1
     4     8     3    1
     5     1    10    1
     6     3     4    1
     7    10     5    1
     8     4     9    1
     9     4     5    1
    10     5     6    1
    11    11     6    1
