@<TRIPOS>MOLECULE
4gzs_FUC_A_1.pdb
 10 10 0 0 0
SMALL
GASTEIGER

@<TRIPOS>ATOM
      1  C1        -1.1850   34.0560    7.1570 C.3   509  FUC509      0.1776
      2  C2        -1.0350   33.9920    5.6460 C.3   509  FUC509      0.2141
      3  C3        -1.1660   35.4020    5.0670 C.3   509  FUC509      0.2172
      4  C4        -0.1310   36.3400    5.6930 C.3   509  FUC509      0.2116
      5  C5        -0.2770   36.3160    7.2160 C.3   509  FUC509      0.1483
      6  C6         0.8120   37.1400    7.9010 C.3   509  FUC509      0.0349
      7  O2        -2.0660   33.1750    5.1530 O.3   509  FUC509     -0.2176
      8  O3        -1.0350   35.3690    3.6650 O.3   509  FUC509     -0.2175
      9  O4         1.1730   35.9430    5.3170 O.3   509  FUC509     -0.2177
     10  O5        -0.2470   34.9780    7.7100 O.3   509  FUC509     -0.3508
@<TRIPOS>BOND
     1     8     3    1
     2     3     2    1
     3     3     4    1
     4     7     2    1
     5     9     4    1
     6     2     1    1
     7     4     5    1
     8     1    10    1
     9     5    10    1
    10     5     6    1
