@<TRIPOS>MOLECULE
4gzs_BMA_A_1.pdb
 11 11 0 0 0
SMALL
GASTEIGER

@<TRIPOS>ATOM
      1  C1        24.0820   33.1910  -13.4790 C.3   505  BMA505      0.1777
      2  C2        23.3920   34.3780  -14.1450 C.3   505  BMA505      0.2141
      3  C3        23.2110   34.1050  -15.6390 C.3   505  BMA505      0.2173
      4  C4        24.5600   33.6760  -16.2580 C.3   505  BMA505      0.2142
      5  C5        25.2060   32.5280  -15.4440 C.3   505  BMA505      0.1810
      6  C6        26.5600   31.9700  -15.9390 C.3   505  BMA505      0.2141
      7  O2        24.2160   35.5110  -13.9600 O.3   505  BMA505     -0.2176
      8  O3        22.6500   35.2520  -16.2730 O.3   505  BMA505     -0.2175
      9  O4        24.3470   33.3130  -17.5970 O.3   505  BMA505     -0.2176
     10  O5        25.3420   32.9660  -14.0950 O.3   505  BMA505     -0.3481
     11  O6        26.3960   31.0360  -17.0050 O.3   505  BMA505     -0.2176
@<TRIPOS>BOND
     1     9     4    1
     2    11     6    1
     3     8     3    1
     4     4     3    1
     5     4     5    1
     6     6     5    1
     7     3     2    1
     8     5    10    1
     9     2     7    1
    10     2     1    1
    11    10     1    1
