@<TRIPOS>MOLECULE
4gzt_BMA_A_1.pdb
 11 11 0 0 0
SMALL
GASTEIGER

@<TRIPOS>ATOM
      1  C1        24.5030   33.1700  -13.5820 C.3   504  BMA504      0.1777
      2  C2        23.7500   34.3260  -14.2710 C.3   504  BMA504      0.2141
      3  C3        23.6040   34.0400  -15.7930 C.3   504  BMA504      0.2173
      4  C4        25.0350   33.8090  -16.3160 C.3   504  BMA504      0.2142
      5  C5        25.6270   32.5830  -15.6030 C.3   504  BMA504      0.1810
      6  C6        26.9760   32.1290  -16.1560 C.3   504  BMA504      0.2141
      7  O2        24.6090   35.4740  -14.0350 O.3   504  BMA504     -0.2176
      8  O3        23.1540   35.1490  -16.5720 O.3   504  BMA504     -0.2175
      9  O4        25.0620   33.6850  -17.7320 O.3   504  BMA504     -0.2176
     10  O5        25.7560   33.0020  -14.2490 O.3   504  BMA504     -0.3481
     11  O6        26.8540   30.9010  -16.9330 O.3   504  BMA504     -0.2176
@<TRIPOS>BOND
     1     9     4    1
     2    11     6    1
     3     8     3    1
     4     4     3    1
     5     4     5    1
     6     6     5    1
     7     3     2    1
     8     5    10    1
     9     2     7    1
    10     2     1    1
    11    10     1    1
