@<TRIPOS>MOLECULE
4gzt_FUC_D_1.pdb
 10 10 0 0 0
SMALL
GASTEIGER

@<TRIPOS>ATOM
      1  C1        -0.7000   70.4880    0.4680 C.3   510  FUC510      0.1776
      2  C2        -0.8530   71.6310    1.4520 C.3   510  FUC510      0.2141
      3  C3        -0.3190   71.1530    2.8110 C.3   510  FUC510      0.2172
      4  C4         1.0700   70.4880    2.7410 C.3   510  FUC510      0.2116
      5  C5         1.4670   69.9690    1.3280 C.3   510  FUC510      0.1483
      6  C6         2.9710   70.1350    1.0190 C.3   510  FUC510      0.0349
      7  O2        -2.2230   71.9590    1.5540 O.3   510  FUC510     -0.2176
      8  O3        -0.3450   72.2130    3.7450 O.3   510  FUC510     -0.2175
      9  O4         2.0810   71.3260    3.2970 O.3   510  FUC510     -0.2177
     10  O5         0.6830   70.4670    0.2350 O.3   510  FUC510     -0.3508
@<TRIPOS>BOND
     1    10     1    1
     2    10     5    1
     3     1     2    1
     4     6     5    1
     5     5     4    1
     6     2     7    1
     7     2     3    1
     8     4     3    1
     9     4     9    1
    10     3     8    1
