@<TRIPOS>MOLECULE
4gzt_G39_A_1.pdb
 20 20 0 0 0
SMALL
GASTEIGER

@<TRIPOS>ATOM
      1  C1        11.4330   24.2910   17.4950 C.2   501  G39501      0.3644
      2  O1A       11.5100   23.0350   17.8090 O.co2 501  G39501     -0.2457
      3  O1B       10.8330   25.1390   18.2100 O.co2 501  G39501     -0.2457
      4  C2        12.0390   24.8120   16.2530 C.3   501  G39501      0.1074
      5  C3        12.0830   26.3240   15.9360 C.3   501  G39501      0.0322
      6  C4        13.4730   26.6890   15.2890 C.3   501  G39501      0.1146
      7  C5        13.6260   25.7600   14.0960 C.3   501  G39501      0.1398
      8  N5        14.6490   26.2920   13.2110 N.am  501  G39501     -0.2032
      9  C10       14.3880   26.4010   11.9310 C.2   501  G39501      0.2419
     10  O10       13.3310   25.9970   11.3790 O.2   501  G39501     -0.2733
     11  C11       15.5210   26.8960   11.1770 C.3   501  G39501      0.0964
     12  C6        13.8030   24.3270   14.5730 C.3   501  G39501      0.1369
     13  C7        12.5950   23.9300   15.4090 C.3   501  G39501      0.0427
     14  O7        13.7270   23.4450   13.4740 O.3   501  G39501     -0.3569
     15  C8        14.9010   22.6190   13.3790 C.3   501  G39501      0.1152
     16  C9        14.7000   21.5760   14.4940 C.3   501  G39501      0.0296
     17  C81       14.9260   21.9230   12.0220 C.3   501  G39501      0.0296
     18  C82       14.9050   22.9180   10.9030 C.3   501  G39501      0.0026
     19  C91       15.7880   20.5630   14.5780 C.3   501  G39501      0.0026
     20  N4        13.5450   28.0410   14.7570 N.3   501  G39501     -0.1310
@<TRIPOS>BOND
     1    18    17    1
     2    11     9    1
     3    10     9    2
     4     9     8   am
     5    17    15    1
     6     8     7    1
     7    15    14    1
     8    15    16    1
     9    14    12    1
    10     7    12    1
    11     7     6    1
    12    16    19    1
    13    12    13    1
    14    20     6    1
    15     6     5    1
    16    13     4    1
    17     5     4    1
    18     4     1    1
    19     1     2   ar
    20     1     3   ar
