@<TRIPOS>MOLECULE
4gzw_MAN_C_1.pdb
 11 11 0 0 0
SMALL
GASTEIGER

@<TRIPOS>ATOM
      1  C1        22.0390   35.1620  -17.0940 C.3   806  MAN806      0.1777
      2  C2        21.6160   36.4380  -17.8700 C.3   806  MAN806      0.2141
      3  C3        20.8390   37.3990  -16.9640 C.3   806  MAN806      0.2173
      4  C4        19.6770   36.6780  -16.2970 C.3   806  MAN806      0.2142
      5  C5        20.2400   35.5200  -15.4700 C.3   806  MAN806      0.1810
      6  C6        19.1300   34.7200  -14.7960 C.3   806  MAN806      0.2141
      7  O2        20.8120   36.1280  -19.0100 O.3   806  MAN806     -0.2176
      8  O3        20.3350   38.4920  -17.6940 O.3   806  MAN806     -0.2175
      9  O4        18.9410   37.5940  -15.5110 O.3   806  MAN806     -0.2176
     10  O5        20.9870   34.6360  -16.2920 O.3   806  MAN806     -0.3481
     11  O6        19.7150   33.8080  -13.9010 O.3   806  MAN806     -0.2176
@<TRIPOS>BOND
     1     7     2    1
     2     2     1    1
     3     2     3    1
     4     8     3    1
     5     1    10    1
     6     3     4    1
     7     4     9    1
     8     4     5    1
     9    10     5    1
    10     5     6    1
    11     6    11    1
