@<TRIPOS>MOLECULE
4gzw_BMA_A_1.pdb
 11 11 0 0 0
SMALL
GASTEIGER

@<TRIPOS>ATOM
      1  C1        14.1040   76.6310   63.1480 C.3   506  BMA506      0.1777
      2  C2        13.1490   75.4660   63.4660 C.3   506  BMA506      0.2141
      3  C3        12.4880   75.6000   64.8490 C.3   506  BMA506      0.2173
      4  C4        13.4930   76.0220   65.9190 C.3   506  BMA506      0.2142
      5  C5        14.3600   77.1790   65.4030 C.3   506  BMA506      0.1810
      6  C6        15.4000   77.6430   66.4120 C.3   506  BMA506      0.2141
      7  O2        13.8720   74.2600   63.4300 O.3   506  BMA506     -0.2176
      8  O3        11.8160   74.4070   65.2440 O.3   506  BMA506     -0.2175
      9  O4        12.7650   76.4470   67.0450 O.3   506  BMA506     -0.2176
     10  O5        15.0190   76.8120   64.2060 O.3   506  BMA506     -0.3481
     11  O6        16.1360   78.7070   65.8480 O.3   506  BMA506     -0.2176
@<TRIPOS>BOND
     1     1     2    1
     2     1    10    1
     3     7     2    1
     4     2     3    1
     5    10     5    1
     6     3     8    1
     7     3     4    1
     8     5     4    1
     9     5     6    1
    10    11     6    1
    11     4     9    1
