@<TRIPOS>MOLECULE
4gzw_SIA_A_1.pdb
 20 20 0 0 0
SMALL
GASTEIGER

@<TRIPOS>ATOM
      1  C1        10.4510   85.4990   29.4570 C.2   501  SIA501      0.3914
      2  C2        10.3250   84.8930   30.8490 C.3   501  SIA501      0.2203
      3  C3        10.9910   83.5010   30.8760 C.3   501  SIA501      0.0760
      4  C4        11.9460   83.1950   32.0250 C.3   501  SIA501      0.1773
      5  C5        11.8360   84.1760   33.1790 C.3   501  SIA501      0.1552
      6  C6        11.9110   85.5980   32.6470 C.3   501  SIA501      0.1710
      7  C7        11.9320   86.6310   33.7800 C.3   501  SIA501      0.2134
      8  C8        12.3480   88.0240   33.2960 C.3   501  SIA501      0.2173
      9  C9        12.1140   89.1130   34.3460 C.3   501  SIA501      0.2175
     10  C10       12.5490   83.4500   35.3620 C.2   501  SIA501      0.2420
     11  C11       13.6920   83.1380   36.2800 C.3   501  SIA501      0.0964
     12  N5        12.8760   83.8650   34.1410 N.am  501  SIA501     -0.2020
     13  O1A       10.3090   84.7640   28.4540 O.co2 501  SIA501     -0.2430
     14  O1B       10.6920   86.7230   29.3490 O.co2 501  SIA501     -0.2430
     15  O4        11.6580   81.8890   32.5240 O.3   501  SIA501     -0.2211
     16  O6        10.7550   85.8380   31.8440 O.3   501  SIA501     -0.3429
     17  O7        10.6410   86.6950   34.4090 O.3   501  SIA501     -0.2176
     18  O8        13.7340   88.0090   32.9360 O.3   501  SIA501     -0.2175
     19  O9        12.7820   88.7820   35.5710 O.3   501  SIA501     -0.2175
     20  O10       11.3910   83.3280   35.7210 O.2   501  SIA501     -0.2733
@<TRIPOS>BOND
     1    13     1   ar
     2    14     1   ar
     3     1     2    1
     4     2     3    1
     5     2    16    1
     6     3     4    1
     7    16     6    1
     8     4    15    1
     9     4     5    1
    10     6     5    1
    11     6     7    1
    12    18     8    1
    13     5    12    1
    14     8     7    1
    15     8     9    1
    16     7    17    1
    17    12    10   am
    18     9    19    1
    19    10    20    2
    20    10    11    1
