@<TRIPOS>MOLECULE
4gzx_FUC_C_1.pdb
 10 10 0 0 0
SMALL
GASTEIGER

@<TRIPOS>ATOM
      1  C1        -1.6750   34.1580    7.0170 C.3   809  FUC809      0.1776
      2  C2        -2.0570   34.3190    5.5430 C.3   809  FUC809      0.2141
      3  C3        -1.8100   35.7520    5.0640 C.3   809  FUC809      0.2172
      4  C4        -0.3980   36.2120    5.4220 C.3   809  FUC809      0.2116
      5  C5        -0.2370   36.0640    6.9280 C.3   809  FUC809      0.1483
      6  C6         1.0980   36.6210    7.4040 C.3   809  FUC809      0.0349
      7  O2        -3.4250   34.0230    5.3810 O.3   809  FUC809     -0.2176
      8  O3        -2.0460   35.8650    3.6770 O.3   809  FUC809     -0.2175
      9  O4         0.5580   35.4130    4.7560 O.3   809  FUC809     -0.2177
     10  O5        -0.3810   34.6890    7.2610 O.3   809  FUC809     -0.3508
@<TRIPOS>BOND
     1     8     3    1
     2     9     4    1
     3     3     4    1
     4     3     2    1
     5     7     2    1
     6     4     5    1
     7     2     1    1
     8     5    10    1
     9     5     6    1
    10     1    10    1
