@<TRIPOS>MOLECULE
4gzx_BMA_A_1.pdb
 11 11 0 0 0
SMALL
GASTEIGER

@<TRIPOS>ATOM
      1  C1        13.7960   76.3630   63.2720 C.3   805  BMA805      0.1777
      2  C2        13.0040   75.1130   63.6880 C.3   805  BMA805      0.2141
      3  C3        12.2410   75.3890   64.9880 C.3   805  BMA805      0.2173
      4  C4        13.2170   75.8950   66.0540 C.3   805  BMA805      0.2142
      5  C5        14.1030   77.0310   65.4920 C.3   805  BMA805      0.1810
      6  C6        15.1170   77.5890   66.4890 C.3   805  BMA805      0.2141
      7  O2        13.9120   74.0370   63.8890 O.3   805  BMA805     -0.2176
      8  O3        11.5390   74.2320   65.4230 O.3   805  BMA805     -0.2175
      9  O4        12.4670   76.3380   67.1600 O.3   805  BMA805     -0.2176
     10  O5        14.7480   76.6620   64.2790 O.3   805  BMA805     -0.3481
     11  O6        14.4340   78.6880   67.0650 O.3   805  BMA805     -0.2176
@<TRIPOS>BOND
     1     1     2    1
     2     1    10    1
     3     2     7    1
     4     2     3    1
     5    10     5    1
     6     3     8    1
     7     3     4    1
     8     5     4    1
     9     5     6    1
    10     4     9    1
    11     6    11    1
