@<TRIPOS>MOLECULE
4gzx_MAN_A_1.pdb
 11 11 0 0 0
SMALL
GASTEIGER

@<TRIPOS>ATOM
      1  C1        10.1990   74.5390   65.8950 C.3   806  MAN806      0.1777
      2  C2         9.4820   73.3020   66.4770 C.3   806  MAN806      0.2141
      3  C3         9.0290   72.4020   65.3100 C.3   806  MAN806      0.2173
      4  C4         8.1210   73.1990   64.3580 C.3   806  MAN806      0.2142
      5  C5         9.0080   74.3230   63.8170 C.3   806  MAN806      0.1810
      6  C6         8.4020   75.1740   62.7070 C.3   806  MAN806      0.2141
      7  O2         8.3730   73.7000   67.2880 O.3   806  MAN806     -0.2176
      8  O3         8.4310   71.2060   65.7550 O.3   806  MAN806     -0.2175
      9  O4         7.5500   72.3980   63.3360 O.3   806  MAN806     -0.2176
     10  O5         9.3850   75.1610   64.9090 O.3   806  MAN806     -0.3481
     11  O6         9.3960   76.0760   62.2610 O.3   806  MAN806     -0.2176
@<TRIPOS>BOND
     1    11     6    1
     2     6     5    1
     3     9     4    1
     4     5     4    1
     5     5    10    1
     6     4     3    1
     7    10     1    1
     8     3     8    1
     9     3     2    1
    10     1     2    1
    11     2     7    1
