@<TRIPOS>MOLECULE
4gzx_SIA_A_1.pdb
 20 20 0 0 0
SMALL
GASTEIGER

@<TRIPOS>ATOM
      1  C1        10.0520   85.3280   29.7040 C.2   801  SIA801      0.3914
      2  C2         9.8930   84.7280   31.0980 C.3   801  SIA801      0.2203
      3  C3        10.5620   83.3360   31.0910 C.3   801  SIA801      0.0760
      4  C4        11.4180   82.9230   32.2880 C.3   801  SIA801      0.1773
      5  C5        11.2880   83.8750   33.4560 C.3   801  SIA801      0.1552
      6  C6        11.4560   85.3060   32.9600 C.3   801  SIA801      0.1710
      7  C7        11.5320   86.3500   34.1070 C.3   801  SIA801      0.2134
      8  C8        12.2070   87.6300   33.5980 C.3   801  SIA801      0.2173
      9  C9        11.8740   88.8970   34.3860 C.3   801  SIA801      0.2175
     10  C10       11.9980   82.9990   35.6410 C.2   801  SIA801      0.2420
     11  C11       13.2050   82.7170   36.4980 C.3   801  SIA801      0.0964
     12  N5        12.2930   83.5280   34.4490 N.am  801  SIA801     -0.2020
     13  O1A        9.9020   84.5700   28.7170 O.co2 801  SIA801     -0.2430
     14  O1B       10.3190   86.5490   29.5740 O.co2 801  SIA801     -0.2430
     15  O4        11.0170   81.6390   32.7660 O.3   801  SIA801     -0.2211
     16  O6        10.3840   85.6670   32.0850 O.3   801  SIA801     -0.3429
     17  O7        10.2000   86.5560   34.6140 O.3   801  SIA801     -0.2176
     18  O8        13.6200   87.4280   33.6470 O.3   801  SIA801     -0.2175
     19  O9        12.3420   88.7980   35.7310 O.3   801  SIA801     -0.2175
     20  O10       10.8530   82.7530   36.0170 O.2   801  SIA801     -0.2733
@<TRIPOS>BOND
     1    13     1   ar
     2    14     1   ar
     3     1     2    1
     4     3     2    1
     5     3     4    1
     6     2    16    1
     7    16     6    1
     8     4    15    1
     9     4     5    1
    10     6     5    1
    11     6     7    1
    12     5    12    1
    13     8    18    1
    14     8     7    1
    15     8     9    1
    16     7    17    1
    17     9    19    1
    18    12    10   am
    19    10    20    2
    20    10    11    1
