@<TRIPOS>MOLECULE
4h03_LAR_B_1.pdb
 29 31 0 0 0
SMALL
GASTEIGER

@<TRIPOS>ATOM
      1  S1        10.1620  -35.9150   29.7210 S.3   403  LAR403     -0.0192
      2  N1         8.0700  -35.2990   28.5070 N.2   403  LAR403     -0.1932
      3  O1         6.4630  -38.4970   24.9290 O.2   403  LAR403     -0.2449
      4  O2         8.5450  -37.7230   24.3000 O.3   403  LAR403     -0.4490
      5  O3        10.1250  -34.8470   25.4740 O.3   403  LAR403     -0.3329
      6  O4         9.8080  -36.8290   26.6580 O.3   403  LAR403     -0.1930
      7  O5         7.7860  -36.5470   30.3660 O.2   403  LAR403     -0.2155
      8  C1         7.5660  -38.7810   24.4830 C.2   403  LAR403      0.3407
      9  C2         7.8530  -40.2040   24.1610 C.2   403  LAR403      0.0734
     10  C3         8.9640  -40.7590   23.6100 C.2   403  LAR403     -0.0375
     11  C4        10.2580  -40.0710   23.2390 C.3   403  LAR403      0.0222
     12  C5        10.5150  -39.7090   21.7550 C.3   403  LAR403      0.0043
     13  C6        11.5510  -38.6560   22.0140 C.3   403  LAR403      0.0003
     14  C7        12.5260  -38.0400   21.3320 C.3   403  LAR403      0.0000
     15  C8        13.0500  -37.1450   22.3500 C.3   403  LAR403      0.0000
     16  C9        13.8360  -36.0820   22.4750 C.3   403  LAR403      0.0000
     17  C10       13.7400  -35.6250   23.9380 C.3   403  LAR403      0.0001
     18  C11       12.7570  -34.4680   24.1500 C.3   403  LAR403      0.0025
     19  C12       11.3900  -34.6120   23.4590 C.3   403  LAR403      0.0298
     20  C13       10.3860  -35.4790   24.2200 C.3   403  LAR403      0.1214
     21  C14        9.0650  -35.5840   23.4560 C.3   403  LAR403      0.0734
     22  C15        8.0430  -36.3830   24.2540 C.3   403  LAR403      0.1766
     23  C16        7.8850  -35.7650   25.6460 C.3   403  LAR403      0.1048
     24  C17        9.2330  -35.5530   26.3400 C.3   403  LAR403      0.2448
     25  C18        9.0840  -34.7400   27.6280 C.3   403  LAR403      0.1810
     26  C19       10.3760  -34.7160   28.4410 C.3   403  LAR403      0.1042
     27  C20        8.5060  -35.9480   29.5740 C.1   403  LAR403      0.1790
     28  C21        8.9460  -42.2400   23.4130 C.3   403  LAR403      0.0266
     29  C22       15.0680  -35.3200   24.6230 C.3   403  LAR403      0.0000
@<TRIPOS>BOND
     1    14    13    1
     2    14    15    1
     3    12    13    1
     4    12    11    1
     5    15    16    1
     6    16    17    1
     7    11    10    1
     8    28    10    1
     9    21    20    1
    10    21    22    1
    11    19    18    1
    12    19    20    1
    13    10     9    2
    14    17    18    1
    15    17    29    1
    16     9     8    1
    17    20     5    1
    18    22     4    1
    19    22    23    1
    20     4     8    1
    21     8     3    2
    22     5    24    1
    23    23    24    1
    24    24     6    1
    25    24    25    1
    26    25    26    1
    27    25     2    1
    28    26     1    1
    29     2    27    2
    30    27     1    1
    31    27     7    2
