@<TRIPOS>MOLECULE
4h03_ATP_B_1.pdb
 31 33 0 0 0
SMALL
GASTEIGER

@<TRIPOS>ATOM
      1  PG        -0.6430  -32.0840   25.1370 P.3   402  ATP402      0.5373
      2  O1G       -0.3880  -30.8520   24.3010 O.2   402  ATP402     -0.2221
      3  O2G       -0.4970  -31.8490   26.6240 O.3   402  ATP402     -0.1143
      4  O3G       -1.8910  -32.8480   24.7660 O.3   402  ATP402     -0.1143
      5  PB         0.6690  -34.3030   23.7520 P.3   402  ATP402      0.2277
      6  O1B        2.0890  -34.3690   23.2160 O.3   402  ATP402     -0.4368
      7  O2B       -0.4950  -34.2590   22.7910 O.2   402  ATP402     -0.5168
      8  O3B        0.6140  -33.0520   24.7910 O.3   402  ATP402     -0.2258
      9  PA         0.1690  -37.0660   24.3430 P.3   402  ATP402      0.2189
     10  O1A       -1.3150  -37.3090   24.4830 O.3   402  ATP402     -0.4371
     11  O2A        0.8740  -37.3760   23.0390 O.2   402  ATP402     -0.5170
     12  O3A        0.4740  -35.5400   24.7720 O.3   402  ATP402     -0.2700
     13  O5'        0.8540  -37.9000   25.5430 O.3   402  ATP402     -0.3112
     14  C5'        2.2520  -37.8240   25.8250 C.3   402  ATP402      0.1813
     15  C4'        2.4340  -37.7810   27.3340 C.3   402  ATP402      0.1821
     16  O4'        1.7940  -38.9260   27.8970 O.3   402  ATP402     -0.3135
     17  C3'        3.8950  -37.8160   27.7570 C.3   402  ATP402      0.2184
     18  O3'        4.1060  -37.0010   28.9180 O.3   402  ATP402     -0.2174
     19  C2'        4.1150  -39.2690   28.0980 C.3   402  ATP402      0.2570
     20  O2'        5.1570  -39.4780   29.0700 O.3   402  ATP402     -0.2130
     21  C1'        2.7540  -39.6660   28.6420 C.3   402  ATP402      0.3186
     22  N9         2.5040  -41.1090   28.4990 N.pl3 402  ATP402     -0.1439
     23  C8         2.5730  -41.8290   27.3670 C.3   402  ATP402      0.3377
     24  N7         2.2840  -43.1310   27.6150 N.2   402  ATP402     -0.2095
     25  C5         2.0240  -43.2380   28.9270 C.2   402  ATP402      0.2526
     26  C6         1.6560  -44.3280   29.8520 C.2   402  ATP402      0.4393
     27  N6         1.4970  -45.5950   29.4110 N.pl3 402  ATP402      0.2180
     28  N1         1.4780  -44.0060   31.1510 N.2   402  ATP402      0.0021
     29  C2         1.6300  -42.7470   31.6090 C.3   402  ATP402      0.5254
     30  N3         1.9680  -41.7070   30.8280 N.2   402  ATP402     -0.0055
     31  C4         2.1720  -41.8980   29.5060 C.2   402  ATP402      0.3518
@<TRIPOS>BOND
     1     7     5    2
     2    11     9    2
     3     6     5    1
     4     5    12    1
     5     5     8    1
     6     2     1    2
     7     9    10    1
     8     9    12    1
     9     9    13    1
    10     4     1    1
    11     8     1    1
    12     1     3    1
    13    13    14    1
    14    14    15    1
    15    15    17    1
    16    15    16    1
    17    23    24    1
    18    23    22    1
    19    24    25    2
    20    17    19    1
    21    17    18    1
    22    16    21    1
    23    19    21    1
    24    19    20    1
    25    22    21    1
    26    22    31    1
    27    25    31    1
    28    25    26    1
    29    27    26    1
    30    31    30    2
    31    26    28    2
    32    30    29    1
    33    28    29    1
