@<TRIPOS>MOLECULE
4h03_NAD_A_1.pdb
 44 48 0 0 0
SMALL
GASTEIGER

@<TRIPOS>ATOM
      1  PA         2.4370  -14.9140   39.2770 P.3   501  NAD501      0.2189
      2  O1A        3.3350  -14.8840   38.0630 O.2   501  NAD501     -0.5170
      3  O2A        1.8740  -13.6290   39.8750 O.3   501  NAD501     -0.4371
      4  O5B        3.1360  -15.7580   40.4580 O.3   501  NAD501     -0.3112
      5  C5B        3.9900  -16.8680   40.1870 C.3   501  NAD501      0.1813
      6  C4B        4.6600  -17.2410   41.4990 C.3   501  NAD501      0.1821
      7  O4B        5.4870  -16.1640   41.9410 O.3   501  NAD501     -0.3135
      8  C3B        3.6520  -17.4670   42.6150 C.3   501  NAD501      0.2184
      9  O3B        4.1410  -18.4840   43.5000 O.3   501  NAD501     -0.2174
     10  C2B        3.5760  -16.1340   43.3380 C.3   501  NAD501      0.2570
     11  O2B        3.2000  -16.2720   44.7120 O.3   501  NAD501     -0.2130
     12  C1B        5.0150  -15.6760   43.2070 C.3   501  NAD501      0.3186
     13  N9A        5.2610  -14.2210   43.2390 N.pl3 501  NAD501     -0.1439
     14  C8A        4.7450  -13.2980   42.4030 C.3   501  NAD501      0.3377
     15  N7A        5.2240  -12.0670   42.7100 N.2   501  NAD501     -0.2095
     16  C5A        6.0640  -12.2090   43.7490 C.2   501  NAD501      0.2526
     17  C6A        6.9030  -11.3020   44.5550 C.2   501  NAD501      0.4393
     18  N6A        6.9000   -9.9790   44.2680 N.pl3 501  NAD501      0.2180
     19  N1A        7.6410  -11.8430   45.5590 N.2   501  NAD501      0.0021
     20  C2A        7.6290  -13.1680   45.8280 C.3   501  NAD501      0.5254
     21  N3A        6.8850  -14.0470   45.1240 N.2   501  NAD501     -0.0055
     22  C4A        6.0970  -13.6340   44.0950 C.2   501  NAD501      0.3518
     23  O3         1.2920  -15.9810   38.9320 O.3   501  NAD501     -0.2703
     24  PN        -0.2890  -15.7650   39.1040 P.3   501  NAD501      0.2189
     25  O1N       -0.6260  -14.3070   39.3080 O.2   501  NAD501     -0.5170
     26  O2N       -0.8230  -16.8680   40.1140 O.3   501  NAD501     -0.4371
     27  O5D       -0.7340  -16.2470   37.6530 O.3   501  NAD501     -0.3112
     28  C5D       -0.7350  -15.3550   36.5640 C.3   501  NAD501      0.1813
     29  C4D       -1.6220  -16.0900   35.5820 C.3   501  NAD501      0.1799
     30  O4D       -2.9390  -16.2290   36.1230 O.3   501  NAD501     -0.3327
     31  C3D       -1.7320  -15.2280   34.3580 C.3   501  NAD501      0.2158
     32  O3D       -2.0460  -16.0390   33.2210 O.3   501  NAD501     -0.2175
     33  C2D       -2.8810  -14.3170   34.7320 C.3   501  NAD501      0.2309
     34  O2D       -3.5590  -13.8160   33.5690 O.3   501  NAD501     -0.2158
     35  C1D       -3.7840  -15.1970   35.5950 C.3   501  NAD501      0.2263
     36  N1N       -4.4860  -14.4470   36.6570 N.pl3 501  NAD501     -0.2787
     37  C2N       -4.2780  -14.6890   37.9730 C.3   501  NAD501      0.1244
     38  C3N       -4.9630  -13.9640   38.9600 C.2   501  NAD501      0.0544
     39  C7N       -4.7570  -14.2200   40.4320 C.2   501  NAD501      0.2818
     40  O7N       -5.6440  -13.9260   41.2170 O.2   501  NAD501     -0.2670
     41  N7N       -3.6340  -14.7860   40.8750 N.am  501  NAD501     -0.0839
     42  C4N       -5.8830  -12.9970   38.5600 C.2   501  NAD501      0.0033
     43  C5N       -6.0900  -12.7720   37.2040 C.2   501  NAD501      0.0157
     44  C6N       -5.3750  -13.5160   36.2690 C.2   501  NAD501      0.0633
@<TRIPOS>BOND
     1    32    31    1
     2    34    33    1
     3    31    33    1
     4    31    29    1
     5    33    35    1
     6    29    30    1
     7    29    28    1
     8    35    30    1
     9    35    36    1
    10    44    36    1
    11    44    43    2
    12    28    27    1
    13    36    37    1
    14    43    42    1
    15    27    24    1
    16    37    38    1
    17     2     1    2
    18    42    38    2
    19    23    24    1
    20    23     1    1
    21    38    39    1
    22    24    25    2
    23    24    26    1
    24     1     3    1
    25     1     4    1
    26     5     4    1
    27     5     6    1
    28    39    41   am
    29    39    40    2
    30     6     7    1
    31     6     8    1
    32     7    12    1
    33    14    15    1
    34    14    13    1
    35     8    10    1
    36     8     9    1
    37    15    16    2
    38    12    13    1
    39    12    10    1
    40    13    22    1
    41    10    11    1
    42    16    22    1
    43    16    17    1
    44    22    21    2
    45    18    17    1
    46    17    19    2
    47    21    20    1
    48    19    20    1
