@<TRIPOS>MOLECULE
4h07_HEM_A_1.pdb
 43 50 0 0 0
SMALL
GASTEIGER

@<TRIPOS>ATOM
      1  CHA       17.0600  -33.5520   -5.3120 C.2   201  HEM201      0.0000
      2  CHB       14.0870  -34.5470   -1.6770 C.2   201  HEM201      0.0000
      3  CHC       11.0910  -31.0500   -3.1590 C.2   201  HEM201      0.0000
      4  CHD       14.0730  -30.0710   -6.8070 C.2   201  HEM201      0.0000
      5  C1A       16.5430  -34.1240   -4.1820 C.2   201  HEM201      0.0000
      6  C2A       17.1150  -35.1990   -3.4190 C.2   201  HEM201      0.0000
      7  C3A       16.2370  -35.5020   -2.3910 C.2   201  HEM201      0.0000
      8  C4A       15.1460  -34.6010   -2.5250 C.2   201  HEM201      0.0000
      9  CMA       16.4110  -36.5380   -1.3230 C.3   201  HEM201      0.0000
     10  CAA       18.4840  -35.7990   -3.6580 C.3   201  HEM201      0.0000
     11  CBA       19.5540  -35.2950   -2.6790 C.3   201  HEM201      0.0000
     12  CGA       19.6830  -33.8160   -2.6720 C.2   201  HEM201      0.0000
     13  O1A       19.3950  -33.1840   -1.6570 O.co2 201  HEM201      0.0000
     14  O2A       20.0550  -33.2330   -3.7200 O.co2 201  HEM201      0.0000
     15  C1B       13.0020  -33.6660   -1.7360 C.ar  201  HEM201      0.0000
     16  C2B       11.8790  -33.6540   -0.8000 C.ar  201  HEM201      0.0000
     17  C3B       11.0350  -32.6710   -1.2300 C.ar  201  HEM201      0.0000
     18  C4B       11.6330  -32.0680   -2.4400 C.ar  201  HEM201      0.0000
     19  CMB       11.7690  -34.5480    0.3730 C.3   201  HEM201      0.0000
     20  CAB        9.7500  -32.2520   -0.6960 C.2   201  HEM201      0.0000
     21  CBB        8.8250  -33.0830   -0.1790 C.2   201  HEM201      0.0000
     22  C1C       11.6000  -30.4630   -4.3310 C.2   201  HEM201      0.0000
     23  C2C       10.9400  -29.5340   -5.1710 C.2   201  HEM201      0.0000
     24  C3C       11.7750  -29.2810   -6.2180 C.2   201  HEM201      0.0000
     25  C4C       12.9810  -30.0260   -5.9950 C.2   201  HEM201      0.0000
     26  CMC        9.5520  -28.9960   -4.9070 C.3   201  HEM201      0.0000
     27  CAC       11.5570  -28.4640   -7.4600 C.2   201  HEM201      0.0000
     28  CBC       10.4960  -27.6670   -7.6840 C.2   201  HEM201      0.0000
     29  C1D       15.1570  -30.8980   -6.7260 C.ar  201  HEM201      0.0000
     30  C2D       16.2350  -30.9790   -7.6970 C.ar  201  HEM201      0.0000
     31  C3D       17.0380  -32.0280   -7.3130 C.ar  201  HEM201      0.0000
     32  C4D       16.5010  -32.5540   -6.0690 C.ar  201  HEM201      0.0000
     33  CMD       16.3500  -30.1380   -8.9500 C.3   201  HEM201      0.0000
     34  CAD       18.1770  -32.6230   -8.0730 C.3   201  HEM201      0.0000
     35  CBD       17.6560  -33.6740   -9.0830 C.3   201  HEM201      0.0000
     36  CGD       18.8290  -34.2180   -9.8340 C.2   201  HEM201      0.0000
     37  O1D       19.3120  -33.5300  -10.8550 O.co2 201  HEM201      0.0000
     38  O2D       19.3420  -35.2860   -9.5250 O.co2 201  HEM201      0.0000
     39  NA        15.3220  -33.7800   -3.6230 N.2   201  HEM201      0.0000
     40  NB        12.8400  -32.7070   -2.7100 N.ar  201  HEM201      0.0000
     41  NC        12.8360  -30.7470   -4.8470 N.2   201  HEM201      0.0000
     42  ND        15.3580  -31.8420   -5.7350 N.ar  201  HEM201      0.0000
     43 FE         14.1300  -32.2260   -4.1960 Fe    201  HEM201      0.0000
@<TRIPOS>BOND
     1    37    36   ar
     2    36    38   ar
     3    36    35    1
     4    35    34    1
     5    33    30    1
     6    34    31    1
     7    30    31   ar
     8    30    29   ar
     9    28    27    2
    10    27    24    1
    11    31    32   ar
    12     4    29    2
    13     4    25    1
    14    29    42   ar
    15    24    25    1
    16    24    23    2
    17    32    42   ar
    18    32     1    2
    19    25    41    2
    20    42    43    1
    21     1     5    1
    22    23    26    1
    23    23    22    1
    24    41    22    1
    25    41    43    1
    26    22     3    2
    27    43    39    1
    28    43    40    1
    29     5    39    2
    30     5     6    1
    31    14    12   ar
    32    10     6    1
    33    10    11    1
    34    39     8    1
    35     6     7    2
    36     3    18    1
    37    40    18   ar
    38    40    15   ar
    39    11    12    1
    40    12    13   ar
    41     8     7    1
    42     8     2    2
    43    18    17   ar
    44     7     9    1
    45    15     2    1
    46    15    16   ar
    47    17    16   ar
    48    17    20    1
    49    16    19    1
    50    20    21    2
