@<TRIPOS>MOLECULE
4h0b_HEM_A_1.pdb
 43 50 0 0 0
SMALL
GASTEIGER

@<TRIPOS>ATOM
      1  CHA      -20.5140  -31.4890   -3.6520 C.2   201  HEM201      0.0000
      2  CHB      -22.8580  -29.3820   -0.0300 C.2   201  HEM201      0.0000
      3  CHC      -21.2220  -25.0440   -1.4630 C.2   201  HEM201      0.0000
      4  CHD      -18.9900  -27.1780   -5.1990 C.2   201  HEM201      0.0000
      5  C1A      -21.2610  -31.2960   -2.5250 C.2   201  HEM201      0.0000
      6  C2A      -21.9200  -32.3400   -1.7590 C.2   201  HEM201      0.0000
      7  C3A      -22.6160  -31.7370   -0.7450 C.2   201  HEM201      0.0000
      8  C4A      -22.3740  -30.3120   -0.8840 C.2   201  HEM201      0.0000
      9  CMA      -23.4370  -32.3650    0.3470 C.3   201  HEM201      0.0000
     10  CAA      -21.7770  -33.8250   -1.9910 C.3   201  HEM201      0.0000
     11  CBA      -20.8130  -34.5110   -0.9930 C.3   201  HEM201      0.0000
     12  CGA      -19.4550  -33.8570   -0.9740 C.2   201  HEM201      0.0000
     13  O1A      -19.1090  -33.2260    0.0430 O.co2 201  HEM201      0.0000
     14  O2A      -18.7280  -33.9130   -1.9840 O.co2 201  HEM201      0.0000
     15  C1B      -22.6350  -28.0320   -0.0700 C.ar  201  HEM201      0.0000
     16  C2B      -23.1500  -27.0360    0.8650 C.ar  201  HEM201      0.0000
     17  C3B      -22.6860  -25.8220    0.4590 C.ar  201  HEM201      0.0000
     18  C4B      -21.8460  -26.0300   -0.7360 C.ar  201  HEM201      0.0000
     19  CMB      -24.0100  -27.3780    2.0110 C.3   201  HEM201      0.0000
     20  CAB      -22.9390  -24.4640    1.0090 C.2   201  HEM201      0.0000
     21  CBB      -24.1490  -24.0630    1.5290 C.2   201  HEM201      0.0000
     22  C1C      -20.5090  -25.1990   -2.6390 C.2   201  HEM201      0.0000
     23  C2C      -20.0310  -24.1520   -3.4970 C.2   201  HEM201      0.0000
     24  C3C      -19.4130  -24.7790   -4.5840 C.2   201  HEM201      0.0000
     25  C4C      -19.4970  -26.2170   -4.3550 C.2   201  HEM201      0.0000
     26  CMC      -20.2360  -22.6740   -3.2470 C.3   201  HEM201      0.0000
     27  CAC      -18.8270  -24.1990   -5.8240 C.2   201  HEM201      0.0000
     28  CBC      -18.7340  -22.8510   -6.0460 C.2   201  HEM201      0.0000
     29  C1D      -19.1660  -28.5140   -5.0800 C.ar  201  HEM201      0.0000
     30  C2D      -18.7240  -29.4600   -6.0520 C.ar  201  HEM201      0.0000
     31  C3D      -19.2090  -30.7190   -5.6710 C.ar  201  HEM201      0.0000
     32  C4D      -19.9150  -30.5050   -4.4150 C.ar  201  HEM201      0.0000
     33  CMD      -17.9100  -29.1500   -7.3180 C.3   201  HEM201      0.0000
     34  CAD      -19.1400  -31.9970   -6.4340 C.3   201  HEM201      0.0000
     35  CBD      -20.3080  -32.0400   -7.4650 C.3   201  HEM201      0.0000
     36  CGD      -20.1850  -33.3410   -8.2000 C.2   201  HEM201      0.0000
     37  O1D      -19.3110  -33.4570   -9.1670 O.co2 201  HEM201      0.0000
     38  O2D      -20.8450  -34.3250   -7.8600 O.co2 201  HEM201      0.0000
     39  NA       -21.5530  -30.0740   -1.9820 N.2   201  HEM201      0.0000
     40  NB       -21.8530  -27.3760   -1.0360 N.ar  201  HEM201      0.0000
     41  NC       -20.1650  -26.4370   -3.1880 N.2   201  HEM201      0.0000
     42  ND       -19.8740  -29.1630   -4.0700 N.ar  201  HEM201      0.0000
     43 FE        -20.8160  -28.2640   -2.5400 Fe    201  HEM201      0.0000
@<TRIPOS>BOND
     1    37    36   ar
     2    36    38   ar
     3    36    35    1
     4    35    34    1
     5    33    30    1
     6    34    31    1
     7    30    31   ar
     8    30    29   ar
     9    28    27    2
    10    27    24    1
    11    31    32   ar
    12     4    29    2
    13     4    25    1
    14    29    42   ar
    15    24    25    1
    16    24    23    2
    17    32    42   ar
    18    32     1    2
    19    25    41    2
    20    42    43    1
    21     1     5    1
    22    23    26    1
    23    23    22    1
    24    41    22    1
    25    41    43    1
    26    22     3    2
    27    43    39    1
    28    43    40    1
    29     5    39    2
    30     5     6    1
    31    10     6    1
    32    10    11    1
    33    14    12   ar
    34    39     8    1
    35     6     7    2
    36     3    18    1
    37    40    18   ar
    38    40    15   ar
    39    11    12    1
    40    12    13   ar
    41     8     7    1
    42     8     2    2
    43     7     9    1
    44    18    17   ar
    45    15     2    1
    46    15    16   ar
    47    17    16   ar
    48    17    20    1
    49    16    19    1
    50    20    21    2
