@<TRIPOS>MOLECULE
4h0d_ZZ7_A_1.pdb
 25 26 0 0 0
SMALL
GASTEIGER

@<TRIPOS>ATOM
      1  O1        -1.5840   -8.2340   24.7030 O.co2 301  ZZ7301     -0.2441
      2  C2        -1.4040   -7.9270   25.9040 C.2   301  ZZ7301      0.3811
      3  O2        -2.2700   -7.3160   26.5720 O.co2 301  ZZ7301     -0.2441
      4  C12       -0.0810   -8.2470   26.5530 C.3   301  ZZ7301      0.1857
      5  C6        -0.0900   -9.3430   27.6160 C.3   301  ZZ7301      0.0658
      6  C1        -0.8190   -8.9180   28.8900 C.3   301  ZZ7301      0.0129
      7  C16       -0.6820  -10.6400   27.0760 C.3   301  ZZ7301      0.0129
      8  S1         1.6500   -9.5520   27.8760 S.3   301  ZZ7301     -0.1211
      9  N3         0.9600   -8.6400   25.5980 N.3   301  ZZ7301     -0.1956
     10  C13        2.1740   -9.1400   26.2260 C.3   301  ZZ7301      0.1514
     11  C14        3.2840   -8.0810   26.1110 C.3   301  ZZ7301      0.2237
     12  C15        2.8460   -6.6580   26.3500 C.2   301  ZZ7301      0.3865
     13  O4         3.2780   -6.0800   27.3740 O.co2 301  ZZ7301     -0.2437
     14  N1         4.3250   -8.4060   27.0770 N.am  301  ZZ7301     -0.1917
     15  C3         5.3790   -9.1450   26.7580 C.2   301  ZZ7301      0.2636
     16  O3         5.5390   -9.6110   25.6330 O.2   301  ZZ7301     -0.2714
     17  C4         6.3900   -9.3560   27.8630 C.3   301  ZZ7301      0.1915
     18  N2         7.6580   -9.7950   27.3110 N.3   301  ZZ7301     -0.1182
     19  C5         5.9220  -10.2820   28.9290 C.ar  301  ZZ7301      0.0038
     20  C7         6.5270  -10.2130   30.1800 C.ar  301  ZZ7301     -0.0024
     21  C8         6.1150  -11.0590   31.2060 C.ar  301  ZZ7301     -0.0003
     22  C9         5.0950  -11.9760   30.9750 C.ar  301  ZZ7301     -0.0000
     23  C10        4.4860  -12.0450   29.7260 C.ar  301  ZZ7301     -0.0003
     24  C11        4.8990  -11.1970   28.7010 C.ar  301  ZZ7301     -0.0024
     25  OXT        2.1080   -6.0840   25.5170 O.co2 301  ZZ7301     -0.2437
@<TRIPOS>BOND
     1     1     2   ar
     2    25    12   ar
     3     9    10    1
     4     9     4    1
     5    16    15    2
     6     2     4    1
     7     2     3   ar
     8    11    10    1
     9    11    12    1
    10    11    14    1
    11    10     8    1
    12    12    13   ar
    13     4     5    1
    14    15    14   am
    15    15    17    1
    16     7     5    1
    17    18    17    1
    18     5     8    1
    19     5     6    1
    20    17    19    1
    21    24    19   ar
    22    24    23   ar
    23    19    20   ar
    24    23    22   ar
    25    20    21   ar
    26    22    21   ar
