@<TRIPOS>MOLECULE
4h0l_QNO_A_1.pdb
 46 47 0 0 0
SMALL
GASTEIGER

@<TRIPOS>ATOM
      1  C29      -36.4650   88.6680   18.6850 C.3   308  QNO308     -0.0653
      2  C28      -34.9720   88.6740   18.7520 C.3   308  QNO308     -0.0559
      3  C27      -34.4500   87.2880   18.5620 C.3   308  QNO308     -0.0533
      4  C26      -33.1810   87.0640   19.3260 C.3   308  QNO308     -0.0531
      5  C25      -32.6550   85.7080   18.9740 C.3   308  QNO308     -0.0531
      6  C24      -31.3620   85.3700   19.6510 C.3   308  QNO308     -0.0530
      7  C23      -31.0740   83.9210   19.3900 C.3   308  QNO308     -0.0526
      8  C22      -29.6270   83.6760   19.0800 C.3   308  QNO308     -0.0435
      9  C21      -29.4940   82.6330   18.0070 C.3   308  QNO308      0.0339
     10  C2       -28.2510   82.8530   17.2020 C.ar  308  QNO308      0.1994
     11  C3       -26.9270   82.9620   17.8340 C.ar  308  QNO308      0.0487
     12  C4       -26.1270   83.9550   17.2550 C.ar  308  QNO308      0.1362
     13  O41      -25.1160   84.4520   18.0410 O.3   308  QNO308     -0.5057
     14  C5       -25.9890   83.9890   15.9480 C.ar  308  QNO308      0.0890
     15  C51      -24.8330   84.4600   15.2960 C.ar  308  QNO308     -0.0447
     16  C52      -24.7510   84.4580   13.9390 C.ar  308  QNO308     -0.0607
     17  C62      -25.7810   83.9960   13.2100 C.ar  308  QNO308     -0.0555
     18  C61      -26.9070   83.5350   13.8280 C.ar  308  QNO308      0.0117
     19  C6       -27.0130   83.5290   15.2340 C.ar  308  QNO308      0.2299
     20  N1       -28.1150   83.0770   15.7980 N.ar  308  QNO308     -0.1673
     21  OH       -28.9680   82.5560   14.9680 O.co2 308  QNO308     -0.6192
     22 H291      -36.7960   89.5820   18.7530 H     308  QNO308      0.0230
     23 H292      -36.7500   88.2810   17.8380 H     308  QNO308      0.0230
     24 H293      -36.8210   88.1380   19.4210 H     308  QNO308      0.0230
     25 H281      -34.6170   89.2480   18.0520 H     308  QNO308      0.0263
     26 H282      -34.6800   89.0140   19.6150 H     308  QNO308      0.0263
     27 H271      -34.2890   87.1280   17.6180 H     308  QNO308      0.0265
     28 H272      -35.1160   86.6520   18.8740 H     308  QNO308      0.0265
     29 H261      -32.5240   87.7400   19.0890 H     308  QNO308      0.0265
     30 H262      -33.3560   87.1090   20.2820 H     308  QNO308      0.0265
     31 H251      -33.3180   85.0370   19.2100 H     308  QNO308      0.0265
     32 H252      -32.5140   85.6690   18.0130 H     308  QNO308      0.0265
     33 H241      -30.6530   85.9180   19.2750 H     308  QNO308      0.0265
     34 H242      -31.4270   85.5270   20.6080 H     308  QNO308      0.0265
     35 H231      -31.3170   83.4050   20.1770 H     308  QNO308      0.0265
     36 H232      -31.6130   83.6140   18.6420 H     308  QNO308      0.0265
     37 H221      -29.1700   83.3730   19.8830 H     308  QNO308      0.0270
     38 H222      -29.2120   84.5000   18.7740 H     308  QNO308      0.0270
     39 H211      -30.2680   82.6580   17.4190 H     308  QNO308      0.0372
     40 H212      -29.4440   81.7600   18.4330 H     308  QNO308      0.0372
     41  H3       -26.6200   82.3710   18.5390 H     308  QNO308      0.0717
     42  H41      -25.2710   85.3080   18.2150 H     308  QNO308      0.2922
     43  H51      -24.0870   84.7900   15.8220 H     308  QNO308      0.0627
     44  H52      -23.9510   84.7860   13.4990 H     308  QNO308      0.0618
     45  H62      -25.7270   83.9960   12.2410 H     308  QNO308      0.0620
     46  H61      -27.6460   83.2080   13.2920 H     308  QNO308      0.0684
@<TRIPOS>UNITY_ATOM_ATTR
20 1
charge 1
21 1
charge -1
@<TRIPOS>BOND
     1    45    17    1
     2    17    18   ar
     3    17    16   ar
     4    46    18    1
     5    44    16    1
     6    18    19   ar
     7    16    15   ar
     8    21    20    1
     9    19    20   ar
    10    19    14   ar
    11    15    43    1
    12    15    14   ar
    13    20    10   ar
    14    14    12   ar
    15    10    11   ar
    16    10     9    1
    17    12    11   ar
    18    12    13    1
    19    39     9    1
    20    27     3    1
    21    11    41    1
    22    23     1    1
    23     9    40    1
    24     9     8    1
    25    32     5    1
    26    13    42    1
    27    25     2    1
    28     3     2    1
    29     3    28    1
    30     3     4    1
    31    36     7    1
    32     1     2    1
    33     1    22    1
    34     1    24    1
    35     2    26    1
    36    38     8    1
    37     5    31    1
    38     5     4    1
    39     5     6    1
    40     8     7    1
    41     8    37    1
    42    29     4    1
    43    33     6    1
    44     4    30    1
    45     7     6    1
    46     7    35    1
    47     6    34    1
