@<TRIPOS>MOLECULE
4h0n_SAH_A_1.pdb
 26 28 0 0 0
SMALL
GASTEIGER

@<TRIPOS>ATOM
      1  N        101.6620  109.7290  163.4730 N.3   401  SAH401     -0.1208
      2  CA       100.5370  108.9140  163.0270 C.3   401  SAH401      0.1952
      3  CB       100.9390  107.8540  161.9940 C.3   401  SAH401      0.0422
      4  CG       102.4090  107.7510  161.5940 C.3   401  SAH401      0.0597
      5  SD       102.7830  106.1270  160.8760 S.3   401  SAH401     -0.1375
      6  C         99.7720  108.2960  164.2020 C.2   401  SAH401      0.3819
      7  O         99.2870  107.1650  164.1290 O.co2 401  SAH401     -0.2441
      8  OXT       99.6050  108.9150  165.2510 O.co2 401  SAH401     -0.2441
      9  C5'      102.6510  106.7400  159.1750 C.3   401  SAH401      0.0899
     10  C4'      101.2690  106.5590  158.5450 C.3   401  SAH401      0.1630
     11  O4'      101.2050  107.2960  157.3390 O.3   401  SAH401     -0.3153
     12  C3'      100.9330  105.1160  158.1900 C.3   401  SAH401      0.2168
     13  O3'       99.8920  104.6520  159.0220 O.3   401  SAH401     -0.2175
     14  C2'      100.4800  105.1390  156.7380 C.3   401  SAH401      0.2569
     15  O2'       99.1890  104.5920  156.5930 O.3   401  SAH401     -0.2130
     16  C1'      100.4540  106.6080  156.3570 C.3   401  SAH401      0.3185
     17  N9       101.0300  106.8390  155.0160 N.pl3 401  SAH401     -0.1439
     18  C8       102.1420  106.2420  154.4780 C.3   401  SAH401      0.3377
     19  N7       102.3360  106.7310  153.2310 N.2   401  SAH401     -0.2095
     20  C5       101.3640  107.6310  152.9610 C.2   401  SAH401      0.2526
     21  C6       101.0910  108.4160  151.8460 C.2   401  SAH401      0.4393
     22  N6       101.8710  108.3520  150.7710 N.pl3 401  SAH401      0.2180
     23  N1       100.0020  109.2640  151.8610 N.2   401  SAH401      0.0021
     24  C2        99.1910  109.3280  152.9770 C.3   401  SAH401      0.5254
     25  N3        99.4660  108.5450  154.0800 N.2   401  SAH401     -0.0055
     26  C4       100.5350  107.7090  154.0740 C.2   401  SAH401      0.3518
@<TRIPOS>BOND
     1    22    21    1
     2    21    23    2
     3    21    20    1
     4    23    24    1
     5    20    19    2
     6    20    26    1
     7    24    25    1
     8    19    18    1
     9    26    25    2
    10    26    17    1
    11    18    17    1
    12    17    16    1
    13    16    14    1
    14    16    11    1
    15    15    14    1
    16    14    12    1
    17    11    10    1
    18    12    10    1
    19    12    13    1
    20    10     9    1
    21     9     5    1
    22     5     4    1
    23     4     3    1
    24     3     2    1
    25     2     1    1
    26     2     6    1
    27     7     6   ar
    28     6     8   ar
