@<TRIPOS>MOLECULE
4h0t_LAR_B_1.pdb
 29 31 0 0 0
SMALL
GASTEIGER

@<TRIPOS>ATOM
      1  S1        10.0910  -36.8090   29.6510 S.3   403  LAR403     -0.0192
      2  N1         8.0810  -36.0120   28.4140 N.2   403  LAR403     -0.1932
      3  O1         6.4430  -39.1280   24.7730 O.2   403  LAR403     -0.2449
      4  O2         8.5260  -38.3720   24.1070 O.3   403  LAR403     -0.4490
      5  O3        10.1960  -35.4730   25.4680 O.3   403  LAR403     -0.3329
      6  O4         9.9050  -37.5140   26.5670 O.3   403  LAR403     -0.1930
      7  O5         7.6560  -37.3190   30.1930 O.2   403  LAR403     -0.2155
      8  C1         7.5370  -39.4330   24.3240 C.2   403  LAR403      0.3407
      9  C2         7.8090  -40.8740   24.0350 C.2   403  LAR403      0.0734
     10  C3         8.9250  -41.4000   23.4700 C.2   403  LAR403     -0.0375
     11  C4        10.1480  -40.6040   23.1050 C.3   403  LAR403      0.0222
     12  C5        10.5500  -40.4170   21.6240 C.3   403  LAR403      0.0043
     13  C6        11.6090  -39.3830   21.9000 C.3   403  LAR403      0.0003
     14  C7        12.5430  -38.7140   21.2160 C.3   403  LAR403      0.0000
     15  C8        13.0910  -37.8490   22.2400 C.3   403  LAR403      0.0000
     16  C9        13.7340  -36.6940   22.2940 C.3   403  LAR403      0.0000
     17  C10       13.7810  -36.2350   23.7530 C.3   403  LAR403      0.0001
     18  C11       12.8680  -35.0200   24.0030 C.3   403  LAR403      0.0025
     19  C12       11.4460  -35.1250   23.4120 C.3   403  LAR403      0.0298
     20  C13       10.4600  -36.0260   24.1760 C.3   403  LAR403      0.1214
     21  C14        9.1330  -36.1510   23.4140 C.3   403  LAR403      0.0734
     22  C15        8.1000  -36.9980   24.1610 C.3   403  LAR403      0.1766
     23  C16        7.9600  -36.4560   25.5890 C.3   403  LAR403      0.1048
     24  C17        9.3090  -36.2360   26.2960 C.3   403  LAR403      0.2448
     25  C18        9.1520  -35.4590   27.6110 C.3   403  LAR403      0.1810
     26  C19       10.3970  -35.5050   28.5010 C.3   403  LAR403      0.1042
     27  C20        8.4420  -36.7400   29.4540 C.1   403  LAR403      0.1790
     28  C21        9.0290  -42.8810   23.2750 C.3   403  LAR403      0.0266
     29  C22       15.1980  -36.0830   24.3090 C.3   403  LAR403      0.0000
@<TRIPOS>BOND
     1    14    13    1
     2    14    15    1
     3    12    13    1
     4    12    11    1
     5    15    16    1
     6    16    17    1
     7    11    10    1
     8    28    10    1
     9    19    18    1
    10    19    20    1
    11    21    22    1
    12    21    20    1
    13    10     9    2
    14    17    18    1
    15    17    29    1
    16     9     8    1
    17     4    22    1
    18     4     8    1
    19    22    23    1
    20    20     5    1
    21     8     3    2
    22     5    24    1
    23    23    24    1
    24    24     6    1
    25    24    25    1
    26    25     2    1
    27    25    26    1
    28     2    27    2
    29    26     1    1
    30    27     1    1
    31    27     7    2
