@<TRIPOS>MOLECULE
4h0t_ATP_B_1.pdb
 31 33 0 0 0
SMALL
GASTEIGER

@<TRIPOS>ATOM
      1  PG        -0.6600  -32.6960   25.1770 P.3   404  ATP404      0.5373
      2  O1G       -0.3680  -31.4580   24.3640 O.2   404  ATP404     -0.2221
      3  O2G       -0.5250  -32.4980   26.6690 O.3   404  ATP404     -0.1143
      4  O3G       -1.9220  -33.4330   24.7730 O.3   404  ATP404     -0.1143
      5  PB         0.6070  -34.8830   23.7410 P.3   404  ATP404      0.2277
      6  O1B       -0.5500  -34.7870   22.7690 O.2   404  ATP404     -0.5168
      7  O2B        2.0130  -34.9500   23.1930 O.3   404  ATP404     -0.4368
      8  O3B        0.5790  -33.6780   24.8230 O.3   404  ATP404     -0.2258
      9  PA         0.0960  -37.6600   24.1840 P.3   404  ATP404      0.2189
     10  O1A        0.8190  -37.8960   22.8800 O.2   404  ATP404     -0.5170
     11  O2A       -1.3960  -37.8860   24.2890 O.3   404  ATP404     -0.4371
     12  O3A        0.4010  -36.1650   24.7040 O.3   404  ATP404     -0.2700
     13  O5'        0.7860  -38.5520   25.3390 O.3   404  ATP404     -0.3112
     14  C5'        2.1770  -38.4420   25.6460 C.3   404  ATP404      0.1813
     15  C4'        2.3650  -38.5270   27.1540 C.3   404  ATP404      0.1821
     16  O4'        1.7390  -39.7190   27.6330 O.3   404  ATP404     -0.3135
     17  C3'        3.8310  -38.5950   27.5590 C.3   404  ATP404      0.2184
     18  O3'        4.0680  -37.8220   28.7400 O.3   404  ATP404     -0.2174
     19  C2'        4.0510  -40.0630   27.8370 C.3   404  ATP404      0.2570
     20  O2'        5.0750  -40.3020   28.8100 O.3   404  ATP404     -0.2130
     21  C1'        2.6930  -40.4780   28.3670 C.3   404  ATP404      0.3186
     22  N9         2.4540  -41.9220   28.1970 N.pl3 404  ATP404     -0.1439
     23  C8         2.5140  -42.6140   27.0460 C.3   404  ATP404      0.3377
     24  N7         2.2390  -43.9250   27.2710 N.2   404  ATP404     -0.2095
     25  C5         1.9950  -44.0730   28.5870 C.2   404  ATP404      0.2526
     26  C6         1.6440  -45.1850   29.5040 C.2   404  ATP404      0.4393
     27  N6         1.4860  -46.4500   29.0590 N.pl3 404  ATP404      0.2180
     28  N1         1.4780  -44.9060   30.8140 N.2   404  ATP404      0.0021
     29  C2         1.6260  -43.6600   31.2960 C.3   404  ATP404      0.5254
     30  N3         1.9450  -42.6030   30.5270 N.2   404  ATP404     -0.0055
     31  C4         2.1400  -42.7440   29.1920 C.2   404  ATP404      0.3518
@<TRIPOS>BOND
     1     6     5    2
     2    10     9    2
     3     7     5    1
     4     5    12    1
     5     5     8    1
     6     9    11    1
     7     9    12    1
     8     9    13    1
     9     2     1    2
    10     4     1    1
    11     8     1    1
    12     1     3    1
    13    13    14    1
    14    14    15    1
    15    23    24    1
    16    23    22    1
    17    15    17    1
    18    15    16    1
    19    24    25    2
    20    17    19    1
    21    17    18    1
    22    16    21    1
    23    19    21    1
    24    19    20    1
    25    22    21    1
    26    22    31    1
    27    25    31    1
    28    25    26    1
    29    27    26    1
    30    31    30    2
    31    26    28    2
    32    30    29    1
    33    28    29    1
