@<TRIPOS>MOLECULE
4h0t_AR6_B_1.pdb
 35 38 0 0 0
SMALL
GASTEIGER

@<TRIPOS>ATOM
      1  N1         7.3590  -12.9920   44.7390 N.2   401  AR6401      0.0021
      2  C2         7.4890  -14.3910   45.2190 C.3   401  AR6401      0.5254
      3  N3         6.6370  -15.2480   44.4160 N.2   401  AR6401     -0.0055
      4  C4         5.8620  -14.8180   43.4100 C.2   401  AR6401      0.3518
      5  C5         5.8140  -13.5390   43.0640 C.2   401  AR6401      0.2526
      6  C6         6.5480  -12.6530   43.7270 C.2   401  AR6401      0.4393
      7  N6         6.4530  -11.3940   43.3290 N.pl3 401  AR6401      0.2180
      8  N7         4.9630  -13.4150   42.0470 N.2   401  AR6401     -0.2095
      9  C8         4.4930  -14.6250   41.7650 C.3   401  AR6401      0.3377
     10  N9         5.0400  -15.4800   42.6190 N.pl3 401  AR6401     -0.1439
     11  PA         2.0270  -16.6530   38.4140 P.3   401  AR6401      0.2189
     12  PB        -0.4980  -17.7760   38.5200 P.3   401  AR6401      0.2189
     13  C1'        4.8600  -16.9320   42.7140 C.3   401  AR6401      0.3186
     14  O1A        3.0960  -16.5150   37.3970 O.2   401  AR6401     -0.5170
     15  O1B       -1.1380  -16.4620   38.2950 O.2   401  AR6401     -0.5170
     16  C1D       -3.9910  -20.5740   35.4020 C.3   401  AR6401      0.1777
     17  C2'        3.4030  -17.3130   42.7660 C.3   401  AR6401      0.2570
     18  O2'        3.0230  -17.5820   44.1340 O.3   401  AR6401     -0.2130
     19  O2A        1.3020  -15.4410   38.8750 O.3   401  AR6401     -0.4371
     20  O2B       -0.3270  -18.2780   39.9000 O.3   401  AR6401     -0.4371
     21  C2D       -3.5330  -19.2670   34.7650 C.3   401  AR6401      0.2140
     22  O2D       -4.2630  -19.0050   33.5190 O.3   401  AR6401     -0.2176
     23  C3'        3.3510  -18.5660   41.9510 C.3   401  AR6401      0.2184
     24  O3'        3.6620  -19.7000   42.7660 O.3   401  AR6401     -0.2174
     25  O3A        0.9710  -17.7280   37.8730 O.3   401  AR6401     -0.2703
     26  C3D       -2.0780  -19.5270   34.4660 C.3   401  AR6401      0.2140
     27  O3D       -1.9430  -20.2760   33.2410 O.3   401  AR6401     -0.2176
     28  C4'        4.4530  -18.3750   40.9250 C.3   401  AR6401      0.1821
     29  O4'        5.4230  -17.4840   41.5110 O.3   401  AR6401     -0.3135
     30  C4D       -1.5940  -20.3920   35.6380 C.3   401  AR6401      0.1780
     31  O4D       -2.8200  -20.9820   36.2210 O.3   401  AR6401     -0.3482
     32  C5'        3.9720  -17.7460   39.6130 C.3   401  AR6401      0.1813
     33  O5'        2.6350  -17.3780   39.7040 O.3   401  AR6401     -0.3112
     34  C5D       -0.6360  -19.5630   36.5500 C.3   401  AR6401      0.1812
     35  O5D       -1.2970  -18.8890   37.6360 O.3   401  AR6401     -0.3112
@<TRIPOS>BOND
     1    27    26    1
     2    22    21    1
     3    26    21    1
     4    26    30    1
     5    21    16    1
     6    16    31    1
     7    30    31    1
     8    30    34    1
     9    34    35    1
    10    14    11    2
    11    35    12    1
    12    25    11    1
    13    25    12    1
    14    15    12    2
    15    11    19    1
    16    11    33    1
    17    12    20    1
    18    32    33    1
    19    32    28    1
    20    28    29    1
    21    28    23    1
    22    29    13    1
    23     9     8    1
    24     9    10    1
    25    23    17    1
    26    23    24    1
    27     8     5    2
    28    10    13    1
    29    10     4    1
    30    13    17    1
    31    17    18    1
    32     5     4    1
    33     5     6    1
    34     7     6    1
    35     4     3    2
    36     6     1    2
    37     3     2    1
    38     1     2    1
