@<TRIPOS>MOLECULE
4h0v_NAD_A_1.pdb
 44 48 0 0 0
SMALL
GASTEIGER

@<TRIPOS>ATOM
      1  PA         2.3740  -15.1080   39.1820 P.3   501  NAD501      0.2189
      2  O1A        3.3100  -15.0460   38.0020 O.2   501  NAD501     -0.5170
      3  O2A        1.8070  -13.8480   39.8030 O.3   501  NAD501     -0.4371
      4  O5B        3.0500  -15.9640   40.3590 O.3   501  NAD501     -0.3112
      5  C5B        3.9840  -17.0090   40.0980 C.3   501  NAD501      0.1813
      6  C4B        4.6230  -17.3930   41.4240 C.3   501  NAD501      0.1821
      7  O4B        5.4620  -16.3190   41.8550 O.3   501  NAD501     -0.3135
      8  C3B        3.6190  -17.5970   42.5500 C.3   501  NAD501      0.2184
      9  O3B        4.1170  -18.5870   43.4640 O.3   501  NAD501     -0.2174
     10  C2B        3.5430  -16.2530   43.2490 C.3   501  NAD501      0.2570
     11  O2B        3.1790  -16.3670   44.6260 O.3   501  NAD501     -0.2130
     12  C1B        4.9790  -15.7930   43.1010 C.3   501  NAD501      0.3186
     13  N9A        5.2090  -14.3360   43.0870 N.pl3 501  NAD501     -0.1439
     14  C8A        4.6940  -13.4240   42.2390 C.3   501  NAD501      0.3377
     15  N7A        5.1770  -12.1890   42.5310 N.2   501  NAD501     -0.2095
     16  C5A        6.0210  -12.3210   43.5700 C.2   501  NAD501      0.2526
     17  C6A        6.8710  -11.4220   44.3760 C.2   501  NAD501      0.4393
     18  N6A        6.8950  -10.0980   44.1000 N.pl3 501  NAD501      0.2180
     19  N1A        7.6030  -11.9690   45.3800 N.2   501  NAD501      0.0021
     20  C2A        7.5800  -13.2910   45.6560 C.3   501  NAD501      0.5254
     21  N3A        6.8280  -14.1620   44.9580 N.2   501  NAD501     -0.0055
     22  C4A        6.0460  -13.7420   43.9290 C.2   501  NAD501      0.3518
     23  O3         1.2160  -16.1350   38.7690 O.3   501  NAD501     -0.2703
     24  PN        -0.3560  -15.8810   38.9660 P.3   501  NAD501      0.2189
     25  O1N       -0.6610  -14.3970   39.0430 O.2   501  NAD501     -0.5170
     26  O2N       -0.8640  -16.8490   40.0520 O.3   501  NAD501     -0.4371
     27  O5D       -0.8500  -16.4960   37.5770 O.3   501  NAD501     -0.3112
     28  C5D       -0.8740  -15.6410   36.4560 C.3   501  NAD501      0.1813
     29  C4D       -1.7810  -16.3150   35.4550 C.3   501  NAD501      0.1799
     30  O4D       -3.1000  -16.3950   35.9950 O.3   501  NAD501     -0.3327
     31  C3D       -1.8440  -15.3900   34.2720 C.3   501  NAD501      0.2158
     32  O3D       -2.2610  -16.1120   33.1060 O.3   501  NAD501     -0.2175
     33  C2D       -2.9010  -14.4040   34.7180 C.3   501  NAD501      0.2309
     34  O2D       -3.5550  -13.7850   33.6090 O.3   501  NAD501     -0.2158
     35  C1D       -3.8600  -15.2740   35.5240 C.3   501  NAD501      0.2263
     36  N1N       -4.5370  -14.5430   36.6130 N.pl3 501  NAD501     -0.2787
     37  C2N       -4.3110  -14.8050   37.9230 C.3   501  NAD501      0.1244
     38  C3N       -4.9850  -14.0970   38.9290 C.2   501  NAD501      0.0544
     39  C7N       -4.7660  -14.3650   40.4020 C.2   501  NAD501      0.2818
     40  O7N       -5.6210  -13.9940   41.1890 O.2   501  NAD501     -0.2670
     41  N7N       -3.6900  -15.0100   40.8610 N.am  501  NAD501     -0.0839
     42  C4N       -5.9110  -13.1240   38.5500 C.2   501  NAD501      0.0033
     43  C5N       -6.1320  -12.8790   37.2000 C.2   501  NAD501      0.0157
     44  C6N       -5.4300  -13.6100   36.2460 C.2   501  NAD501      0.0633
@<TRIPOS>BOND
     1    32    31    1
     2    34    33    1
     3    31    33    1
     4    31    29    1
     5    33    35    1
     6    29    30    1
     7    29    28    1
     8    35    30    1
     9    35    36    1
    10    44    36    1
    11    44    43    2
    12    28    27    1
    13    36    37    1
    14    43    42    1
    15    27    24    1
    16    37    38    1
    17     2     1    2
    18    42    38    2
    19    23    24    1
    20    23     1    1
    21    38    39    1
    22    24    25    2
    23    24    26    1
    24     1     3    1
    25     1     4    1
    26     5     4    1
    27     5     6    1
    28    39    41   am
    29    39    40    2
    30     6     7    1
    31     6     8    1
    32     7    12    1
    33    14    15    1
    34    14    13    1
    35    15    16    2
    36     8    10    1
    37     8     9    1
    38    13    12    1
    39    13    22    1
    40    12    10    1
    41    10    11    1
    42    16    22    1
    43    16    17    1
    44    22    21    2
    45    18    17    1
    46    17    19    2
    47    21    20    1
    48    19    20    1
