@<TRIPOS>MOLECULE
4h0v_LAR_B_1.pdb
 29 31 0 0 0
SMALL
GASTEIGER

@<TRIPOS>ATOM
      1  S1        10.1930  -36.0300   29.7150 S.3   403  LAR403     -0.0192
      2  N1         8.1400  -35.3130   28.4910 N.2   403  LAR403     -0.1932
      3  O1         6.5070  -38.5890   25.0100 O.2   403  LAR403     -0.2449
      4  O2         8.5990  -37.8380   24.3450 O.3   403  LAR403     -0.4490
      5  O3        10.1450  -34.8510   25.4870 O.3   403  LAR403     -0.3329
      6  O4         9.9450  -36.8590   26.6670 O.3   403  LAR403     -0.1930
      7  O5         7.7850  -36.5500   30.3340 O.2   403  LAR403     -0.2155
      8  C1         7.6160  -38.8960   24.5970 C.2   403  LAR403      0.3407
      9  C2         7.9080  -40.3340   24.3540 C.2   403  LAR403      0.0734
     10  C3         9.0610  -40.8510   23.8770 C.2   403  LAR403     -0.0372
     11  C4        10.2840  -40.0420   23.5200 C.3   403  LAR403      0.0269
     12  C5        10.0090  -39.3410   22.2090 C.3   403  LAR403      0.0304
     13  C6        11.1770  -39.5560   21.2800 C.2   403  LAR403     -0.0258
     14  C7        12.3700  -38.9580   21.2280 C.2   403  LAR403     -0.0049
     15  C8        13.0290  -37.8560   21.9380 C.2   403  LAR403     -0.0049
     16  C9        12.6630  -37.1690   23.0220 C.2   403  LAR403     -0.0265
     17  C10       13.5700  -36.0430   23.5000 C.3   403  LAR403      0.0221
     18  C11       12.8240  -34.8380   24.0820 C.3   403  LAR403      0.0068
     19  C12       11.4240  -34.7090   23.4710 C.3   403  LAR403      0.0301
     20  C13       10.3830  -35.5070   24.2520 C.3   403  LAR403      0.1214
     21  C14        9.0670  -35.6200   23.4920 C.3   403  LAR403      0.0734
     22  C15        8.0970  -36.4870   24.2860 C.3   403  LAR403      0.1766
     23  C16        7.9620  -35.8840   25.6860 C.3   403  LAR403      0.1048
     24  C17        9.3130  -35.6100   26.3590 C.3   403  LAR403      0.2448
     25  C18        9.1820  -34.7850   27.6360 C.3   403  LAR403      0.1810
     26  C19       10.4590  -34.8010   28.4760 C.3   403  LAR403      0.1042
     27  C20        8.5410  -35.9890   29.5530 C.1   403  LAR403      0.1790
     28  C21        9.1540  -42.3310   23.6710 C.3   403  LAR403      0.0266
     29  C22       14.2680  -35.5770   22.2060 C.3   403  LAR403      0.0047
@<TRIPOS>BOND
     1    14    13    2
     2    14    15    1
     3    13    12    1
     4    15    16    2
     5    29    17    1
     6    12    11    1
     7    16    17    1
     8    19    18    1
     9    19    20    1
    10    21    20    1
    11    21    22    1
    12    17    18    1
    13    11    10    1
    14    28    10    1
    15    10     9    2
    16    20     5    1
    17    22     4    1
    18    22    23    1
    19     4     8    1
    20     9     8    1
    21     8     3    2
    22     5    24    1
    23    23    24    1
    24    24     6    1
    25    24    25    1
    26    25    26    1
    27    25     2    1
    28    26     1    1
    29     2    27    2
    30    27     1    1
    31    27     7    2
