@<TRIPOS>MOLECULE
4h0v_ATP_B_1.pdb
 31 33 0 0 0
SMALL
GASTEIGER

@<TRIPOS>ATOM
      1  PG        -0.5900  -32.1600   25.1150 P.3   402  ATP402      0.5373
      2  O1G       -0.3120  -30.9480   24.2600 O.2   402  ATP402     -0.2221
      3  O2G       -0.4590  -31.8950   26.6050 O.3   402  ATP402     -0.1143
      4  O3G       -1.8480  -32.9140   24.7450 O.3   402  ATP402     -0.1143
      5  PB         0.7450  -34.3540   23.7120 P.3   402  ATP402      0.2277
      6  O1B        2.1570  -34.3840   23.1610 O.3   402  ATP402     -0.4368
      7  O2B       -0.4330  -34.3100   22.7650 O.2   402  ATP402     -0.5168
      8  O3B        0.6630  -33.1440   24.7980 O.3   402  ATP402     -0.2258
      9  PA         0.2520  -37.1210   24.2860 P.3   402  ATP402      0.2189
     10  O1A       -1.2330  -37.3560   24.4320 O.3   402  ATP402     -0.4371
     11  O2A        0.9420  -37.4280   22.9730 O.2   402  ATP402     -0.5170
     12  O3A        0.5740  -35.6020   24.7230 O.3   402  ATP402     -0.2700
     13  O5'        0.9700  -37.9710   25.4570 O.3   402  ATP402     -0.3112
     14  C5'        2.3560  -37.8370   25.7910 C.3   402  ATP402      0.1813
     15  C4'        2.5080  -37.7900   27.3090 C.3   402  ATP402      0.1821
     16  O4'        1.8520  -38.9260   27.8670 O.3   402  ATP402     -0.3135
     17  C3'        3.9590  -37.8470   27.7710 C.3   402  ATP402      0.2184
     18  O3'        4.1440  -37.0860   28.9700 O.3   402  ATP402     -0.2174
     19  C2'        4.1750  -39.3120   28.0560 C.3   402  ATP402      0.2570
     20  O2'        5.2170  -39.5550   29.0100 O.3   402  ATP402     -0.2130
     21  C1'        2.8060  -39.6910   28.5940 C.3   402  ATP402      0.3186
     22  N9         2.5550  -41.1300   28.4380 N.pl3 402  ATP402     -0.1439
     23  C8         2.5990  -41.8400   27.2970 C.3   402  ATP402      0.3377
     24  N7         2.3230  -43.1420   27.5440 N.2   402  ATP402     -0.2095
     25  C5         2.0950  -43.2530   28.8620 C.2   402  ATP402      0.2526
     26  C6         1.7560  -44.3440   29.7910 C.2   402  ATP402      0.4393
     27  N6         1.5960  -45.6010   29.3320 N.pl3 402  ATP402      0.2180
     28  N1         1.6060  -44.0480   31.1010 N.2   402  ATP402      0.0021
     29  C2         1.7660  -42.7960   31.5700 C.3   402  ATP402      0.5254
     30  N3         2.0800  -41.7500   30.7830 N.2   402  ATP402     -0.0055
     31  C4         2.2500  -41.9210   29.4510 C.2   402  ATP402      0.3518
@<TRIPOS>BOND
     1     7     5    2
     2    11     9    2
     3     6     5    1
     4     5    12    1
     5     5     8    1
     6     2     1    2
     7     9    10    1
     8     9    12    1
     9     9    13    1
    10     4     1    1
    11     8     1    1
    12     1     3    1
    13    13    14    1
    14    14    15    1
    15    23    24    1
    16    23    22    1
    17    15    17    1
    18    15    16    1
    19    24    25    2
    20    17    19    1
    21    17    18    1
    22    16    21    1
    23    19    21    1
    24    19    20    1
    25    22    21    1
    26    22    31    1
    27    25    31    1
    28    25    26    1
    29    27    26    1
    30    31    30    2
    31    26    28    2
    32    30    29    1
    33    28    29    1
