@<TRIPOS>MOLECULE
4h0w_NTA_A_1.pdb
 13 12 0 0 0
SMALL
GASTEIGER

@<TRIPOS>ATOM
      1  N1        47.9120   14.4920    8.2140 N.3   706  NTA706     -0.2440
      2  C6        48.6850   13.2570    7.9300 C.3   706  NTA706      0.1886
      3  C10       46.4870   14.1740    8.4680 C.3   706  NTA706      0.1886
      4  C2        48.4850   15.3910    9.2540 C.3   706  NTA706      0.1886
      5  C7        50.0960   13.2300    8.4730 C.2   706  NTA706      0.3809
      6  O8        50.4980   12.1940    9.0500 O.co2 706  NTA706     -0.2441
      7  O9        50.8160   14.2410    8.3340 O.co2 706  NTA706     -0.2441
      8  C3        47.5160   15.8530   10.3330 C.2   706  NTA706      0.3809
      9  C11       46.2170   12.8010    9.0600 C.2   706  NTA706      0.3809
     10  O12       45.2990   12.1400    8.5160 O.co2 706  NTA706     -0.2441
     11  O13       46.8800   12.3900   10.0550 O.co2 706  NTA706     -0.2441
     12  O4        47.2240   15.0690   11.2690 O.co2 706  NTA706     -0.2441
     13  O5        47.0480   17.0090   10.2620 O.co2 706  NTA706     -0.2441
@<TRIPOS>BOND
     1     2     1    1
     2     2     5    1
     3     1     3    1
     4     1     4    1
     5     7     5   ar
     6     3     9    1
     7     5     6   ar
     8    10     9   ar
     9     9    11   ar
    10     4     8    1
    11    13     8   ar
    12     8    12   ar
