@<TRIPOS>MOLECULE
4h0x_ATP_B_1.pdb
 31 33 0 0 0
SMALL
GASTEIGER

@<TRIPOS>ATOM
      1  PG        -0.6700  -32.5290   25.2020 P.3   402  ATP402      0.5373
      2  O1G       -0.4270  -31.2620   24.4160 O.2   402  ATP402     -0.2221
      3  O2G       -0.5330  -32.3420   26.6970 O.3   402  ATP402     -0.1143
      4  O3G       -1.9220  -33.2740   24.7940 O.3   402  ATP402     -0.1143
      5  PB         0.6430  -34.6880   23.7510 P.3   402  ATP402      0.2277
      6  O1B        2.0470  -34.7260   23.1870 O.3   402  ATP402     -0.4368
      7  O2B       -0.5340  -34.6390   22.8060 O.2   402  ATP402     -0.5168
      8  O3B        0.5920  -33.4710   24.8230 O.3   402  ATP402     -0.2258
      9  PA         0.1300  -37.4520   24.3460 P.3   402  ATP402      0.2189
     10  O1A       -1.3590  -37.6430   24.4890 O.3   402  ATP402     -0.4371
     11  O2A        0.8150  -37.7880   23.0360 O.2   402  ATP402     -0.5170
     12  O3A        0.4880  -35.9340   24.7630 O.3   402  ATP402     -0.2700
     13  O5'        0.8210  -38.3020   25.5290 O.3   402  ATP402     -0.3112
     14  C5'        2.2230  -38.1450   25.8170 C.3   402  ATP402      0.1813
     15  C4'        2.4120  -38.2330   27.3270 C.3   402  ATP402      0.1821
     16  O4'        1.7920  -39.4170   27.8360 O.3   402  ATP402     -0.3135
     17  C3'        3.8860  -38.2960   27.6930 C.3   402  ATP402      0.2184
     18  O3'        4.1230  -37.5020   28.8620 O.3   402  ATP402     -0.2174
     19  C2'        4.0980  -39.7590   28.0130 C.3   402  ATP402      0.2570
     20  O2'        5.1370  -39.9530   28.9830 O.3   402  ATP402     -0.2130
     21  C1'        2.7510  -40.1710   28.5720 C.3   402  ATP402      0.3186
     22  N9         2.5050  -41.6100   28.3830 N.pl3 402  ATP402     -0.1439
     23  C8         2.5460  -42.2910   27.2230 C.3   402  ATP402      0.3377
     24  N7         2.2640  -43.6010   27.4250 N.2   402  ATP402     -0.2095
     25  C5         2.0330  -43.7580   28.7410 C.2   402  ATP402      0.2526
     26  C6         1.6840  -44.8850   29.6310 C.2   402  ATP402      0.4393
     27  N6         1.5160  -46.1370   29.1400 N.pl3 402  ATP402      0.2180
     28  N1         1.5340  -44.6180   30.9490 N.2   402  ATP402      0.0021
     29  C2         1.6960  -43.3800   31.4600 C.3   402  ATP402      0.5254
     30  N3         2.0160  -42.3100   30.7090 N.2   402  ATP402     -0.0055
     31  C4         2.1940  -42.4400   29.3700 C.2   402  ATP402      0.3518
@<TRIPOS>BOND
     1     7     5    2
     2    11     9    2
     3     6     5    1
     4     5    12    1
     5     5     8    1
     6     9    10    1
     7     9    12    1
     8     9    13    1
     9     2     1    2
    10     4     1    1
    11     8     1    1
    12     1     3    1
    13    13    14    1
    14    14    15    1
    15    23    24    1
    16    23    22    1
    17    15    17    1
    18    15    16    1
    19    24    25    2
    20    17    19    1
    21    17    18    1
    22    16    21    1
    23    19    21    1
    24    19    20    1
    25    22    21    1
    26    22    31    1
    27    25    31    1
    28    25    26    1
    29    27    26    1
    30    31    30    2
    31    26    28    2
    32    30    29    1
    33    28    29    1
