@<TRIPOS>MOLECULE
4h0x_NAD_A_1.pdb
 44 48 0 0 0
SMALL
GASTEIGER

@<TRIPOS>ATOM
      1  PA         2.1670  -16.3270   38.9220 P.3   501  NAD501      0.2189
      2  O1A        2.7550  -16.8570   37.6340 O.2   501  NAD501     -0.5170
      3  O2A        1.9660  -14.8440   39.1240 O.3   501  NAD501     -0.4371
      4  O5B        3.0670  -16.8280   40.1510 O.3   501  NAD501     -0.3112
      5  C5B        3.6530  -18.1270   40.1430 C.3   501  NAD501      0.1813
      6  C4B        4.3560  -18.3480   41.4760 C.3   501  NAD501      0.1821
      7  O4B        5.2350  -17.2520   41.7410 O.3   501  NAD501     -0.3135
      8  C3B        3.3630  -18.3990   42.6250 C.3   501  NAD501      0.2184
      9  O3B        3.8450  -19.3600   43.5740 O.3   501  NAD501     -0.2174
     10  C2B        3.4200  -17.0080   43.2320 C.3   501  NAD501      0.2570
     11  O2B        3.1440  -17.0300   44.6370 O.3   501  NAD501     -0.2130
     12  C1B        4.8620  -16.6160   42.9670 C.3   501  NAD501      0.3186
     13  N9A        5.0890  -15.1530   42.8970 N.pl3 501  NAD501     -0.1439
     14  C8A        4.5470  -14.2510   42.0540 C.3   501  NAD501      0.3377
     15  N7A        5.0260  -13.0030   42.3110 N.2   501  NAD501     -0.2095
     16  C5A        5.8960  -13.1080   43.3360 C.2   501  NAD501      0.2526
     17  C6A        6.7670  -12.2000   44.1290 C.2   501  NAD501      0.4393
     18  N6A        6.8080  -10.8720   43.8690 N.pl3 501  NAD501      0.2180
     19  N1A        7.5200  -12.7360   45.1230 N.2   501  NAD501      0.0021
     20  C2A        7.4980  -14.0540   45.4080 C.3   501  NAD501      0.5254
     21  N3A        6.7330  -14.9310   44.7340 N.2   501  NAD501     -0.0055
     22  C4A        5.9310  -14.5280   43.7130 C.2   501  NAD501      0.3518
     23  O3         0.7830  -17.0950   39.1990 O.3   501  NAD501     -0.2703
     24  PN        -0.5850  -16.5760   38.5270 P.3   501  NAD501      0.2189
     25  O1N       -0.3230  -15.2970   37.7650 O.2   501  NAD501     -0.5170
     26  O2N       -1.6480  -16.5890   39.5970 O.3   501  NAD501     -0.4371
     27  O5D       -0.9170  -17.7620   37.4880 O.3   501  NAD501     -0.3112
     28  C5D       -0.5930  -17.6420   36.1040 C.3   501  NAD501      0.1813
     29  C4D       -1.7720  -17.0750   35.3170 C.3   501  NAD501      0.1799
     30  O4D       -2.9010  -16.7750   36.1530 O.3   501  NAD501     -0.3327
     31  C3D       -1.3940  -15.7790   34.6090 C.3   501  NAD501      0.2158
     32  O3D       -1.5210  -15.9570   33.1910 O.3   501  NAD501     -0.2175
     33  C2D       -2.3920  -14.7500   35.1090 C.3   501  NAD501      0.2309
     34  O2D       -2.8280  -13.8830   34.0570 O.3   501  NAD501     -0.2158
     35  C1D       -3.5410  -15.5960   35.6430 C.3   501  NAD501      0.2263
     36  N1N       -4.4390  -14.9050   36.5990 N.pl3 501  NAD501     -0.2787
     37  C2N       -4.4480  -15.2150   37.9100 C.3   501  NAD501      0.1244
     38  C3N       -5.3130  -14.5620   38.7930 C.2   501  NAD501      0.0544
     39  C7N       -5.3100  -14.9170   40.2500 C.2   501  NAD501      0.2818
     40  O7N       -4.2410  -15.0710   40.8360 O.2   501  NAD501     -0.2670
     41  N7N       -6.4800  -15.0720   40.8710 N.am  501  NAD501     -0.0839
     42  C4N       -6.1870  -13.5850   38.3200 C.2   501  NAD501      0.0033
     43  C5N       -6.1700  -13.2840   36.9640 C.2   501  NAD501      0.0157
     44  C6N       -5.2860  -13.9670   36.1290 C.2   501  NAD501      0.0633
@<TRIPOS>BOND
     1    32    31    1
     2    34    33    1
     3    31    33    1
     4    31    29    1
     5    33    35    1
     6    29    28    1
     7    29    30    1
     8    35    30    1
     9    35    36    1
    10    28    27    1
    11    44    36    1
    12    44    43    2
    13    36    37    1
    14    43    42    1
    15    27    24    1
    16     2     1    2
    17    25    24    2
    18    37    38    1
    19    42    38    2
    20    24    23    1
    21    24    26    1
    22    38    39    1
    23     1     3    1
    24     1    23    1
    25     1     4    1
    26     5     4    1
    27     5     6    1
    28    39    40    2
    29    39    41   am
    30     6     7    1
    31     6     8    1
    32     7    12    1
    33    14    15    1
    34    14    13    1
    35    15    16    2
    36     8    10    1
    37     8     9    1
    38    13    12    1
    39    13    22    1
    40    12    10    1
    41    10    11    1
    42    16    22    1
    43    16    17    1
    44    22    21    2
    45    18    17    1
    46    17    19    2
    47    21    20    1
    48    19    20    1
