@<TRIPOS>MOLECULE
4h0x_LAR_B_1.pdb
 29 31 0 0 0
SMALL
GASTEIGER

@<TRIPOS>ATOM
      1  S1        10.1030  -36.3930   29.7810 S.3   403  LAR403     -0.0192
      2  N1         8.0370  -35.7540   28.5030 N.2   403  LAR403     -0.1932
      3  O1         6.5850  -39.0590   24.7550 O.2   403  LAR403     -0.2449
      4  O2         8.7240  -38.2650   24.3680 O.3   403  LAR403     -0.4490
      5  O3        10.1750  -35.2790   25.5660 O.3   403  LAR403     -0.3329
      6  O4         9.8970  -37.2970   26.7530 O.3   403  LAR403     -0.1930
      7  O5         7.7350  -37.1710   30.2200 O.2   403  LAR403     -0.2155
      8  C1         7.7140  -39.3320   24.3710 C.2   403  LAR403      0.3407
      9  C2         7.9910  -40.7330   23.9470 C.2   403  LAR403      0.0734
     10  C3         9.1180  -41.2870   23.4430 C.2   403  LAR403     -0.0375
     11  C4        10.4170  -40.5460   23.2280 C.3   403  LAR403      0.0222
     12  C5        10.7870  -40.2140   21.7810 C.3   403  LAR403      0.0043
     13  C6        11.7200  -39.0810   22.0940 C.3   403  LAR403      0.0003
     14  C7        12.7120  -38.4880   21.4460 C.3   403  LAR403      0.0000
     15  C8        13.1000  -37.5040   22.4380 C.3   403  LAR403      0.0000
     16  C9        13.8480  -36.4170   22.4770 C.3   403  LAR403      0.0000
     17  C10       13.7540  -35.9120   23.9100 C.3   403  LAR403      0.0001
     18  C11       12.8140  -34.7060   24.0750 C.3   403  LAR403      0.0025
     19  C12       11.3980  -34.8930   23.4990 C.3   403  LAR403      0.0298
     20  C13       10.4750  -35.8340   24.2820 C.3   403  LAR403      0.1214
     21  C14        9.1780  -36.0570   23.4970 C.3   403  LAR403      0.0734
     22  C15        8.1910  -36.9310   24.2740 C.3   403  LAR403      0.1766
     23  C16        7.9710  -36.3230   25.6650 C.3   403  LAR403      0.1048
     24  C17        9.2890  -36.0420   26.4010 C.3   403  LAR403      0.2448
     25  C18        9.0830  -35.2020   27.6690 C.3   403  LAR403      0.1810
     26  C19       10.3450  -35.1620   28.5330 C.3   403  LAR403      0.1042
     27  C20        8.4620  -36.4810   29.5240 C.1   403  LAR403      0.1790
     28  C21        9.0770  -42.7530   23.1120 C.3   403  LAR403      0.0266
     29  C22       15.1280  -35.7940   24.5680 C.3   403  LAR403      0.0000
@<TRIPOS>BOND
     1    14    13    1
     2    14    15    1
     3    12    13    1
     4    12    11    1
     5    15    16    1
     6    16    17    1
     7    28    10    1
     8    11    10    1
     9    10     9    2
    10    21    22    1
    11    21    20    1
    12    19    18    1
    13    19    20    1
    14    17    18    1
    15    17    29    1
    16     9     8    1
    17    22     4    1
    18    22    23    1
    19    20     5    1
    20     4     8    1
    21     8     3    2
    22     5    24    1
    23    23    24    1
    24    24     6    1
    25    24    25    1
    26    25     2    1
    27    25    26    1
    28     2    27    2
    29    26     1    1
    30    27     1    1
    31    27     7    2
