@<TRIPOS>MOLECULE
4h0y_NAD_A_1.pdb
 44 48 0 0 0
SMALL
GASTEIGER

@<TRIPOS>ATOM
      1  PA         2.2960  -15.0140   39.0950 P.3   501  NAD501      0.2189
      2  O1A        3.1460  -14.9410   37.8480 O.2   501  NAD501     -0.5170
      3  O2A        1.6670  -13.7670   39.6760 O.3   501  NAD501     -0.4371
      4  O5B        3.1410  -15.7320   40.2720 O.3   501  NAD501     -0.3112
      5  C5B        3.9950  -16.8530   40.0240 C.3   501  NAD501      0.1813
      6  C4B        4.6460  -17.2690   41.3390 C.3   501  NAD501      0.1821
      7  O4B        5.4870  -16.2170   41.8120 O.3   501  NAD501     -0.3135
      8  C3B        3.6350  -17.5090   42.4500 C.3   501  NAD501      0.2184
      9  O3B        4.1150  -18.5150   43.3550 O.3   501  NAD501     -0.2174
     10  C2B        3.5410  -16.1740   43.1640 C.3   501  NAD501      0.2570
     11  O2B        3.1390  -16.3140   44.5300 O.3   501  NAD501     -0.2130
     12  C1B        4.9790  -15.7080   43.0550 C.3   501  NAD501      0.3186
     13  N9A        5.2030  -14.2510   43.0530 N.pl3 501  NAD501     -0.1439
     14  C8A        4.6970  -13.3480   42.1920 C.3   501  NAD501      0.3377
     15  N7A        5.1620  -12.1080   42.4870 N.2   501  NAD501     -0.2095
     16  C5A        5.9880  -12.2260   43.5410 C.2   501  NAD501      0.2526
     17  C6A        6.8100  -11.3080   44.3540 C.2   501  NAD501      0.4393
     18  N6A        6.8200   -9.9840   44.0650 N.pl3 501  NAD501      0.2180
     19  N1A        7.5310  -11.8410   45.3740 N.2   501  NAD501      0.0021
     20  C2A        7.5160  -13.1640   45.6580 C.3   501  NAD501      0.5254
     21  N3A        6.7870  -14.0490   44.9520 N.2   501  NAD501     -0.0055
     22  C4A        6.0210  -13.6450   43.9060 C.2   501  NAD501      0.3518
     23  O3         1.1980  -16.1690   38.8730 O.3   501  NAD501     -0.2703
     24  PN        -0.4010  -15.9960   38.9810 P.3   501  NAD501      0.2189
     25  O1N       -0.7860  -14.5310   39.1060 O.2   501  NAD501     -0.5170
     26  O2N       -0.9210  -17.0230   39.9870 O.3   501  NAD501     -0.4371
     27  O5D       -0.8070  -16.5630   37.5420 O.3   501  NAD501     -0.3112
     28  C5D       -0.6460  -15.7330   36.4140 C.3   501  NAD501      0.1813
     29  C4D       -1.7320  -16.1460   35.4410 C.3   501  NAD501      0.1799
     30  O4D       -3.0250  -16.1400   36.0620 O.3   501  NAD501     -0.3327
     31  C3D       -1.7400  -15.0660   34.3950 C.3   501  NAD501      0.2158
     32  O3D       -2.2100  -15.5880   33.1490 O.3   501  NAD501     -0.2175
     33  C2D       -2.7170  -14.0730   34.9880 C.3   501  NAD501      0.2309
     34  O2D       -3.2950  -13.2260   33.9890 O.3   501  NAD501     -0.2158
     35  C1D       -3.7560  -14.9770   35.6430 C.3   501  NAD501      0.2263
     36  N1N       -4.4940  -14.3150   36.7380 N.pl3 501  NAD501     -0.2787
     37  C2N       -4.2800  -14.6050   38.0390 C.3   501  NAD501      0.1244
     38  C3N       -5.0040  -13.9620   39.0530 C.2   501  NAD501      0.0544
     39  C7N       -4.7890  -14.2650   40.5160 C.2   501  NAD501      0.2818
     40  O7N       -5.6860  -14.0140   41.3040 O.2   501  NAD501     -0.2670
     41  N7N       -3.6520  -14.8070   40.9570 N.am  501  NAD501     -0.0839
     42  C4N       -5.9670  -13.0190   38.6980 C.2   501  NAD501      0.0033
     43  C5N       -6.1770  -12.7400   37.3550 C.2   501  NAD501      0.0157
     44  C6N       -5.4220  -13.4100   36.3930 C.2   501  NAD501      0.0633
@<TRIPOS>BOND
     1    32    31    1
     2    34    33    1
     3    31    33    1
     4    31    29    1
     5    33    35    1
     6    29    30    1
     7    29    28    1
     8    35    30    1
     9    35    36    1
    10    44    36    1
    11    44    43    2
    12    28    27    1
    13    36    37    1
    14    43    42    1
    15    27    24    1
    16     2     1    2
    17    37    38    1
    18    42    38    2
    19    23    24    1
    20    23     1    1
    21    24    25    2
    22    24    26    1
    23    38    39    1
    24     1     3    1
    25     1     4    1
    26     5     4    1
    27     5     6    1
    28    39    41   am
    29    39    40    2
    30     6     7    1
    31     6     8    1
    32     7    12    1
    33    14    15    1
    34    14    13    1
    35     8    10    1
    36     8     9    1
    37    15    16    2
    38    13    12    1
    39    13    22    1
    40    12    10    1
    41    10    11    1
    42    16    22    1
    43    16    17    1
    44    22    21    2
    45    18    17    1
    46    17    19    2
    47    21    20    1
    48    19    20    1
