@<TRIPOS>MOLECULE
4h0y_LAR_B_1.pdb
 29 31 0 0 0
SMALL
GASTEIGER

@<TRIPOS>ATOM
      1  S1        10.2220  -35.9870   29.8180 S.3   403  LAR403     -0.0192
      2  N1         8.1480  -35.4230   28.5570 N.2   403  LAR403     -0.1932
      3  O1         6.5380  -38.6440   24.9530 O.2   403  LAR403     -0.2449
      4  O2         8.6090  -37.8480   24.2860 O.3   403  LAR403     -0.4490
      5  O3        10.2090  -34.9570   25.5480 O.3   403  LAR403     -0.3329
      6  O4         9.9320  -36.9480   26.7340 O.3   403  LAR403     -0.1930
      7  O5         7.8430  -36.6300   30.4310 O.2   403  LAR403     -0.2155
      8  C1         7.6480  -38.9220   24.5160 C.2   403  LAR403      0.3407
      9  C2         7.9710  -40.3530   24.2430 C.2   403  LAR403      0.0734
     10  C3         9.0950  -40.8680   23.6780 C.2   403  LAR403     -0.0375
     11  C4        10.3270  -40.1050   23.2760 C.3   403  LAR403      0.0222
     12  C5        10.4810  -39.6870   21.7960 C.3   403  LAR403      0.0043
     13  C6        11.5570  -38.6840   22.0660 C.3   403  LAR403      0.0003
     14  C7        12.6000  -38.1450   21.4310 C.3   403  LAR403      0.0000
     15  C8        13.1130  -37.2770   22.4690 C.3   403  LAR403      0.0000
     16  C9        13.9510  -36.2660   22.5850 C.3   403  LAR403      0.0000
     17  C10       13.8610  -35.7660   24.0280 C.3   403  LAR403      0.0001
     18  C11       12.8690  -34.6040   24.2270 C.3   403  LAR403      0.0025
     19  C12       11.5000  -34.7380   23.5290 C.3   403  LAR403      0.0298
     20  C13       10.4620  -35.5730   24.2870 C.3   403  LAR403      0.1214
     21  C14        9.1310  -35.6470   23.5310 C.3   403  LAR403      0.0734
     22  C15        8.1250  -36.4960   24.3040 C.3   403  LAR403      0.1766
     23  C16        7.9840  -35.9370   25.7240 C.3   403  LAR403      0.1048
     24  C17        9.3300  -35.6830   26.4120 C.3   403  LAR403      0.2448
     25  C18        9.1660  -34.8580   27.6910 C.3   403  LAR403      0.1810
     26  C19       10.4490  -34.8090   28.5220 C.3   403  LAR403      0.1042
     27  C20        8.5720  -36.0440   29.6410 C.1   403  LAR403      0.1790
     28  C21        9.2020  -42.3470   23.4970 C.3   403  LAR403      0.0266
     29  C22       15.2250  -35.5050   24.6580 C.3   403  LAR403      0.0000
@<TRIPOS>BOND
     1    14    13    1
     2    14    15    1
     3    12    13    1
     4    12    11    1
     5    15    16    1
     6    16    17    1
     7    11    10    1
     8    28    10    1
     9    19    18    1
    10    19    20    1
    11    21    20    1
    12    21    22    1
    13    10     9    2
    14    17    18    1
    15    17    29    1
    16     9     8    1
    17     4    22    1
    18     4     8    1
    19    20     5    1
    20    22    23    1
    21     8     3    2
    22     5    24    1
    23    23    24    1
    24    24     6    1
    25    24    25    1
    26    25    26    1
    27    25     2    1
    28    26     1    1
    29     2    27    2
    30    27     1    1
    31    27     7    2
