@<TRIPOS>MOLECULE
4h0y_ATP_B_1.pdb
 31 33 0 0 0
SMALL
GASTEIGER

@<TRIPOS>ATOM
      1  PG        -0.5460  -32.1480   25.1750 P.3   402  ATP402      0.5373
      2  O1G       -0.2710  -30.9310   24.3270 O.2   402  ATP402     -0.2221
      3  O2G       -0.4120  -31.8970   26.6620 O.3   402  ATP402     -0.1143
      4  O3G       -1.8060  -32.8960   24.7970 O.3   402  ATP402     -0.1143
      5  PB         0.7760  -34.3450   23.7830 P.3   402  ATP402      0.2277
      6  O1B        2.1890  -34.4050   23.2450 O.3   402  ATP402     -0.4368
      7  O2B       -0.3900  -34.2870   22.8260 O.2   402  ATP402     -0.5168
      8  O3B        0.7090  -33.1230   24.8510 O.3   402  ATP402     -0.2258
      9  PA         0.2550  -37.1030   24.3560 P.3   402  ATP402      0.2189
     10  O1A       -1.2370  -37.3240   24.4580 O.3   402  ATP402     -0.4371
     11  O2A        0.9930  -37.4190   23.0740 O.2   402  ATP402     -0.5170
     12  O3A        0.5690  -35.5830   24.7960 O.3   402  ATP402     -0.2700
     13  O5'        0.9240  -37.9390   25.5610 O.3   402  ATP402     -0.3112
     14  C5'        2.3130  -37.8280   25.8690 C.3   402  ATP402      0.1813
     15  C4'        2.4940  -37.8210   27.3800 C.3   402  ATP402      0.1821
     16  O4'        1.8730  -38.9870   27.9300 O.3   402  ATP402     -0.3135
     17  C3'        3.9580  -37.8660   27.7890 C.3   402  ATP402      0.2184
     18  O3'        4.1790  -37.0760   28.9630 O.3   402  ATP402     -0.2174
     19  C2'        4.1980  -39.3240   28.0970 C.3   402  ATP402      0.2570
     20  O2'        5.2500  -39.5320   29.0470 O.3   402  ATP402     -0.2130
     21  C1'        2.8480  -39.7310   28.6560 C.3   402  ATP402      0.3186
     22  N9         2.5960  -41.1690   28.4990 N.pl3 402  ATP402     -0.1439
     23  C8         2.6430  -41.8700   27.3540 C.3   402  ATP402      0.3377
     24  N7         2.3550  -43.1720   27.5860 N.2   402  ATP402     -0.2095
     25  C5         2.1130  -43.2930   28.9000 C.2   402  ATP402      0.2526
     26  C6         1.7570  -44.3950   29.8130 C.2   402  ATP402      0.4393
     27  N6         1.5870  -45.6550   29.3580 N.pl3 402  ATP402      0.2180
     28  N1         1.5990  -44.0940   31.1170 N.2   402  ATP402      0.0021
     29  C2         1.7620  -42.8470   31.6020 C.3   402  ATP402      0.5254
     30  N3         2.0910  -41.7910   30.8330 N.2   402  ATP402     -0.0055
     31  C4         2.2730  -41.9640   29.5020 C.2   402  ATP402      0.3518
@<TRIPOS>BOND
     1     7     5    2
     2    11     9    2
     3     6     5    1
     4     5    12    1
     5     5     8    1
     6     2     1    2
     7     9    10    1
     8     9    12    1
     9     9    13    1
    10     4     1    1
    11     8     1    1
    12     1     3    1
    13    13    14    1
    14    14    15    1
    15    23    24    1
    16    23    22    1
    17    15    17    1
    18    15    16    1
    19    24    25    2
    20    17    19    1
    21    17    18    1
    22    16    21    1
    23    19    21    1
    24    19    20    1
    25    22    21    1
    26    22    31    1
    27    25    31    1
    28    25    26    1
    29    27    26    1
    30    31    30    2
    31    26    28    2
    32    30    29    1
    33    28    29    1
