@<TRIPOS>MOLECULE
4h0z_AMU_A_1.pdb
 20 20 0 0 0
SMALL
GASTEIGER

@<TRIPOS>ATOM
      1  C1       -14.5960  -19.5470   -6.1080 C.3   302  AMU302      0.2916
      2  C2       -15.0240  -20.9950   -5.8330 C.3   302  AMU302      0.1839
      3  C3       -14.6170  -22.0130   -6.9380 C.3   302  AMU302      0.1735
      4  C4       -14.7910  -21.4490   -8.3760 C.3   302  AMU302      0.2103
      5  C5       -14.0990  -20.0820   -8.5000 C.3   302  AMU302      0.1834
      6  C6       -14.3850  -19.4840   -9.8810 C.3   302  AMU302      0.2142
      7  C7       -13.2720  -21.4110   -4.0460 C.2   302  AMU302      0.2420
      8  C8       -13.1010  -22.0160   -2.6450 C.3   302  AMU302      0.0964
      9  C9       -16.7900  -23.3700   -6.7700 C.3   302  AMU302      0.2178
     10  C10      -17.1950  -24.8360   -6.9360 C.2   302  AMU302      0.3913
     11  C11      -17.4690  -22.8200   -5.5040 C.3   302  AMU302      0.0444
     12  O1       -15.5060  -18.7080   -5.3920 O.3   302  AMU302     -0.1879
     13  O3       -15.3300  -23.2990   -6.7270 O.3   302  AMU302     -0.3429
     14  O4       -14.2800  -22.3800   -9.3720 O.3   302  AMU302     -0.2178
     15  O5       -14.6690  -19.1640   -7.5340 O.3   302  AMU302     -0.3242
     16  O6       -13.1990  -18.9890  -10.5150 O.3   302  AMU302     -0.2176
     17  O7       -12.3110  -20.9230   -4.6500 O.2   302  AMU302     -0.2733
     18  O10      -17.1920  -25.2680   -8.1110 O.co2 302  AMU302     -0.2430
     19  O11      -17.4890  -25.4890   -5.8960 O.co2 302  AMU302     -0.2430
     20  N2       -14.5370  -21.4790   -4.5150 N.am  302  AMU302     -0.1993
@<TRIPOS>BOND
     1    16     6    1
     2     6     5    1
     3    14     4    1
     4     5     4    1
     5     5    15    1
     6     4     3    1
     7    18    10   ar
     8    15     1    1
     9     3    13    1
    10     3     2    1
    11    10     9    1
    12    10    19   ar
    13     9    13    1
    14     9    11    1
    15     1     2    1
    16     1    12    1
    17     2    20    1
    18    17     7    2
    19    20     7   am
    20     7     8    1
