@<TRIPOS>MOLECULE
4h0z_NAG_A_1.pdb
 14 14 0 0 0
SMALL
GASTEIGER

@<TRIPOS>ATOM
      1  C1       -41.5300  -12.8870    4.3470 C.3   301  NAG301      0.1665
      2  C2       -41.6590  -12.7260    5.8570 C.3   301  NAG301      0.1576
      3  C3       -42.2250  -11.3570    6.2150 C.3   301  NAG301      0.2069
      4  C4       -41.4970  -10.2510    5.4600 C.3   301  NAG301      0.2134
      5  C5       -41.3820  -10.5860    3.9780 C.3   301  NAG301      0.1809
      6  C6       -40.5850   -9.5180    3.2370 C.3   301  NAG301      0.2141
      7  C7       -41.9980  -14.8730    6.9350 C.2   301  NAG301      0.2420
      8  C8       -42.9800  -15.8790    7.4580 C.3   301  NAG301      0.0964
      9  N2       -42.5090  -13.7700    6.3960 N.am  301  NAG301     -0.2019
     10  O3       -42.0950  -11.1430    7.6020 O.3   301  NAG301     -0.2184
     11  O4       -42.1990   -9.0370    5.6140 O.3   301  NAG301     -0.2176
     12  O5       -40.7470  -11.8360    3.8270 O.3   301  NAG301     -0.3489
     13  O6       -39.5150   -9.0850    4.0460 O.3   301  NAG301     -0.2176
     14  O7       -40.7890  -15.0830    7.0130 O.2   301  NAG301     -0.2733
@<TRIPOS>BOND
     1     6     5    1
     2     6    13    1
     3    12     5    1
     4    12     1    1
     5     5     4    1
     6     1     2    1
     7     4    11    1
     8     4     3    1
     9     2     3    1
    10     2     9    1
    11     3    10    1
    12     9     7   am
    13     7    14    2
    14     7     8    1
