@<TRIPOS>MOLECULE
4h12_SAH_A_1.pdb
 26 28 0 0 0
SMALL
GASTEIGER

@<TRIPOS>ATOM
      1  N         -3.4920   26.4220   20.4500 N.3   1804  SAH1804    -0.1208
      2  CA        -4.4130   25.5570   19.6400 C.3   1804  SAH1804     0.1952
      3  CB        -3.6200   24.3880   19.0470 C.3   1804  SAH1804     0.0422
      4  CG        -2.7600   24.8680   17.8650 C.3   1804  SAH1804     0.0597
      5  SD        -3.8390   25.0810   16.4840 S.3   1804  SAH1804    -0.1375
      6  C         -5.5790   25.0680   20.4710 C.2   1804  SAH1804     0.3819
      7  O         -6.3620   24.2030   20.0430 O.co2 1804  SAH1804    -0.2441
      8  OXT       -5.7920   25.5130   21.6140 O.co2 1804  SAH1804    -0.2441
      9  C5'       -3.2770   26.6000   15.7800 C.3   1804  SAH1804     0.0899
     10  C4'       -4.0010   27.7930   16.3950 C.3   1804  SAH1804     0.1630
     11  O4'       -3.5550   28.0490   17.7210 O.3   1804  SAH1804    -0.3153
     12  C3'       -3.7550   29.1030   15.6550 C.3   1804  SAH1804     0.2168
     13  O3'       -4.7540   29.2240   14.6390 O.3   1804  SAH1804    -0.2175
     14  C2'       -3.8980   30.1570   16.7430 C.3   1804  SAH1804     0.2569
     15  O2'       -5.3000   30.4020   16.9600 O.3   1804  SAH1804    -0.2130
     16  C1'       -3.2970   29.4350   17.9280 C.3   1804  SAH1804     0.3185
     17  N9        -1.8240   29.6300   17.9500 N.pl3 1804  SAH1804    -0.1439
     18  C8        -0.8720   28.7010   17.7070 C.3   1804  SAH1804     0.3377
     19  N7         0.3710   29.2370   17.8110 N.2   1804  SAH1804    -0.2095
     20  C5         0.2190   30.5440   18.1390 C.2   1804  SAH1804     0.2526
     21  C6         1.0930   31.7240   18.3940 C.2   1804  SAH1804     0.4393
     22  N6         2.4420   31.6410   18.3670 N.pl3 1804  SAH1804     0.2180
     23  N1         0.5070   32.9120   18.6830 N.2   1804  SAH1804     0.0021
     24  C2        -0.8190   33.0420   18.7410 C.3   1804  SAH1804     0.5254
     25  N3        -1.6720   32.0390   18.5180 N.2   1804  SAH1804    -0.0055
     26  C4        -1.2230   30.7890   18.2100 C.2   1804  SAH1804     0.3518
@<TRIPOS>BOND
     1    13    12    1
     2    12    10    1
     3    12    14    1
     4     9    10    1
     5     9     5    1
     6    10    11    1
     7     5     4    1
     8    14    15    1
     9    14    16    1
    10    18    19    1
    11    18    17    1
    12    11    16    1
    13    19    20    2
    14     4     3    1
    15    16    17    1
    16    17    26    1
    17    20    26    1
    18    20    21    1
    19    26    25    2
    20    22    21    1
    21    21    23    2
    22    25    24    1
    23    23    24    1
    24     3     2    1
    25     2     1    1
    26     2     6    1
    27     7     6   ar
    28     6     8   ar
