@<TRIPOS>MOLECULE
4h19_0YR_A_1.pdb
 12 11 0 0 0
SMALL
GASTEIGER

@<TRIPOS>ATOM
      1  CAG      -22.6740   -8.6430 -115.9210 C.3   410  0YR410      0.2175
      2  NAH      -20.9710   -9.0790 -121.9510 N.am  410  0YR410     -0.2003
      3  CAI      -20.9370   -9.6990 -120.7390 C.2   410  0YR410      0.1201
      4  CAJ      -21.9410   -8.1670 -117.1880 C.3   410  0YR410      0.2178
      5  CAK      -21.1800   -8.6980 -119.5220 C.3   410  0YR410      0.2292
      6  CAL      -21.6580   -9.3450 -118.2190 C.3   410  0YR410      0.2210
      7  OAB      -21.8490   -9.7370 -115.3410 O.3   410  0YR410     -0.2175
      8  OAD      -20.6380   -7.6750 -116.7720 O.3   410  0YR410     -0.2175
      9  OAF      -22.8080  -10.1780 -118.5330 O.3   410  0YR410     -0.2171
     10  OAE      -19.8820   -8.1450 -119.2260 O.3   410  0YR410     -0.2134
     11  OAA      -20.6120  -10.9030 -120.5960 O.2   410  0YR410     -0.5373
     12  OAC      -20.5370   -9.8330 -123.0580 O.3   410  0YR410     -0.4026
@<TRIPOS>BOND
     1    12     2    1
     2     2     3   am
     3     3    11    2
     4     3     5    1
     5     5    10    1
     6     5     6    1
     7     9     6    1
     8     6     4    1
     9     4     8    1
    10     4     1    1
    11     1     7    1
