@<TRIPOS>MOLECULE
4h1e_10J_A_1.pdb
 33 37 0 0 0
SMALL
GASTEIGER

@<TRIPOS>ATOM
      1  C1        21.2890   10.4510   21.3730 C.3   501  10J501      0.2009
      2  C2        20.6780   11.7260   22.0090 C.3   501  10J501      0.1553
      3  N3        22.4000   11.3990   23.8450 N.am  501  10J501     -0.1395
      4  C4        22.3550   10.0100   23.6130 C.2   501  10J501      0.4490
      5  C5        21.5860   12.3130   23.1020 C.2   501  10J501      0.2924
      6  N6        21.6710    9.5780   22.4710 N.2   501  10J501     -0.0957
      7  N7        18.9010   10.3740   21.4430 N.am  501  10J501     -0.2716
      8  C8        22.4340   10.7420   20.4360 C.ar  501  10J501      0.0452
      9  C9        20.0420    9.8310   20.6890 C.3   501  10J501      0.1387
     10  C10       17.6260    9.8650   21.2580 C.2   501  10J501      0.2491
     11  C11       19.3400   11.2520   22.5220 C.3   501  10J501      0.1083
     12  C12       23.7820   10.5090   20.6280 C.ar  501  10J501      0.0060
     13  C13       24.6180   10.9170   19.5580 C.ar  501  10J501      0.0068
     14  S14       22.2100   11.4320   18.8810 S.2   501  10J501     -0.0874
     15  C15       23.8680   11.4350   18.5130 C.ar  501  10J501      0.0352
     16  C16       28.1540   10.3130   20.6990 C.ar  501  10J501      0.0684
     17  C17       16.6140   10.1430   22.2860 C.ar  501  10J501      0.0536
     18  C18       26.0600   10.7850   19.5220 C.ar  501  10J501      0.0012
     19  N19       29.3610    9.7120   22.8720 N.1   501  10J501     -0.1908
     20  C20       28.8210    9.9810   21.8990 C.1   501  10J501      0.1004
     21  N21       22.8030    9.1180   24.4450 N.pl3 501  10J501      0.1440
     22  C22       26.7480   10.4420   20.7190 C.ar  501  10J501      0.0103
     23  O23       21.5390   13.5390   23.2410 O.2   501  10J501     -0.2563
     24  C24       28.8860   10.4860   19.5030 C.ar  501  10J501      0.0103
     25  O25       17.3020    9.2510   20.2320 O.2   501  10J501     -0.2699
     26  C26       16.7120    9.6640   23.6340 C.ar  501  10J501      0.0045
     27  C27       26.8120   10.9480   18.3090 C.ar  501  10J501      0.0001
     28  C28       28.2100   10.7880   18.2930 C.ar  501  10J501      0.0007
     29  C29       23.2970   11.9490   24.9150 C.3   501  10J501      0.2161
     30  C30       15.6840    9.9910   24.5510 C.ar  501  10J501      0.0001
     31  C31       15.4970   10.9560   21.8370 C.ar  501  10J501      0.0045
     32  C32       14.4800   11.2520   22.7490 C.ar  501  10J501      0.0001
     33  C33       14.5640   10.7600   24.1080 C.ar  501  10J501      0.0000
@<TRIPOS>BOND
     1    28    27   ar
     2    28    24   ar
     3    27    18   ar
     4    15    14   ar
     5    15    13   ar
     6    14     8   ar
     7    24    16   ar
     8    18    13    1
     9    18    22   ar
    10    13    12   ar
    11    25    10    2
    12     8    12   ar
    13     8     1    1
    14     9     1    1
    15     9     7    1
    16    16    22   ar
    17    16    20    1
    18    10     7   am
    19    10    17    1
    20     1     2    1
    21     1     6    1
    22     7    11    1
    23    31    17   ar
    24    31    32   ar
    25    20    19    3
    26     2    11    1
    27     2     5    1
    28    17    26   ar
    29     6     4    2
    30    32    33   ar
    31     5    23    2
    32     5     3   am
    33     4     3    1
    34     4    21    1
    35    26    30   ar
    36     3    29    1
    37    33    30   ar
