@<TRIPOS>MOLECULE
4h1g_ADP_A_1.pdb
 27 29 0 0 0
SMALL
GASTEIGER

@<TRIPOS>ATOM
      1  PB        27.2930  -29.0310   10.1480 P.3   703  ADP703      0.5373
      2  O1B       26.5720  -28.8600   11.4620 O.3   703  ADP703     -0.1143
      3  O2B       26.9810  -27.9780    9.1070 O.2   703  ADP703     -0.2221
      4  O3B       28.7750  -29.2920   10.2930 O.3   703  ADP703     -0.1143
      5  PA        26.3450  -30.7370    8.0560 P.3   703  ADP703      0.2231
      6  O1A       25.0560  -30.0290    7.6900 O.3   703  ADP703     -0.4370
      7  O2A       27.5960  -30.4510    7.2640 O.2   703  ADP703     -0.5169
      8  O3A       26.7030  -30.4350    9.6070 O.3   703  ADP703     -0.2261
      9  O5'       26.0680  -32.3210    8.1070 O.3   703  ADP703     -0.3111
     10  C5'       27.1410  -33.2530    7.9510 C.3   703  ADP703      0.1813
     11  C4'       26.7100  -34.3590    6.9950 C.3   703  ADP703      0.1821
     12  O4'       25.5840  -35.0570    7.5210 O.3   703  ADP703     -0.3135
     13  C3'       26.2990  -33.7570    5.6630 C.3   703  ADP703      0.2184
     14  O3'       27.0550  -34.3820    4.6180 O.3   703  ADP703     -0.2174
     15  C2'       24.8150  -34.0470    5.5190 C.3   703  ADP703      0.2570
     16  O2'       24.5120  -34.5510    4.2160 O.3   703  ADP703     -0.2130
     17  C1'       24.5020  -35.0880    6.5800 C.3   703  ADP703      0.3186
     18  N9        23.2490  -34.7610    7.3080 N.pl3 703  ADP703     -0.1439
     19  C8        23.0850  -33.7210    8.1500 C.3   703  ADP703      0.3377
     20  N7        21.8360  -33.6970    8.6780 N.2   703  ADP703     -0.2095
     21  C5        21.1650  -34.7420    8.1600 C.2   703  ADP703      0.2526
     22  C6        19.7960  -35.3030    8.2910 C.2   703  ADP703      0.4393
     23  N6        18.8660  -34.7290    9.0960 N.pl3 703  ADP703      0.2180
     24  N1        19.5120  -36.4160    7.5790 N.2   703  ADP703      0.0021
     25  C2        20.4220  -37.0000    6.7760 C.3   703  ADP703      0.5254
     26  N3        21.6750  -36.5440    6.6080 N.2   703  ADP703     -0.0055
     27  C4        22.1020  -35.4410    7.2610 C.2   703  ADP703      0.3518
@<TRIPOS>BOND
     1    16    15    1
     2    14    13    1
     3    15    13    1
     4    15    17    1
     5    13    11    1
     6    17    18    1
     7    17    12    1
     8    26    25    1
     9    26    27    2
    10    25    24    1
    11    11    12    1
    12    11    10    1
    13    27    18    1
    14    27    21    1
    15     7     5    2
    16    18    19    1
    17    24    22    2
    18     6     5    1
    19    10     9    1
    20     5     9    1
    21     5     8    1
    22    19    20    1
    23    21    22    1
    24    21    20    2
    25    22    23    1
    26     3     1    2
    27     8     1    1
    28     1     4    1
    29     1     2    1
