@<TRIPOS>MOLECULE
4h1g_MTT_A_1.pdb
 45 48 0 0 0
SMALL
GASTEIGER

@<TRIPOS>ATOM
      1  O14       12.4130    4.1590   26.8080 O.3   701  MTT701     -0.2176
      2  C14       12.5600    3.2960   27.9090 C.3   701  MTT701      0.2144
      3  C13       12.1730    3.9610   29.0910 C.3   701  MTT701      0.2198
      4  O13       13.0880    5.0350   29.3060 O.3   701  MTT701     -0.2174
      5  C12       12.2280    3.0670   30.2600 C.3   701  MTT701      0.2406
      6  O12       11.7670    3.7710   31.3490 O.3   701  MTT701     -0.2149
      7  C11       11.3860    1.8280   30.0710 C.3   701  MTT701      0.2695
      8  C15       11.7050    2.0870   27.6660 C.3   701  MTT701      0.1835
      9  O15       11.6530    1.1920   28.8460 O.3   701  MTT701     -0.3256
     10  C16       12.1970    1.2950   26.5150 C.3   701  MTT701      0.2142
     11  O16       13.4050    0.6590   26.6680 O.3   701  MTT701     -0.2176
     12  O24       10.0120    2.1650   30.2990 O.3   701  MTT701     -0.3257
     13  C24        9.0810    1.0390   30.4220 C.3   701  MTT701      0.1804
     14  C23        8.9110    0.7230   31.8750 C.3   701  MTT701      0.2167
     15  O23       10.1000    0.1340   32.3640 O.3   701  MTT701     -0.2175
     16  C22        7.8800   -0.2120   32.1260 C.3   701  MTT701      0.2404
     17  O22        7.7390   -0.3300   33.5020 O.3   701  MTT701     -0.2149
     18  C21        6.5870    0.2880   31.5590 C.3   701  MTT701      0.2695
     19  C25        7.7660    1.3660   29.7630 C.3   701  MTT701      0.1803
     20  O25        6.7320    0.4830   30.0930 O.3   701  MTT701     -0.3257
     21  C26        7.8690    1.4060   28.2460 C.3   701  MTT701      0.2141
     22  O26        6.7470    1.9250   27.5530 O.3   701  MTT701     -0.2176
     23  O34        6.1300    1.5380   32.1080 O.3   701  MTT701     -0.3257
     24  C34        4.6910    1.6730   32.3980 C.3   701  MTT701      0.1804
     25  C33        4.5530    1.8510   33.8750 C.3   701  MTT701      0.2167
     26  O33        4.9710    0.6370   34.4630 O.3   701  MTT701     -0.2175
     27  C32        3.2330    2.2390   34.2630 C.3   701  MTT701      0.2404
     28  O32        3.1840    2.3260   35.6970 O.3   701  MTT701     -0.2149
     29  C31        2.8380    3.5030   33.5890 C.3   701  MTT701      0.2695
     30  C35        4.0900    2.8280   31.6500 C.3   701  MTT701      0.1803
     31  O35        2.8260    3.2080   32.1390 O.3   701  MTT701     -0.3257
     32  C36        4.0360    2.6230   30.1160 C.3   701  MTT701      0.2141
     33  O36        3.9240    3.7950   29.3540 O.3   701  MTT701     -0.2176
     34  O44        3.7170    4.5770   33.8360 O.3   701  MTT701     -0.3257
     35  C44        3.1080    5.8480   34.1230 C.3   701  MTT701      0.1804
     36  C43        3.0580    6.0740   35.5510 C.3   701  MTT701      0.2168
     37  O43        2.1660    5.1330   36.1720 O.3   701  MTT701     -0.2175
     38  C42        2.5650    7.3720   35.8960 C.3   701  MTT701      0.2433
     39  O42        2.6940    7.5110   37.3090 O.3   701  MTT701     -0.2148
     40  C41        3.3460    8.4540   35.2300 C.3   701  MTT701      0.3023
     41  O41        4.6250    8.4910   35.7160 O.3   701  MTT701     -0.1869
     42  C45        3.9360    6.9420   33.4880 C.3   701  MTT701      0.1804
     43  O45        3.4900    8.2360   33.7990 O.3   701  MTT701     -0.3237
     44  C46        4.0100    6.8060   31.9800 C.3   701  MTT701      0.2141
     45  O46        5.1030    7.4230   31.3720 O.3   701  MTT701     -0.2176
@<TRIPOS>BOND
     1    10    11    1
     2    10     8    1
     3     1     2    1
     4    22    21    1
     5     8     2    1
     6     8     9    1
     7     2     3    1
     8    21    19    1
     9     9     7    1
    10     3     4    1
    11     3     5    1
    12    33    32    1
    13    19    20    1
    14    19    13    1
    15     7     5    1
    16     7    12    1
    17    20    18    1
    18    32    30    1
    19     5     6    1
    20    12    13    1
    21    13    14    1
    22    45    44    1
    23    18    23    1
    24    18    16    1
    25    30    31    1
    26    30    24    1
    27    14    16    1
    28    14    15    1
    29    44    42    1
    30    23    24    1
    31    16    17    1
    32    31    29    1
    33    24    25    1
    34    42    43    1
    35    42    35    1
    36    29    34    1
    37    29    27    1
    38    43    40    1
    39    34    35    1
    40    25    27    1
    41    25    26    1
    42    35    36    1
    43    27    28    1
    44    40    41    1
    45    40    38    1
    46    36    38    1
    47    36    37    1
    48    38    39    1
