@<TRIPOS>MOLECULE
4h1j_0YH_A_1.pdb
 34 37 0 0 0
SMALL
GASTEIGER

@<TRIPOS>ATOM
      1  C1        -9.4640    0.9050   17.0560 C.3   701  0YH701      0.0310
      2  C2        -0.1920   -7.4860   11.7500 C.3   701  0YH701      0.0312
      3  C3        -7.4180    2.3900    8.0780 C.3   701  0YH701      0.0060
      4  C4        -4.9570    1.9950    7.8880 C.3   701  0YH701      0.0060
      5  C5        -5.8120    3.7630    9.4080 C.3   701  0YH701      0.0060
      6  C6         0.9480  -10.5010    7.7840 C.3   701  0YH701      0.2525
      7  C7        -7.5360    0.1640   15.6210 C.ar  701  0YH701     -0.0027
      8  C8        -9.3820    1.3300   14.5790 C.ar  701  0YH701     -0.0027
      9  C9        -6.8730    0.0930   14.3920 C.ar  701  0YH701      0.0189
     10  C10       -8.7470    1.2270   13.3460 C.ar  701  0YH701      0.0189
     11  C11       -2.3060   -8.7890    8.2250 C.ar  701  0YH701      0.0369
     12  C12       -2.9340   -7.8970    9.0800 C.ar  701  0YH701      0.0041
     13  C13       -0.3630   -8.7860    9.6590 C.ar  701  0YH701      0.0327
     14  C14       -3.8690   -5.4380   10.7500 C.3   701  0YH701      0.1736
     15  C15       -5.9210    0.0370   10.0700 C.ar  701  0YH701      0.0527
     16  C16       -8.7710    0.7980   15.7150 C.ar  701  0YH701     -0.0218
     17  C17       -0.9840   -7.9080   10.5380 C.ar  701  0YH701     -0.0176
     18  C18       -7.4850    0.6130   13.2460 C.ar  701  0YH701      0.0842
     19  C19       -1.0140   -9.2380    8.4990 C.ar  701  0YH701      0.1384
     20  C20       -2.2870   -7.4430   10.2410 C.ar  701  0YH701      0.0141
     21  C21       -3.0530   -6.5310   11.1350 C.2   701  0YH701      0.1174
     22  C22       -6.2760    1.3910   10.0010 C.ar  701  0YH701      0.0811
     23  C23       -4.3900   -4.9100   11.8920 C.2   701  0YH701      0.3794
     24  C24       -6.2990   -0.4470   11.3010 C.ar  701  0YH701      0.1609
     25  C25       -5.2340   -2.6570   11.4270 C.2   701  0YH701      0.4591
     26  C26       -6.0970    2.3650    8.8530 C.3   701  0YH701      0.0372
     27  N27       -3.9400   -5.6460   12.9360 N.2   701  0YH701      0.0797
     28  N28       -3.1300   -6.6560   12.4360 N.2   701  0YH701     -0.0383
     29  N29       -6.8510    1.7060   11.1360 N.ar  701  0YH701     -0.1683
     30  N30       -5.2730   -3.8470   12.0580 N.am  701  0YH701      0.0505
     31  N31       -6.1630   -1.7520   11.8010 N.am  701  0YH701     -0.1181
     32  N32       -6.8700    0.5960   11.9850 N.ar  701  0YH701     -0.2145
     33  O33       -4.4050   -2.4250   10.5670 O.2   701  0YH701     -0.2173
     34  O34       -0.4230  -10.1010    7.6150 O.3   701  0YH701     -0.4714
@<TRIPOS>BOND
     1    34     6    1
     2    34    19    1
     3     4    26    1
     4     3    26    1
     5    11    19   ar
     6    11    12   ar
     7    19    13   ar
     8    26     5    1
     9    26    22    1
    10    12    20   ar
    11    13    17   ar
    12    22    15   ar
    13    22    29   ar
    14    15    24   ar
    15    20    17   ar
    16    20    21    1
    17    17     2    1
    18    33    25    2
    19    14    21    1
    20    14    23    1
    21    21    28    2
    22    29    32   ar
    23    24    31    1
    24    24    32   ar
    25    25    31   am
    26    25    30   am
    27    23    30    1
    28    23    27    2
    29    32    18    1
    30    28    27    1
    31    18    10   ar
    32    18     9   ar
    33    10     8   ar
    34     9     7   ar
    35     8    16   ar
    36     7    16   ar
    37    16     1    1
