@<TRIPOS>MOLECULE
4h1m_0YJ_A_1.pdb
 35 38 0 0 0
SMALL
GASTEIGER

@<TRIPOS>ATOM
      1  C1        -7.6650    0.4220   18.0770 C.3   701  0YJ701      0.0310
      2  C2         1.4650   -5.5380   17.8870 C.3   701  0YJ701      0.0234
      3  C3         1.5140   -8.0420   17.6230 C.3   701  0YJ701      0.0234
      4  C4        -7.0130    2.6060    9.0150 C.3   701  0YJ701      0.0060
      5  C5        -4.9140    1.6070    8.2010 C.3   701  0YJ701      0.0060
      6  C6        -4.8720    3.4050    9.9310 C.3   701  0YJ701      0.0060
      7  C7        -3.2640   -6.9730   10.4550 C.ar  701  0YJ701      0.0015
      8  C8        -2.3840   -7.4880   11.3770 C.ar  701  0YJ701      0.0027
      9  C9        -4.0580   -5.8630   10.7630 C.ar  701  0YJ701      0.0192
     10  C10       -6.0170   -0.1210   16.2730 C.ar  701  0YJ701     -0.0027
     11  C11       -8.1360    0.8760   15.6480 C.ar  701  0YJ701     -0.0027
     12  C12       -5.6310   -0.1660   14.9410 C.ar  701  0YJ701      0.0189
     13  C13       -7.7580    0.8180   14.3170 C.ar  701  0YJ701      0.0189
     14  C14       -1.5180   -7.1850   13.8080 C.2   701  0YJ701      0.0394
     15  C15       -5.3900   -0.1930   10.5990 C.ar  701  0YJ701      0.0527
     16  C16       -7.2640    0.3940   16.6210 C.ar  701  0YJ701     -0.0218
     17  C17       -6.5010    0.3030   13.9580 C.ar  701  0YJ701      0.0842
     18  C18       -2.2870   -6.9030   12.6550 C.ar  701  0YJ701      0.0336
     19  C19       -3.9630   -5.2630   12.0160 C.ar  701  0YJ701      0.1044
     20  C20       -1.8360   -6.2690   14.7570 C.2   701  0YJ701      0.1862
     21  C21       -5.7190    1.1650   10.5890 C.ar  701  0YJ701      0.0811
     22  C22       -5.6200   -0.6860   11.8530 C.ar  701  0YJ701      0.1587
     23  C23       -3.0850   -5.7880   12.9720 C.ar  701  0YJ701      0.1469
     24  C24        0.6380   -6.7910   17.5970 C.3   701  0YJ701      0.0958
     25  C25       -1.2620   -6.1940   16.0970 C.2   701  0YJ701      0.2945
     26  C26       -4.7090   -2.9470   11.7730 C.2   701  0YJ701      0.3492
     27  C27       -5.6180    2.1610    9.4430 C.3   701  0YJ701      0.0372
     28  N28       -2.7990   -5.4200   14.2620 N.2   701  0YJ701     -0.3959
     29  N29       -6.1220    1.4620   11.7920 N.ar  701  0YJ701     -0.1683
     30  N30       -4.7250   -4.1530   12.3950 N.am  701  0YJ701     -0.1581
     31  N31       -5.4800   -1.9940   12.3210 N.am  701  0YJ701     -0.1418
     32  N32       -0.0410   -6.7470   16.2990 N.am  701  0YJ701     -0.2013
     33  N33       -6.1050    0.3320   12.6040 N.ar  701  0YJ701     -0.2145
     34  O34       -1.8650   -5.5980   16.9800 O.2   701  0YJ701     -0.2656
     35  O35       -4.0460   -2.7260   10.7650 O.2   701  0YJ701     -0.2484
@<TRIPOS>BOND
     1     5    27    1
     2     4    27    1
     3    27     6    1
     4    27    21    1
     5     7     9   ar
     6     7     8   ar
     7    21    15   ar
     8    21    29   ar
     9    15    22   ar
    10     9    19   ar
    11    35    26    2
    12     8    18   ar
    13    26    31   am
    14    26    30   am
    15    29    33   ar
    16    22    31    1
    17    22    33   ar
    18    19    30    1
    19    19    23   ar
    20    33    17    1
    21    18    23   ar
    22    18    14    2
    23    23    28    2
    24    14    20    1
    25    17    13   ar
    26    17    12   ar
    27    28    20    2
    28    13    11   ar
    29    20    25    1
    30    12    10   ar
    31    11    16   ar
    32    25    32   am
    33    25    34    2
    34    10    16   ar
    35    32    24    1
    36    16     1    1
    37    24     3    1
    38    24     2    1
