@<TRIPOS>MOLECULE
4h1n_CGE_A_1.pdb
 21 23 0 0 0
SMALL
GASTEIGER

@<TRIPOS>ATOM
      1  C        -21.9120   28.6060   -9.3020 C.2   505  CGE505      0.3361
      2  N        -22.3190   26.1400   -8.9980 N.3   505  CGE505     -0.2573
      3  O        -22.9200   29.1600   -9.7080 O.2   505  CGE505     -0.2482
      4 CL1       -23.1560   28.5640   -5.7700 Cl    505  CGE505     -0.0825
      5  CA       -22.0280   27.4460   -8.3420 C.3   505  CGE505      0.1815
      6  CAA      -20.5270   30.2900  -10.3940 C.3   505  CGE505      0.2557
      7  CAD      -19.4190   27.4470   -4.8850 C.ar  505  CGE505      0.0008
      8  CAE      -18.9700   26.9490   -6.1020 C.ar  505  CGE505     -0.0002
      9  CAF      -25.3840   22.3110   -9.5400 C.ar  505  CGE505      0.0348
     10  CAG      -20.7160   27.9400   -4.8120 C.ar  505  CGE505      0.0111
     11  CAH      -19.8020   26.9450   -7.2160 C.ar  505  CGE505     -0.0016
     12  CAI      -25.1890   23.6400   -8.8880 C.ar  505  CGE505      0.0042
     13  CAJ      -21.5430   23.8580   -9.7880 C.3   505  CGE505      0.0500
     14  CAK      -21.1910   25.1740   -9.0940 C.3   505  CGE505      0.0783
     15  CAL      -23.4770   25.4770   -8.3370 C.3   505  CGE505      0.1000
     16  OAM      -20.7180   29.0270   -9.7080 O.3   505  CGE505     -0.4432
     17  SAN      -23.6910   22.0230  -10.1230 S.2   505  CGE505     -0.0910
     18  CAP      -21.5430   27.9330   -5.9290 C.ar  505  CGE505      0.0555
     19  CAQ      -23.8280   24.1600   -8.9890 C.ar  505  CGE505     -0.0036
     20  CAR      -22.9210   23.4770   -9.5540 C.ar  505  CGE505      0.0060
     21  CAS      -21.1010   27.4360   -7.1500 C.ar  505  CGE505      0.0135
@<TRIPOS>BOND
     1     6    16    1
     2    17    20   ar
     3    17     9   ar
     4    13    20    1
     5    13    14    1
     6     3     1    2
     7    16     1    1
     8    20    19   ar
     9     9    12   ar
    10     1     5    1
    11    14     2    1
    12     2     5    1
    13     2    15    1
    14    19    12   ar
    15    19    15    1
    16     5    21    1
    17    11    21   ar
    18    11     8   ar
    19    21    18   ar
    20     8     7   ar
    21    18     4    1
    22    18    10   ar
    23     7    10   ar
