@<TRIPOS>MOLECULE
4h1n_CM5_A_1.pdb
 12 12 0 0 0
SMALL
GASTEIGER

@<TRIPOS>ATOM
      1  C7       -10.6970   19.5080    6.9130 C.3   503  CM5503      0.0000
      2  C8       -10.9960   20.6380    5.9160 C.3   503  CM5503      0.0000
      3  C9       -10.8610   20.1480    4.4660 C.3   503  CM5503      0.0000
      4  C10      -10.4000   18.6870    4.4100 C.3   503  CM5503      0.0000
      5  C11       -9.1140   18.4660    5.2300 C.3   503  CM5503      0.0000
      6  C6        -9.2730   18.9580    6.6830 C.3   503  CM5503      0.0000
      7  C5        -8.9320   17.8190    7.6720 C.3   503  CM5503      0.0000
      8  C4        -8.7370   18.3510    9.1090 C.3   503  CM5503      0.0001
      9  C3        -7.2860   18.8070    9.3500 C.3   503  CM5503      0.0027
     10  C2        -6.7420   18.2180   10.6580 C.3   503  CM5503      0.0355
     11  C1        -6.7190   19.2970   11.7460 C.3   503  CM5503      0.1821
     12  O12       -5.5290   19.1670   12.5330 O.3   503  CM5503     -0.2204
@<TRIPOS>BOND
     1     4     3    1
     2     4     5    1
     3     3     2    1
     4     5     6    1
     5     2     1    1
     6     6     1    1
     7     6     7    1
     8     7     8    1
     9     8     9    1
    10     9    10    1
    11    10    11    1
    12    11    12    1
