@<TRIPOS>MOLECULE
4h1n_HEM_A_1.pdb
 43 50 0 0 0
SMALL
GASTEIGER

@<TRIPOS>ATOM
      1  CHA      -20.7780   33.9080  -10.9380 C.2   501  HEM501      0.0000
      2  CHB      -23.0060   35.3410   -6.8850 C.2   501  HEM501      0.0000
      3  CHC      -27.2710   34.9080   -9.1130 C.2   501  HEM501      0.0000
      4  CHD      -25.0170   33.9750  -13.3060 C.2   501  HEM501      0.0000
      5  C1A      -21.0200   34.3120   -9.6500 C.2   501  HEM501      0.0000
      6  C2A      -20.0160   34.4920   -8.6260 C.2   501  HEM501      0.0000
      7  C3A      -20.6270   34.8800   -7.5090 C.2   501  HEM501      0.0000
      8  C4A      -22.0410   34.9700   -7.7870 C.2   501  HEM501      0.0000
      9  CMA      -19.9480   35.1900   -6.1580 C.3   501  HEM501      0.0000
     10  CAA      -18.4990   34.2610   -8.7830 C.3   501  HEM501      0.0000
     11  CBA      -17.8600   35.3210   -9.6680 C.3   501  HEM501      0.0000
     12  CGA      -16.3900   35.0050   -9.7100 C.2   501  HEM501      0.0000
     13  O1A      -15.9200   34.5120  -10.7640 O.co2 501  HEM501      0.0000
     14  O2A      -15.6890   35.2250   -8.6860 O.co2 501  HEM501      0.0000
     15  C1B      -24.3650   35.3170   -7.1050 C.ar  501  HEM501      0.0000
     16  C2B      -25.4050   35.5710   -6.1190 C.ar  501  HEM501      0.0000
     17  C3B      -26.5800   35.4500   -6.7420 C.ar  501  HEM501      0.0000
     18  C4B      -26.3280   35.1170   -8.1340 C.ar  501  HEM501      0.0000
     19  CMB      -25.1850   35.9200   -4.6240 C.3   501  HEM501      0.0000
     20  CAB      -27.9720   35.6310   -6.1040 C.2   501  HEM501      0.0000
     21  CBB      -28.3270   36.8280   -5.6300 C.2   501  HEM501      0.0000
     22  C1C      -27.0260   34.6730  -10.4460 C.2   501  HEM501      0.0000
     23  C2C      -28.0300   34.6330  -11.4940 C.2   501  HEM501      0.0000
     24  C3C      -27.3960   34.3690  -12.6520 C.2   501  HEM501      0.0000
     25  C4C      -25.9820   34.2430  -12.3650 C.2   501  HEM501      0.0000
     26  CMC      -29.5480   34.8620  -11.2700 C.3   501  HEM501      0.0000
     27  CAC      -27.9830   34.2290  -14.0760 C.2   501  HEM501      0.0000
     28  CBC      -29.2460   33.8650  -14.2900 C.2   501  HEM501      0.0000
     29  C1D      -23.6820   33.7760  -13.0790 C.ar  501  HEM501      0.0000
     30  C2D      -22.7200   33.2460  -14.0310 C.ar  501  HEM501      0.0000
     31  C3D      -21.3870   33.2220  -13.2720 C.ar  501  HEM501      0.0000
     32  C4D      -21.6900   33.7450  -11.9530 C.ar  501  HEM501      0.0000
     33  CMD      -22.9570   32.7910  -15.4930 C.3   501  HEM501      0.0000
     34  CAD      -20.0200   32.7520  -13.8170 C.3   501  HEM501      0.0000
     35  CBD      -19.3070   33.9910  -14.3500 C.3   501  HEM501      0.0000
     36  CGD      -18.1320   33.6430  -15.2240 C.2   501  HEM501      0.0000
     37  O1D      -18.0500   34.1960  -16.3510 O.co2 501  HEM501      0.0000
     38  O2D      -17.2730   32.8280  -14.7970 O.co2 501  HEM501      0.0000
     39  NA       -22.2450   34.6150   -9.1050 N.2   501  HEM501      0.0000
     40  NB       -24.9680   35.0430   -8.3190 N.ar  501  HEM501      0.0000
     41  NC       -25.7930   34.4280  -11.0150 N.2   501  HEM501      0.0000
     42  ND       -23.0440   34.0560  -11.8820 N.ar  501  HEM501      0.0000
     43 FE        -24.0530   34.4930  -10.0800 Fe    501  HEM501      0.0000
@<TRIPOS>BOND
     1    37    36   ar
     2    33    30    1
     3    36    38   ar
     4    36    35    1
     5    35    34    1
     6    28    27    2
     7    27    24    1
     8    30    31   ar
     9    30    29   ar
    10    34    31    1
    11     4    29    2
    12     4    25    1
    13    31    32   ar
    14    29    42   ar
    15    24    25    1
    16    24    23    2
    17    25    41    2
    18    32    42   ar
    19    32     1    2
    20    42    43    1
    21    23    26    1
    22    23    22    1
    23    41    22    1
    24    41    43    1
    25     1     5    1
    26    13    12   ar
    27    22     3    2
    28    43    39    1
    29    43    40    1
    30    12    11    1
    31    12    14   ar
    32    11    10    1
    33     5    39    2
    34     5     6    1
    35     3    18    1
    36    39     8    1
    37    10     6    1
    38     6     7    2
    39    40    18   ar
    40    40    15   ar
    41    18    17   ar
    42     8     7    1
    43     8     2    2
    44     7     9    1
    45    15     2    1
    46    15    16   ar
    47    17    16   ar
    48    17    20    1
    49    16    19    1
    50    20    21    2
