@<TRIPOS>MOLECULE
4h1y_0YQ_P_1.pdb
 33 34 0 0 0
SMALL
GASTEIGER

@<TRIPOS>ATOM
      1  O33        5.0400   10.3280   35.2320 O.co2 603  0YQ603     -0.2441
      2  C31        4.9810    9.8120   36.3700 C.2   603  0YQ603      0.3809
      3  O32        4.6820    8.6040   36.5290 O.co2 603  0YQ603     -0.2441
      4  C30        5.2720   10.6520   37.6040 C.3   603  0YQ603      0.1886
      5  N25        5.2320   12.1010   37.3750 N.3   603  0YQ603     -0.2457
      6  C26        6.0610   12.9750   38.1880 C.3   603  0YQ603      0.1886
      7  C27        7.4100   12.3690   38.5290 C.2   603  0YQ603      0.3809
      8  O29        8.2220   12.2350   37.5840 O.co2 603  0YQ603     -0.2441
      9  O28        7.6300   12.0340   39.7200 O.co2 603  0YQ603     -0.2441
     10  C23        4.3070   12.6930   36.3960 C.3   603  0YQ603      0.1610
     11  C22        4.7710   13.8820   35.5590 C.2   603  0YQ603      0.2578
     12  O24        3.9460   14.7470   35.3120 O.2   603  0YQ603     -0.2718
     13  N21        6.0310   13.9480   35.1010 N.am  603  0YQ603     -0.2024
     14  C20        6.4570   14.7920   33.9840 C.3   603  0YQ603      0.1385
     15  C19        7.3600   15.9570   34.3920 C.3   603  0YQ603      0.1386
     16  N17        8.5590   15.5560   35.1220 N.am  603  0YQ603     -0.2014
     17  C16        8.6840   15.4610   36.4690 C.2   603  0YQ603      0.2714
     18  O18        7.8060   15.7570   37.2650 O.2   603  0YQ603     -0.2706
     19  C12        9.9910   14.9330   37.0290 C.3   603  0YQ603      0.2271
     20  C11       10.8250   15.9760   37.8080 C.3   603  0YQ603      0.2223
     21  O15       10.7570   15.8400   39.2380 O.3   603  0YQ603     -0.2171
     22  C10       12.2630   15.6790   37.3940 C.3   603  0YQ603      0.2324
     23  O14       12.8780   14.7190   38.2840 O.3   603  0YQ603     -0.2157
     24  O13       10.8020   14.4970   35.9260 O.3   603  0YQ603     -0.3251
     25  C9        12.1210   15.0630   36.0400 C.3   603  0YQ603      0.2404
     26  N5        12.2920   16.0080   34.9480 N.am  603  0YQ603     -0.1766
     27  C6        11.2690   16.7860   34.4420 C.2   603  0YQ603      0.0929
     28  C1        11.5520   17.6130   33.3730 C.2   603  0YQ603      0.1242
     29  C4        13.5720   16.0710   34.3880 C.1   603  0YQ603      0.2845
     30  O8        14.4670   15.3560   34.9170 O.2   603  0YQ603     -0.1918
     31  N3        13.8440   16.8660   33.3420 N.2   603  0YQ603     -0.2452
     32  C2        12.8420   17.6400   32.8220 C.1   603  0YQ603      0.2182
     33  O7        13.0760   18.4150   31.8520 O.2   603  0YQ603     -0.2085
@<TRIPOS>BOND
     1    33    32    2
     2    32    31    2
     3    32    28    1
     4    31    29    2
     5    28    27    2
     6    14    15    1
     7    14    13    1
     8    29    30    2
     9    29    26   am
    10    15    16    1
    11    27    26    1
    12    26    25    1
    13    13    11   am
    14    16    17   am
    15     1     2   ar
    16    12    11    2
    17    11    10    1
    18    24    25    1
    19    24    19    1
    20    25    22    1
    21     2     3   ar
    22     2     4    1
    23    10     5    1
    24    17    19    1
    25    17    18    2
    26    19    20    1
    27     5     4    1
    28     5     6    1
    29    22    20    1
    30    22    23    1
    31     8     7   ar
    32    20    21    1
    33     6     7    1
    34     7     9   ar
