@<TRIPOS>MOLECULE
4h2b_0XE_A_1.pdb
 32 35 0 0 0
SMALL
GASTEIGER

@<TRIPOS>ATOM
      1  C1         9.1840   19.5720   29.9810 C.ar  603  0XE603      0.0001
      2  C2         9.8700   20.1640   28.9240 C.ar  603  0XE603      0.0000
      3  C3        11.2860   20.1590   28.8590 C.ar  603  0XE603      0.0001
      4  C4        12.0620   19.5550   29.8650 C.ar  603  0XE603      0.0030
      5  C5        11.3760   18.9760   30.9640 C.ar  603  0XE603      0.0341
      6  C6         9.9410   18.9520   30.9740 C.ar  603  0XE603      0.0030
      7  C7        12.0110   18.1810   32.0670 C.2   603  0XE603      0.1424
      8  C8        13.2760   17.5420   31.8870 C.2   603  0XE603      0.0788
      9  C9        13.7320   16.6610   32.8960 C.2   603  0XE603      0.2016
     10  O9        14.8230   15.9470   32.8690 O.2   603  0XE603     -0.2866
     11  O12       11.1440   18.0020   33.1830 O.2   603  0XE603     -0.4699
     12  C11       11.5190   17.1990   34.1920 C.3   603  0XE603      0.2197
     13  C10       12.8440   16.5290   34.0610 C.2   603  0XE603      0.1028
     14  C17       13.2890   15.6360   35.1100 C.2   603  0XE603      0.2401
     15  O17       14.5280   15.1140   34.8920 O.2   603  0XE603     -0.2831
     16  C16       12.4590   15.5070   36.3190 C.2   603  0XE603      0.2675
     17  O16       12.8200   14.7480   37.4250 O.2   603  0XE603     -0.2799
     18  C14       10.7190   17.0750   35.3200 C.2   603  0XE603      0.0618
     19  C15       11.1460   16.2570   36.3510 C.2   603  0XE603      0.1829
     20  O18       10.3690   16.1480   37.4580 O.2   603  0XE603     -0.4473
     21  C18       10.0240   14.9110   38.1190 C.3   603  0XE603      0.3223
     22  O22        8.7870   14.5050   37.5140 O.3   603  0XE603     -0.3067
     23  C22        8.3190   13.2750   38.0900 C.3   603  0XE603      0.2538
     24  C23        7.1710   12.8330   37.2450 C.2   603  0XE603      0.3941
     25  O24        6.7420   13.6560   36.4030 O.co2 603  0XE603     -0.2429
     26  O23        6.7130   11.6810   37.3990 O.co2 603  0XE603     -0.2429
     27  C19        9.9460   15.0330   39.6770 C.3   603  0XE603      0.2542
     28  O19       11.2220   15.0260   40.3330 O.3   603  0XE603     -0.2135
     29  C20        9.1990   13.9040   40.3940 C.3   603  0XE603      0.2216
     30  O20        8.8600   14.3160   41.7380 O.3   603  0XE603     -0.2173
     31  C21        7.9750   13.4640   39.5750 C.3   603  0XE603      0.2230
     32  O21        7.5240   12.2520   40.1330 O.3   603  0XE603     -0.2171
@<TRIPOS>BOND
     1     3     2   ar
     2     3     4   ar
     3     2     1   ar
     4     4     5   ar
     5     1     6   ar
     6     5     6   ar
     7     5     7    1
     8     8     7    2
     9     8     9    1
    10     7    11    1
    11    10     9    1
    12     9    13    2
    13    11    12    1
    14    13    12    1
    15    13    14    1
    16    12    18    1
    17    15    14    1
    18    14    16    2
    19    18    19    2
    20    16    19    1
    21    16    17    1
    22    19    20    1
    23    25    24   ar
    24    24    26   ar
    25    24    23    1
    26    20    21    1
    27    22    23    1
    28    22    21    1
    29    23    31    1
    30    21    27    1
    31    31    32    1
    32    31    29    1
    33    27    28    1
    34    27    29    1
    35    29    30    1
