@<TRIPOS>MOLECULE
4h2f_ADN_A_1.pdb
 19 21 0 0 0
SMALL
GASTEIGER

@<TRIPOS>ATOM
      1  O5'       -6.9400   53.1480  -18.2810 O.3   601  ADN601     -0.2176
      2  C5'       -6.7430   52.5890  -19.6030 C.3   601  ADN601      0.2143
      3  C4'       -5.2000   52.2680  -19.7500 C.3   601  ADN601      0.1851
      4  O4'       -4.8390   51.2630  -18.7740 O.3   601  ADN601     -0.3134
      5  C3'       -4.7900   51.6560  -21.0230 C.3   601  ADN601      0.2186
      6  O3'       -4.6340   52.6460  -22.0600 O.3   601  ADN601     -0.2174
      7  C2'       -3.4610   50.9280  -20.7650 C.3   601  ADN601      0.2570
      8  O2'       -2.3790   51.9030  -20.9240 O.3   601  ADN601     -0.2130
      9  C1'       -3.6480   50.6380  -19.3290 C.3   601  ADN601      0.3186
     10  N9        -3.8520   49.1820  -19.1900 N.pl3 601  ADN601     -0.1439
     11  C8        -5.0820   48.5150  -19.3490 C.3   601  ADN601      0.3377
     12  N7        -4.8930   47.1570  -19.1820 N.2   601  ADN601     -0.2095
     13  C5        -3.5420   46.9660  -18.8760 C.2   601  ADN601      0.2526
     14  C6        -2.6630   45.8070  -18.5220 C.2   601  ADN601      0.4393
     15  N6        -3.1480   44.5370  -18.4640 N.pl3 601  ADN601      0.2180
     16  N1        -1.3520   46.0390  -18.2890 N.2   601  ADN601      0.0021
     17  C2        -0.7610   47.2600  -18.3350 C.3   601  ADN601      0.5254
     18  N3        -1.4790   48.3840  -18.6560 N.2   601  ADN601     -0.0055
     19  C4        -2.8640   48.2980  -18.8850 C.2   601  ADN601      0.3518
@<TRIPOS>BOND
     1     6     5    1
     2     5     7    1
     3     5     3    1
     4     8     7    1
     5     7     9    1
     6     3     2    1
     7     3     4    1
     8     2     1    1
     9    11    10    1
    10    11    12    1
    11     9    10    1
    12     9     4    1
    13    10    19    1
    14    12    13    2
    15    19    13    1
    16    19    18    2
    17    13    14    1
    18    18    17    1
    19    14    15    1
    20    14    16    2
    21    17    16    1
