@<TRIPOS>MOLECULE
4h2g_ADN_A_1.pdb
 19 21 0 0 0
SMALL
GASTEIGER

@<TRIPOS>ATOM
      1  O5'        8.5410   13.0560   37.3760 O.3   603  ADN603     -0.2176
      2  C5'        9.0120   14.2870   37.9450 C.3   603  ADN603      0.2143
      3  C4'       10.5320   14.2510   37.7840 C.3   603  ADN603      0.1851
      4  O4'       10.9030   14.3000   36.4170 O.3   603  ADN603     -0.3134
      5  C3'       11.2530   15.4060   38.3710 C.3   603  ADN603      0.2186
      6  O3'       11.4260   15.0750   39.7460 O.3   603  ADN603     -0.2174
      7  C2'       12.5590   15.4370   37.5710 C.3   603  ADN603      0.2570
      8  O2'       13.4020   14.5000   38.1830 O.3   603  ADN603     -0.2130
      9  C1'       12.1900   14.9100   36.2230 C.3   603  ADN603      0.3186
     10  N9        12.1520   15.9380   35.1710 N.pl3 603  ADN603     -0.1439
     11  C8        11.1500   16.7930   34.8840 C.3   603  ADN603      0.3377
     12  N7        11.4900   17.5820   33.8360 N.2   603  ADN603     -0.2095
     13  C5        12.7200   17.2380   33.4640 C.2   603  ADN603      0.2526
     14  C6        13.6670   17.6540   32.4370 C.2   603  ADN603      0.4393
     15  N6        13.3030   18.6370   31.6280 N.pl3 603  ADN603      0.2180
     16  N1        14.8660   17.0090   32.3780 N.2   603  ADN603      0.0021
     17  C2        15.2260   15.9970   33.2010 C.3   603  ADN603      0.5254
     18  N3        14.3920   15.6120   34.1800 N.2   603  ADN603     -0.0055
     19  C4        13.1670   16.1490   34.3340 C.2   603  ADN603      0.3518
@<TRIPOS>BOND
     1    15    14    1
     2    16    14    2
     3    16    17    1
     4    14    13    1
     5    17    18    1
     6    13    12    2
     7    13    19    1
     8    12    11    1
     9    18    19    2
    10    19    10    1
    11    11    10    1
    12    10     9    1
    13     9     4    1
    14     9     7    1
    15     4     3    1
    16     1     2    1
    17     7     8    1
    18     7     5    1
    19     3     2    1
    20     3     5    1
    21     5     6    1
