@<TRIPOS>MOLECULE
4h2h_0XW_A_1.pdb
 11 11 0 0 0
SMALL
GASTEIGER

@<TRIPOS>ATOM
      1  C01       35.7030  -28.7130   28.7800 C.3   403  0XW403     -0.0949
      2  N02       34.4640  -29.3220   28.3060 N.4   403  0XW403      0.3973
      3  C03       34.4260  -29.1870   26.8610 C.3   403  0XW403     -0.0949
      4  C04       34.4570  -30.7400   28.5830 C.3   403  0XW403     -0.0389
      5  C05       33.2000  -31.0040   29.3370 C.3   403  0XW403      0.1306
      6  O06       32.2630  -31.5490   28.4800 O.3   403  0XW403     -0.2254
      7  C07       32.9790  -29.7830   30.0930 C.3   403  0XW403      0.0215
      8  C08       33.2460  -28.7680   28.8770 C.3   403  0XW403      0.0541
      9  C09       33.2350  -27.3100   29.2740 C.2   403  0XW403      0.3464
     10  O10       33.8190  -26.4170   28.5900 O.co2 403  0XW403     -0.2479
     11  O11       32.5820  -26.9590   30.2910 O.co2 403  0XW403     -0.2479
@<TRIPOS>BOND
     1     3     2    1
     2     2     4    1
     3     2     1    1
     4     2     8    1
     5     6     5    1
     6     4     5    1
     7    10     9   ar
     8     8     9    1
     9     8     7    1
    10     9    11   ar
    11     5     7    1
