@<TRIPOS>MOLECULE
4h2i_A12_A_1.pdb
 27 29 0 0 0
SMALL
GASTEIGER

@<TRIPOS>ATOM
      1  PB       -17.1280   19.4690  -29.0090 P.3   603  A12603      0.1295
      2  O1B      -18.2110   20.3880  -28.7680 O.3   603  A12603     -0.3567
      3  O2B      -16.4730   20.0350  -30.3820 O.2   603  A12603     -0.4595
      4  O3B      -15.8760   19.5540  -28.1180 O.3   603  A12603     -0.3567
      5  PA       -18.7420   17.3850  -30.5830 P.3   603  A12603      0.3770
      6  O1A      -20.0110   18.0630  -30.3280 O.3   603  A12603     -0.1394
      7  O2A      -19.0530   15.8230  -30.6910 O.2   603  A12603     -0.2550
      8  C3A      -17.4670   17.6790  -29.2660 C.3   603  A12603      0.1765
      9  O5'      -17.9940   18.0460  -31.7950 O.3   603  A12603     -0.2897
     10  C5'      -16.7990   17.4010  -32.2840 C.3   603  A12603      0.1836
     11  C4'      -16.6810   17.5730  -33.8370 C.3   603  A12603      0.1822
     12  O4'      -16.8100   18.9640  -34.1540 O.3   603  A12603     -0.3135
     13  C3'      -15.2320   17.3310  -34.2550 C.3   603  A12603      0.2184
     14  O3'      -15.2180   15.9150  -34.4550 O.3   603  A12603     -0.2174
     15  C2'      -14.9890   18.1820  -35.5230 C.3   603  A12603      0.2570
     16  O2'      -15.6230   17.4420  -36.6200 O.3   603  A12603     -0.2130
     17  C1'      -15.8490   19.3710  -35.1240 C.3   603  A12603      0.3186
     18  N9       -14.9820   20.3820  -34.6140 N.pl3 603  A12603     -0.1439
     19  C8       -14.6150   20.6080  -33.3260 C.3   603  A12603      0.3377
     20  N7       -13.7570   21.6650  -33.2640 N.2   603  A12603     -0.2095
     21  C5       -13.6100   22.0980  -34.5460 C.2   603  A12603      0.2526
     22  C6       -12.8250   23.1330  -35.2210 C.2   603  A12603      0.4393
     23  N6       -12.0610   23.9590  -34.4510 N.pl3 603  A12603      0.2180
     24  N1       -12.9190   23.2350  -36.5770 N.2   603  A12603      0.0021
     25  C2       -13.7360   22.4700  -37.3000 C.3   603  A12603      0.5254
     26  N3       -14.4530   21.4500  -36.7970 N.2   603  A12603     -0.0055
     27  C4       -14.4220   21.2530  -35.4370 C.2   603  A12603      0.3518
@<TRIPOS>BOND
     1    25    26    1
     2    25    24    1
     3    26    27    2
     4    16    15    1
     5    24    22    2
     6    15    17    1
     7    15    13    1
     8    27    18    1
     9    27    21    1
    10    22    21    1
    11    22    23    1
    12    17    18    1
    13    17    12    1
    14    18    19    1
    15    21    20    2
    16    14    13    1
    17    13    11    1
    18    12    11    1
    19    11    10    1
    20    19    20    1
    21    10     9    1
    22     9     5    1
    23     7     5    2
    24     5     6    1
    25     5     8    1
    26     3     1    2
    27     8     1    1
    28     1     2    1
    29     1     4    1
