@<TRIPOS>MOLECULE
4h2j_0YU_A_1.pdb
 37 41 0 0 0
SMALL
GASTEIGER

@<TRIPOS>ATOM
      1  NAU       41.8560   21.4980   62.8040 N.2   301  0YU301     -0.2181
      2  CAQ       42.0720   20.3850   63.7280 C.3   301  0YU301      0.1634
      3  CAS       43.5050   20.0830   63.4990 C.3   301  0YU301      0.1634
      4  NAY       44.0180   21.2690   62.9310 N.2   301  0YU301     -0.2181
      5  CBC       43.0340   22.0380   62.4790 C.1   301  0YU301      0.0264
      6  CBG       43.2770   23.2320   61.9250 C.ar  301  0YU301      0.0619
      7  CAL       42.3930   23.8890   61.1040 C.ar  301  0YU301      0.0113
      8  CAH       42.6960   25.1430   60.5800 C.ar  301  0YU301      0.0173
      9  CAK       44.4500   23.8970   62.2120 C.ar  301  0YU301      0.0113
     10  CAG       44.7670   25.1450   61.7010 C.ar  301  0YU301      0.0173
     11  CBE       43.8930   25.7960   60.8380 C.ar  301  0YU301      0.0737
     12  NAW       44.1950   27.0370   60.4560 N.am  301  0YU301     -0.1754
     13  CBA       43.4980   27.7570   59.5740 C.2   301  0YU301      0.2706
     14  OAB       42.6240   27.2830   58.9090 O.2   301  0YU301     -0.2680
     15  CBI       43.7140   29.1500   59.5200 C.ar  301  0YU301      0.0778
     16  CBJ       43.7220   29.8980   58.3640 C.ar  301  0YU301      0.1474
     17  CAO       43.8480   31.2770   58.3160 C.ar  301  0YU301      0.0288
     18  NBK       43.6350   29.2370   57.2720 N.pl3 301  0YU301      0.0578
     19  OAD       43.7870   28.4490   57.3050 O.2   301  0YU301     -0.1261
     20  OAC       43.4260   29.7620   56.3440 O.2   301  0YU301     -0.1261
     21  CAN       43.7720   29.9020   60.6840 C.ar  301  0YU301      0.0064
     22  CAM       43.8940   31.2920   60.6620 C.ar  301  0YU301      0.0048
     23  CBH       43.9440   31.9890   59.4740 C.ar  301  0YU301      0.0570
     24  CAZ       44.0480   33.3750   59.4100 C.2   301  0YU301      0.2690
     25  OAA       43.3430   33.9790   58.6170 O.2   301  0YU301     -0.2680
     26  NAV       44.8950   33.9540   60.2610 N.am  301  0YU301     -0.1754
     27  CBD       45.0040   35.2950   60.3580 C.ar  301  0YU301      0.0737
     28  CAF       44.6300   36.1800   59.3770 C.ar  301  0YU301      0.0173
     29  CAJ       44.7650   37.5460   59.5690 C.ar  301  0YU301      0.0113
     30  CAE       45.5000   35.8270   61.5280 C.ar  301  0YU301      0.0173
     31  CAI       45.6320   37.1770   61.7340 C.ar  301  0YU301      0.0113
     32  CBF       45.2590   38.0420   60.7550 C.ar  301  0YU301      0.0619
     33  CBB       45.4130   39.3500   60.9690 C.1   301  0YU301      0.0264
     34  NAX       45.2750   40.2200   59.9790 N.2   301  0YU301     -0.2181
     35  CAR       45.5320   41.5230   60.4900 C.3   301  0YU301      0.1634
     36  CAP       45.5720   41.3260   61.9850 C.3   301  0YU301      0.1634
     37  NAT       45.7950   39.9050   62.1230 N.2   301  0YU301     -0.2181
@<TRIPOS>BOND
     1    20    18    2
     2    18    19    2
     3    18    16    1
     4    17    16   ar
     5    17    23   ar
     6    16    15   ar
     7    25    24    2
     8    14    13    2
     9    28    29   ar
    10    28    27   ar
    11    24    23    1
    12    24    26   am
    13    23    22   ar
    14    15    13    1
    15    15    21   ar
    16    29    32   ar
    17    13    12   am
    18    34    35    1
    19    34    33    2
    20    26    27    1
    21    27    30   ar
    22    12    11    1
    23    35    36    1
    24     8    11   ar
    25     8     7   ar
    26    22    21   ar
    27    32    33    1
    28    32    31   ar
    29    11    10   ar
    30    33    37    2
    31     7     6   ar
    32    30    31   ar
    33    10     9   ar
    34     6     9   ar
    35     6     5    1
    36    36    37    1
    37     5     1    2
    38     5     4    2
    39     1     2    1
    40     4     3    1
    41     3     2    1
