@<TRIPOS>MOLECULE
4h2m_0YV_A_1.pdb
 30 32 0 0 0
SMALL
GASTEIGER

@<TRIPOS>ATOM
      1  NAA       43.6140   21.8290   65.9910 N.3   301  0YV301     -0.1310
      2  CAS       42.7460   22.4760   64.9890 C.3   301  0YV301      0.1140
      3  CAU       43.3460   23.7360   64.3830 C.3   301  0YV301      0.0469
      4  CBC       43.0530   23.8210   63.0270 C.ar  301  0YV301     -0.0196
      5  CAQ       43.3060   25.0060   62.3870 C.ar  301  0YV301      0.0041
      6  CAN       42.5430   22.7310   62.3240 C.ar  301  0YV301      0.0025
      7  CAW       42.2700   22.8430   60.9920 C.ar  301  0YV301      0.0349
      8 BRC        41.5870   21.3850   59.9690 Br    301  0YV301     -0.0490
      9  CAL       42.5280   24.0660   60.3990 C.ar  301  0YV301      0.0149
     10  CBA       43.0390   25.1610   61.0510 C.ar  301  0YV301      0.0421
     11  CAG       43.2710   26.4020   60.3900 C.1   301  0YV301     -0.0597
     12  CAE       43.4700   27.5110   59.7440 C.1   301  0YV301     -0.0597
     13  CAY       43.6700   28.6730   59.0200 C.ar  301  0YV301      0.0426
     14  CAP       43.9830   29.8800   59.6150 C.ar  301  0YV301      0.0165
     15  CAJ       43.5410   28.6470   57.6580 C.ar  301  0YV301      0.0083
     16  CAI       43.7420   29.7630   56.8700 C.ar  301  0YV301      0.0013
     17  CAK       44.0500   30.9700   57.4720 C.ar  301  0YV301      0.0083
     18  CAZ       44.1750   31.0320   58.8490 C.ar  301  0YV301      0.0426
     19  CAF       44.4830   32.2910   59.4930 C.1   301  0YV301     -0.0597
     20  CAH       44.6950   33.0700   59.9200 C.1   301  0YV301     -0.0597
     21  CBB       45.0570   34.3570   60.6650 C.ar  301  0YV301      0.0421
     22  CAR       45.7410   34.3020   61.8760 C.ar  301  0YV301      0.0041
     23  CAM       44.7130   35.6020   60.1490 C.ar  301  0YV301      0.0149
     24  CAX       45.0230   36.7830   60.8210 C.ar  301  0YV301      0.0349
     25 BRD        44.5660   38.4480   60.1200 Br    301  0YV301     -0.0490
     26  CAO       45.6880   36.7150   62.0150 C.ar  301  0YV301      0.0025
     27  CBD       46.0430   35.4820   62.5510 C.ar  301  0YV301     -0.0196
     28  CAV       46.7050   35.4470   63.7650 C.3   301  0YV301      0.0469
     29  CAT       45.7260   35.7320   64.9050 C.3   301  0YV301      0.1140
     30  NAB       45.4040   34.6050   65.7910 N.3   301  0YV301     -0.1310
@<TRIPOS>BOND
     1    16    17   ar
     2    16    15   ar
     3    17    18   ar
     4    15    13   ar
     5    18    19    1
     6    18    14   ar
     7    13    14   ar
     8    13    12    1
     9    19    20    3
    10    12    11    3
    11    20    21    1
    12     8     7    1
    13    25    24    1
    14    23    21   ar
    15    23    24   ar
    16    11    10    1
    17     9     7   ar
    18     9    10   ar
    19    21    22   ar
    20    24    26   ar
    21     7     6   ar
    22    10     5   ar
    23    22    27   ar
    24    26    27   ar
    25     6     4   ar
    26     5     4   ar
    27    27    28    1
    28     4     3    1
    29    28    29    1
    30     3     2    1
    31    29    30    1
    32     2     1    1
