@<TRIPOS>MOLECULE
4h2o_0YW_A_1.pdb
 32 33 0 0 0
SMALL
GASTEIGER

@<TRIPOS>ATOM
      1  OAB       31.1380   16.2870   23.4130 O.co2 301  0YW301     -0.2405
      2  CAY       30.5240   16.9980   24.2280 C.2   301  0YW301      0.3891
      3  OAE       30.4040   16.6750   25.4300 O.co2 301  0YW301     -0.2405
      4  CBE       30.0400   18.1920   23.7700 C.ar  301  0YW301      0.0967
      5  CAM       30.6640   18.8180   22.6890 C.ar  301  0YW301      0.0320
      6  CBC       30.2110   20.0270   22.2250 C.ar  301  0YW301      0.1432
      7  NBF       30.8030   20.6430   21.1800 N.pl3 301  0YW301      0.0577
      8  OAF       30.9650   19.9860   20.0000 O.2   301  0YW301     -0.1261
      9  OAD       31.1680   21.9090   21.2910 O.2   301  0YW301     -0.1261
     10  CAJ       29.1120   20.5660   22.8960 C.ar  301  0YW301      0.0254
     11  CAK       28.4760   19.9340   23.9800 C.ar  301  0YW301      0.0185
     12  CBD       28.9880   18.7400   24.4290 C.ar  301  0YW301      0.0801
     13  NAW       28.5250   17.9890   25.3780 N.am  301  0YW301     -0.1752
     14  CAZ       27.2320   18.0320   25.5460 C.2   301  0YW301      0.2691
     15  OAC       26.4810   18.8100   24.9970 O.2   301  0YW301     -0.2680
     16  CBB       26.7440   17.1480   26.4310 C.ar  301  0YW301      0.0584
     17  CAL       27.5470   16.1630   26.9020 C.ar  301  0YW301      0.0415
     18  CAI       25.4470   17.2630   26.7950 C.ar  301  0YW301      0.0048
     19  CAG       24.9670   16.3510   27.6860 C.ar  301  0YW301      0.0033
     20  CAH       25.7640   15.3430   28.1930 C.ar  301  0YW301      0.0369
     21  CBA       27.0560   15.2590   27.7950 C.ar  301  0YW301      0.1387
     22  OAX       27.8140   14.2800   28.2670 O.3   301  0YW301     -0.4755
     23  CAV       26.9230   13.5330   29.0100 C.3   301  0YW301      0.2054
     24  CAU       27.1130   12.0660   28.7600 C.3   301  0YW301      0.0473
     25  CAT       25.7650   11.3740   28.6640 C.3   301  0YW301      0.0038
     26  CAS       25.7550   10.1610   29.5630 C.3   301  0YW301      0.0001
     27  CAR       25.4910    8.9170   28.7660 C.3   301  0YW301      0.0000
     28  CAQ       26.4380    7.7940   29.1070 C.3   301  0YW301      0.0000
     29  CAP       25.5560    6.6590   29.5480 C.3   301  0YW301      0.0000
     30  CAO       26.2660    5.3290   29.5570 C.3   301  0YW301      0.0000
     31  CAN       25.4500    4.3890   28.7150 C.3   301  0YW301      0.0000
     32  CAA       25.1960    3.0920   29.4380 C.3   301  0YW301      0.0000
@<TRIPOS>BOND
     1     8     7    2
     2     7     9    2
     3     7     6    1
     4     6     5   ar
     5     6    10   ar
     6     5     4   ar
     7    10    11   ar
     8     1     2   ar
     9     4     2    1
    10     4    12   ar
    11    11    12   ar
    12     2     3   ar
    13    12    13    1
    14    15    14    2
    15    13    14   am
    16    14    16    1
    17    16    18   ar
    18    16    17   ar
    19    18    19   ar
    20    17    21   ar
    21    19    20   ar
    22    21    20   ar
    23    21    22    1
    24    22    23    1
    25    25    24    1
    26    25    26    1
    27    31    32    1
    28    31    30    1
    29    24    23    1
    30    27    28    1
    31    27    26    1
    32    28    29    1
    33    29    30    1
