@<TRIPOS>MOLECULE
4h2s_PNS_C_1.pdb
 21 20 0 0 0
SMALL
GASTEIGER

@<TRIPOS>ATOM
      1  O23       92.4590   32.9040    5.1010 O.3   1000  PNS1000    -0.1425
      2  P24       93.2890   34.1830    5.2990 P.3   1000  PNS1000     0.3942
      3  O25       93.1730   35.1350    4.0950 O.3   1000  PNS1000    -0.1425
      4  O27       92.7370   34.9370    6.6040 O.3   1000  PNS1000    -0.2952
      5  C28       91.4090   35.4860    6.7110 C.3   1000  PNS1000     0.1537
      6  C29       90.8480   35.1020    8.0930 C.3   1000  PNS1000     0.0646
      7  C30       89.4620   35.7320    8.2910 C.3   1000  PNS1000     0.0056
      8  C31       90.7340   33.5760    8.2180 C.3   1000  PNS1000     0.0056
      9  C32       91.8070   35.6360    9.1870 C.3   1000  PNS1000     0.2312
     10  O33       92.1800   36.9840    8.9430 O.3   1000  PNS1000    -0.2131
     11  C34       91.1970   35.5630   10.6060 C.2   1000  PNS1000     0.2719
     12  O35       91.0960   34.4860   11.1890 O.2   1000  PNS1000    -0.2706
     13  N36       90.8160   36.7230   11.1450 N.am  1000  PNS1000    -0.2028
     14  C37       90.3200   36.8290   12.5090 C.3   1000  PNS1000     0.1248
     15  C38       88.8550   36.4870   12.6000 C.3   1000  PNS1000     0.1102
     16  C39       88.3300   36.6720   14.0000 C.2   1000  PNS1000     0.2432
     17  O40       89.0900   36.9110   14.9360 O.2   1000  PNS1000    -0.2733
     18  N41       87.0100   36.5660   14.1440 N.am  1000  PNS1000    -0.2044
     19  C42       86.3200   36.6960   15.4210 C.3   1000  PNS1000     0.1276
     20  C43       86.5050   38.0770   16.0340 C.3   1000  PNS1000     0.0920
     21  S44       86.1770   39.2480   14.6910 S.3   1000  PNS1000    -0.0802
@<TRIPOS>BOND
     1     3     2    1
     2     1     2    1
     3     2     4    1
     4     4     5    1
     5     5     6    1
     6     6     8    1
     7     6     7    1
     8     6     9    1
     9    10     9    1
    10     9    11    1
    11    11    13   am
    12    11    12    2
    13    13    14    1
    14    14    15    1
    15    15    16    1
    16    16    18   am
    17    16    17    2
    18    18    19    1
    19    21    20    1
    20    19    20    1
