@<TRIPOS>MOLECULE
4h2s_AMP_A_1.pdb
 23 25 0 0 0
SMALL
GASTEIGER

@<TRIPOS>ATOM
      1  P         88.7160   42.9400   18.6630 P.3   1001  AMP1001     0.5327
      2  O1P       88.6430   43.9420   17.5490 O.2   1001  AMP1001    -0.2224
      3  O2P       90.0920   42.5990   19.2130 O.3   1001  AMP1001    -0.1145
      4  O3P       88.0140   41.6390   18.3460 O.3   1001  AMP1001    -0.1145
      5  O5'       87.8720   43.5000   19.8930 O.3   1001  AMP1001    -0.2675
      6  C5'       86.6690   44.2110   19.6760 C.3   1001  AMP1001     0.1860
      7  C4'       86.6220   45.4570   20.5170 C.3   1001  AMP1001     0.1823
      8  O4'       86.6610   45.0880   21.9170 O.3   1001  AMP1001    -0.3135
      9  C3'       87.7960   46.4020   20.3440 C.3   1001  AMP1001     0.2184
     10  O3'       87.6270   47.2680   19.2300 O.3   1001  AMP1001    -0.2174
     11  C2'       87.8470   47.1380   21.6750 C.3   1001  AMP1001     0.2570
     12  O2'       86.9230   48.2100   21.6580 O.3   1001  AMP1001    -0.2130
     13  C1'       87.3520   46.0600   22.6610 C.3   1001  AMP1001     0.3186
     14  N9        88.4580   45.3790   23.3640 N.pl3 1001  AMP1001    -0.1439
     15  C8        89.2800   44.4170   22.8370 C.3   1001  AMP1001     0.3377
     16  N7        90.2360   44.0280   23.6470 N.2   1001  AMP1001    -0.2095
     17  C5        90.0230   44.7800   24.7920 C.2   1001  AMP1001     0.2526
     18  C6        90.7030   44.8430   26.0240 C.2   1001  AMP1001     0.4393
     19  N6        91.7300   44.0500   26.3490 N.pl3 1001  AMP1001     0.2180
     20  N1        90.2420   45.7160   26.9480 N.2   1001  AMP1001     0.0021
     21  C2        89.1580   46.4420   26.6630 C.3   1001  AMP1001     0.5254
     22  N3        88.4260   46.4540   25.5450 N.2   1001  AMP1001    -0.0055
     23  C4        88.9230   45.6080   24.6370 C.2   1001  AMP1001     0.3518
@<TRIPOS>BOND
     1     2     1    2
     2     4     1    1
     3     1     3    1
     4     1     5    1
     5    10     9    1
     6     6     5    1
     7     6     7    1
     8     9     7    1
     9     9    11    1
    10     7     8    1
    11    12    11    1
    12    11    13    1
    13     8    13    1
    14    13    14    1
    15    15    14    1
    16    15    16    1
    17    14    23    1
    18    16    17    2
    19    23    17    1
    20    23    22    2
    21    17    18    1
    22    22    21    1
    23    18    19    1
    24    18    20    2
    25    21    20    1
