@<TRIPOS>MOLECULE
4h2s_III_C_2.pdb
 48 49 0 0 0
SMALL
GASTEIGER

@<TRIPOS>ATOM
      1  N        110.5900   43.7420   11.9430 N.3    64  GLU64      -0.1231
      2  CA       110.7290   42.4850   11.2160 C.3    64  GLU64       0.1694
      3  C        109.7630   42.4140   10.0270 C.2    64  GLU64       0.2592
      4  O        109.8190   43.2550    9.1250 O.2    64  GLU64      -0.2718
      5  CB       110.5220   41.2940   12.1560 C.3    64  GLU64       0.0304
      6  N        108.8820   41.4130   10.0340 N.am   65  ILE65      -0.1966
      7  CA       107.8940   41.2270    8.9640 C.3    65  ILE65       0.1728
      8  C        106.8280   42.3310    8.9620 C.2    65  ILE65       0.2617
      9  O        106.0620   42.4680    9.9180 O.2    65  ILE65      -0.2715
     10  CB       107.2060   39.8460    9.0560 C.3    65  ILE65       0.0334
     11  N        106.7840   43.1090    7.8790 N.am   66  THR66      -0.1937
     12  CA       105.9600   44.3170    7.8080 C.3    66  THR66       0.2013
     13  C        105.1270   44.3660    6.5230 C.2    66  THR66       0.2484
     14  O        105.3710   43.5880    5.5990 O.2    66  THR66      -0.2729
     15  CB       106.8440   45.5810    7.8660 C.3    66  THR66       0.1807
     16  OG1      107.7630   45.5780    6.7640 O.3    66  THR66      -0.2208
     17  CG2      107.6070   45.6420    9.1820 C.3    66  THR66       0.0379
     18  N        104.1280   45.2700    6.4630 N.am   67  PRO67      -0.2715
     19  CA       103.3510   45.4190    5.2240 C.3    67  PRO67       0.1536
     20  C        104.1750   46.0020    4.0810 C.2    67  PRO67       0.2598
     21  O        104.0240   45.5750    2.9330 O.2    67  PRO67      -0.2715
     22  CB       102.2530   46.4150    5.6130 C.3    67  PRO67       0.0310
     23  CG       102.1460   46.3160    7.0920 C.3    67  PRO67       0.0237
     24  CD       103.5310   46.0330    7.5770 C.3    67  PRO67       0.0939
     25  N        105.0260   46.9730    4.4070 N.am   68  GLU68      -0.1964
     26  CA       105.8320   47.6830    3.4190 C.3    68  GLU68       0.1728
     27  C        106.5970   46.7300    2.5060 C.2    68  GLU68       0.2616
     28  O        106.4900   46.8040    1.2810 O.2    68  GLU68      -0.2715
     29  CB       106.8060   48.6350    4.1200 C.3    68  GLU68       0.0334
     30  N        107.3430   45.8140    3.1110 N.am   69  ASN69      -0.1958
     31  CA       108.2160   44.9260    2.3550 C.3    69  ASN69       0.1819
     32  C        107.4920   43.8210    1.5760 C.2    69  ASN69       0.2621
     33  O        108.1300   43.0350    0.8730 O.2    69  ASN69      -0.2715
     34  CB       109.2820   44.3330    3.2770 C.3    69  ASN69       0.1195
     35  CG       110.1640   45.3980    3.8950 C.2    69  ASN69       0.2630
     36  OD1      110.4310   46.4290    3.2780 O.2    69  ASN69      -0.2716
     37  ND2      110.6180   45.1590    5.1190 N.am   69  ASN69      -0.0877
     38  N        106.1670   43.7700    1.6960 N.am   70  PHE70      -0.1974
     39  CA       105.3690   42.7600    0.9970 C.3    70  PHE70       0.1639
     40  C        104.1880   43.4070    0.2660 C.2    70  PHE70       0.2290
     41  O        104.1920   43.5550   -0.9600 O.2    70  PHE70      -0.2864
     42  CB       104.8590   41.6910    1.9770 C.3    70  PHE70       0.0560
     43  CG       105.9540   40.9440    2.7090 C.ar   70  PHE70      -0.0200
     44  CD1      106.6470   41.5420    3.7580 C.ar   70  PHE70      -0.0042
     45  CD2      106.2690   39.6360    2.3680 C.ar   70  PHE70      -0.0042
     46  CE1      107.6490   40.8630    4.4340 C.ar   70  PHE70      -0.0003
     47  CE2      107.2690   38.9480    3.0440 C.ar   70  PHE70      -0.0003
     48  CZ       107.9590   39.5660    4.0780 C.ar   70  PHE70      -0.0000
@<TRIPOS>BOND
     1    41    40    2
     2    40    39    1
     3    33    32    2
     4    39    38    1
     5    39    42    1
     6    28    27    2
     7    32    38   am
     8    32    31    1
     9    42    43    1
    10    31    30    1
    11    31    34    1
    12    45    43   ar
    13    45    47   ar
    14    27    30   am
    15    27    26    1
    16    43    44   ar
    17    21    20    2
    18    47    48   ar
    19    34    35    1
    20    36    35    2
    21    26    29    1
    22    26    25    1
    23    44    46   ar
    24    35    37   am
    25    48    46   ar
    26    20    25   am
    27    20    19    1
    28    19    22    1
    29    19    18    1
    30    14    13    2
    31    22    23    1
    32    18    13   am
    33    18    24    1
    34    13    12    1
    35    16    15    1
    36    23    24    1
    37    12    15    1
    38    12    11    1
    39    15    17    1
    40    11     8   am
    41     8     7    1
    42     8     9    2
    43     7    10    1
    44     7     6    1
    45     4     3    2
    46     3     6   am
    47     3     2    1
    48     2     1    1
    49     2     5    1
