@<TRIPOS>MOLECULE
4h2t_G5A_A_1.pdb
 27 29 0 0 0
SMALL
GASTEIGER

@<TRIPOS>ATOM
      1  C         85.4200   41.2490   18.1470 C.2   1001  G5A1001     0.2818
      2  N         83.6870   39.6210   17.5930 N.3   1001  G5A1001    -0.1209
      3  O         85.7810   40.5320   19.0800 O.2   1001  G5A1001    -0.2700
      4  S         87.5400   43.0370   18.5650 S.3   1001  G5A1001     0.0852
      5  N1        89.6110   45.8390   27.1660 N.2   1001  G5A1001     0.0021
      6  C2        88.5110   46.5430   26.8840 C.3   1001  G5A1001     0.5254
      7  N3        87.7640   46.5240   25.7760 N.2   1001  G5A1001    -0.0055
      8  C4        88.2730   45.6810   24.8690 C.2   1001  G5A1001     0.3518
      9  C5        89.4040   44.8930   25.0130 C.2   1001  G5A1001     0.2526
     10  C6        90.0840   44.9710   26.2440 C.2   1001  G5A1001     0.4393
     11  N6        91.1150   44.1830   26.5770 N.pl3 1001  G5A1001     0.2180
     12  N7        89.6300   44.1460   23.8660 N.2   1001  G5A1001    -0.2095
     13  C8        88.6450   44.4890   23.0720 C.3   1001  G5A1001     0.3377
     14  N9        87.7950   45.4230   23.6070 N.pl3 1001  G5A1001    -0.1439
     15  CA        84.1930   40.9700   17.2720 C.3   1001  G5A1001     0.1973
     16  C1*       86.7040   46.1030   22.9170 C.3   1001  G5A1001     0.3186
     17  O1S       88.3930   41.9850   18.9830 O.3   1001  G5A1001    -0.0508
     18  C2*       87.2020   47.0970   21.8510 C.3   1001  G5A1001     0.2570
     19  O2*       86.4240   48.2880   21.8610 O.3   1001  G5A1001    -0.2130
     20  O2S       88.0120   44.1680   17.8530 O.3   1001  G5A1001    -0.0508
     21  C3*       87.0160   46.3060   20.5530 C.3   1001  G5A1001     0.2185
     22  O3*       86.8030   47.1560   19.4300 O.3   1001  G5A1001    -0.2174
     23  N3S       86.1920   42.4110   17.8170 N.am  1001  G5A1001    -0.0576
     24  C4*       85.7710   45.4810   20.8590 C.3   1001  G5A1001     0.1842
     25  O4*       85.9010   45.1350   22.2570 O.3   1001  G5A1001    -0.3135
     26  C5*       85.6030   44.2300   20.0310 C.3   1001  G5A1001     0.2064
     27  O5*       86.9110   43.6050   19.8890 O.3   1001  G5A1001    -0.2230
@<TRIPOS>BOND
     1    15     2    1
     2    15     1    1
     3    23     1   am
     4    23     4    1
     5    20     4    1
     6     1     3    2
     7     4    17    1
     8     4    27    1
     9    22    21    1
    10    27    26    1
    11    26    24    1
    12    21    24    1
    13    21    18    1
    14    24    25    1
    15    18    19    1
    16    18    16    1
    17    25    16    1
    18    16    14    1
    19    13    14    1
    20    13    12    1
    21    14     8    1
    22    12     9    2
    23     8     9    1
    24     8     7    2
    25     9    10    1
    26     7     6    1
    27    10    11    1
    28    10     5    2
    29     6     5    1
