@<TRIPOS>MOLECULE
4h2t_PNS_C_1.pdb
 21 20 0 0 0
SMALL
GASTEIGER

@<TRIPOS>ATOM
      1  O23       91.9890   32.6090    5.4990 O.3   1000  PNS1000    -0.1425
      2  P24       92.5660   34.0280    5.6520 P.3   1000  PNS1000     0.3942
      3  O25       92.3740   34.8840    4.3930 O.3   1000  PNS1000    -0.1425
      4  O27       91.8350   34.7420    6.8830 O.3   1000  PNS1000    -0.2952
      5  C28       90.4780   35.2160    6.8720 C.3   1000  PNS1000     0.1537
      6  C29       89.9620   35.0740    8.3080 C.3   1000  PNS1000     0.0646
      7  C30       88.6150   35.7960    8.4560 C.3   1000  PNS1000     0.0056
      8  C31       89.7810   33.5900    8.6530 C.3   1000  PNS1000     0.0056
      9  C32       90.9920   35.7010    9.2820 C.3   1000  PNS1000     0.2312
     10  O33       91.3530   37.0240    8.9170 O.3   1000  PNS1000    -0.2131
     11  C34       90.4950   35.7230   10.7490 C.2   1000  PNS1000     0.2719
     12  O35       90.7500   34.7720   11.4870 O.2   1000  PNS1000    -0.2706
     13  N36       89.8200   36.8030   11.1520 N.am  1000  PNS1000    -0.2028
     14  C37       89.3110   36.9550   12.5070 C.3   1000  PNS1000     0.1248
     15  C38       87.9670   36.2890   12.6760 C.3   1000  PNS1000     0.1102
     16  C39       87.4950   36.3550   14.1050 C.2   1000  PNS1000     0.2432
     17  O40       88.1920   35.9250   15.0220 O.2   1000  PNS1000    -0.2733
     18  N41       86.3090   36.9250   14.3070 N.am  1000  PNS1000    -0.2044
     19  C42       85.7840   37.2240   15.6310 C.3   1000  PNS1000     0.1276
     20  C43       86.2670   38.6300   16.0160 C.3   1000  PNS1000     0.0920
     21  S44       87.9670   38.5440   16.6500 S.3   1000  PNS1000    -0.0802
@<TRIPOS>BOND
     1     3     2    1
     2     1     2    1
     3     2     4    1
     4     5     4    1
     5     5     6    1
     6     6     7    1
     7     6     8    1
     8     6     9    1
     9    10     9    1
    10     9    11    1
    11    11    13   am
    12    11    12    2
    13    13    14    1
    14    14    15    1
    15    15    16    1
    16    16    18   am
    17    16    17    2
    18    18    19    1
    19    19    20    1
    20    20    21    1
