@<TRIPOS>MOLECULE
4h2u_ATP_A_1.pdb
 31 33 0 0 0
SMALL
GASTEIGER

@<TRIPOS>ATOM
      1  PG        92.4930   46.0030   20.5070 P.3   402  ATP402      0.5373
      2  O1G       93.6720   46.1830   19.4960 O.2   402  ATP402     -0.2221
      3  O2G       91.8210   47.3020   20.9620 O.3   402  ATP402     -0.1143
      4  O3G       92.8750   45.1510   21.7440 O.3   402  ATP402     -0.1143
      5  PB        90.3570   44.0560   19.2950 P.3   402  ATP402      0.2277
      6  O1B       90.1460   44.1650   17.8310 O.2   402  ATP402     -0.5168
      7  O2B       91.0980   42.9430   20.0510 O.3   402  ATP402     -0.4368
      8  O3B       91.2590   45.1970   19.8880 O.3   402  ATP402     -0.2258
      9  PA        87.5680   43.1670   18.9520 P.3   402  ATP402      0.2189
     10  O1A       88.1210   41.8020   18.9690 O.3   402  ATP402     -0.4371
     11  O2A       87.1830   43.8710   17.6440 O.2   402  ATP402     -0.5170
     12  O3A       88.7950   43.9290   19.6800 O.3   402  ATP402     -0.2700
     13  O5'       86.2500   43.3330   19.9270 O.3   402  ATP402     -0.3112
     14  C5'       85.1790   44.2680   19.7220 C.3   402  ATP402      0.1813
     15  C4'       85.2630   45.4480   20.6640 C.3   402  ATP402      0.1821
     16  O4'       85.4350   45.0110   22.0280 O.3   402  ATP402     -0.3135
     17  C3'       86.4210   46.3970   20.4280 C.3   402  ATP402      0.2184
     18  O3'       86.0810   47.3070   19.3870 O.3   402  ATP402     -0.2174
     19  C2'       86.5290   47.1120   21.7710 C.3   402  ATP402      0.2570
     20  O2'       85.6390   48.2190   21.7820 O.3   402  ATP402     -0.2130
     21  C1'       86.0940   46.0260   22.7710 C.3   402  ATP402      0.3186
     22  N9        87.2170   45.4200   23.4770 N.pl3 402  ATP402     -0.1439
     23  C8        88.0950   44.5070   22.9560 C.3   402  ATP402      0.3377
     24  N7        89.1010   44.2230   23.7470 N.2   402  ATP402     -0.2095
     25  C5        88.8540   44.9840   24.8780 C.2   402  ATP402      0.2526
     26  C6        89.5270   45.0920   26.1090 C.2   402  ATP402      0.4393
     27  N6        90.5850   44.3370   26.4390 N.pl3 402  ATP402      0.2180
     28  N1        89.0070   45.9270   27.0370 N.2   402  ATP402      0.0021
     29  C2        87.8670   46.5690   26.7600 C.3   402  ATP402      0.5254
     30  N3        87.1290   46.5220   25.6470 N.2   402  ATP402     -0.0055
     31  C4        87.6890   45.7180   24.7320 C.2   402  ATP402      0.3518
@<TRIPOS>BOND
     1    11     9    2
     2     6     5    2
     3     9    10    1
     4     9    12    1
     5     9    13    1
     6     5    12    1
     7     5     8    1
     8     5     7    1
     9    18    17    1
    10     2     1    2
    11    14    13    1
    12    14    15    1
    13     8     1    1
    14    17    15    1
    15    17    19    1
    16     1     3    1
    17     1     4    1
    18    15    16    1
    19    19    20    1
    20    19    21    1
    21    16    21    1
    22    21    22    1
    23    23    22    1
    24    23    24    1
    25    22    31    1
    26    24    25    2
    27    31    25    1
    28    31    30    2
    29    25    26    1
    30    30    29    1
    31    26    27    1
    32    26    28    2
    33    29    28    1
