@<TRIPOS>MOLECULE
4h2u_PNS_C_1.pdb
 21 20 0 0 0
SMALL
GASTEIGER

@<TRIPOS>ATOM
      1  O23       91.0860   32.8920    5.3850 O.3   1000  PNS1000    -0.1425
      2  P24       91.7850   34.2690    5.3680 P.3   1000  PNS1000     0.3942
      3  O25       91.5760   35.0280    4.0550 O.3   1000  PNS1000    -0.1425
      4  O27       91.1910   35.1650    6.5680 O.3   1000  PNS1000    -0.2952
      5  C28       89.8130   35.5560    6.7110 C.3   1000  PNS1000     0.1537
      6  C29       89.3740   35.1650    8.1310 C.3   1000  PNS1000     0.0646
      7  C30       87.9890   35.7520    8.4400 C.3   1000  PNS1000     0.0056
      8  C31       89.3160   33.6370    8.2610 C.3   1000  PNS1000     0.0056
      9  C32       90.3980   35.7290    9.1480 C.3   1000  PNS1000     0.2312
     10  O33       90.7570   37.0600    8.8350 O.3   1000  PNS1000    -0.2131
     11  C34       89.8780   35.7240   10.6040 C.2   1000  PNS1000     0.2719
     12  O35       89.8910   34.6760   11.2460 O.2   1000  PNS1000    -0.2706
     13  N36       89.4480   36.8850   11.1070 N.am  1000  PNS1000    -0.2028
     14  C37       88.9280   37.0090   12.4610 C.3   1000  PNS1000     0.1248
     15  C38       87.5050   36.5190   12.5510 C.3   1000  PNS1000     0.1102
     16  C39       87.0150   36.4460   13.9750 C.2   1000  PNS1000     0.2432
     17  O40       87.7270   36.0000   14.8710 O.2   1000  PNS1000    -0.2733
     18  N41       85.7710   36.8690   14.1820 N.am  1000  PNS1000    -0.2044
     19  C42       85.0670   36.7110   15.4470 C.3   1000  PNS1000     0.1276
     20  C43       84.8780   38.0540   16.1280 C.3   1000  PNS1000     0.0920
     21  S44       84.9740   39.2990   14.8120 S.3   1000  PNS1000    -0.0802
@<TRIPOS>BOND
     1     3     2    1
     2     2     1    1
     3     2     4    1
     4     4     5    1
     5     5     6    1
     6     6     8    1
     7     6     7    1
     8     6     9    1
     9    10     9    1
    10     9    11    1
    11    11    13   am
    12    11    12    2
    13    13    14    1
    14    14    15    1
    15    15    16    1
    16    16    18   am
    17    16    17    2
    18    18    19    1
    19    21    20    1
    20    19    20    1
