@<TRIPOS>MOLECULE
4h2v_PNS_D_1.pdb
 21 20 0 0 0
SMALL
GASTEIGER

@<TRIPOS>ATOM
      1  O23       79.1710   29.4350   63.7190 O.3   1000  PNS1000    -0.1425
      2  P24       80.3340   29.3330   62.7260 P.3   1000  PNS1000     0.3942
      3  O25       81.3940   30.4110   62.9960 O.3   1000  PNS1000    -0.1425
      4  O27       79.7690   29.5290   61.2310 O.3   1000  PNS1000    -0.2952
      5  C28       80.5690   29.4300   60.0400 C.3   1000  PNS1000     0.1537
      6  C29       79.6490   29.5960   58.8120 C.3   1000  PNS1000     0.0646
      7  C30       80.5030   29.4410   57.5460 C.3   1000  PNS1000     0.0056
      8  C31       78.5380   28.5380   58.8060 C.3   1000  PNS1000     0.0056
      9  C32       78.9970   31.0030   58.8170 C.3   1000  PNS1000     0.2312
     10  O33       79.7850   31.9410   59.5240 O.3   1000  PNS1000    -0.2131
     11  C34       78.7900   31.5320   57.3820 C.2   1000  PNS1000     0.2719
     12  O35       79.4520   32.5030   57.0250 O.2   1000  PNS1000    -0.2706
     13  N36       77.9270   30.9060   56.5780 N.am  1000  PNS1000    -0.2028
     14  C37       77.8090   31.2270   55.1620 C.3   1000  PNS1000     0.1248
     15  C38       79.0050   30.7370   54.3760 C.3   1000  PNS1000     0.1102
     16  C39       79.3690   31.6830   53.2580 C.2   1000  PNS1000     0.2432
     17  O40       80.5130   32.1160   53.1370 O.2   1000  PNS1000    -0.2733
     18  N41       78.3780   32.0170   52.4340 N.am  1000  PNS1000    -0.2044
     19  C42       78.5370   32.9520   51.3280 C.3   1000  PNS1000     0.1276
     20  C43       77.1910   33.2020   50.6440 C.3   1000  PNS1000     0.0920
     21  S44       76.1030   33.8280   51.9550 S.3   1000  PNS1000    -0.0802
@<TRIPOS>BOND
     1    20    19    1
     2    20    21    1
     3    19    18    1
     4    18    16   am
     5    17    16    2
     6    16    15    1
     7    15    14    1
     8    14    13    1
     9    13    11   am
    10    12    11    2
    11    11     9    1
    12     7     6    1
    13     8     6    1
    14     6     9    1
    15     6     5    1
    16     9    10    1
    17     5     4    1
    18     4     2    1
    19     2     3    1
    20     2     1    1
