@<TRIPOS>MOLECULE
4h2v_III_C_2.pdb
 48 49 0 0 0
SMALL
GASTEIGER

@<TRIPOS>ATOM
      1  N        108.7810   43.7620   12.4950 N.3    64  GLU64      -0.1231
      2  CA       109.4610   43.3060   11.2890 C.3    64  GLU64       0.1694
      3  C        108.4940   43.2290   10.1080 C.2    64  GLU64       0.2592
      4  O        108.5940   44.0120    9.1620 O.2    64  GLU64      -0.2718
      5  CB       110.1250   41.9480   11.5260 C.3    64  GLU64       0.0304
      6  N        107.5600   42.2820   10.1690 N.am   65  ILE65      -0.1966
      7  CA       106.5540   42.1240    9.1200 C.3    65  ILE65       0.1728
      8  C        105.4430   43.1650    9.2630 C.2    65  ILE65       0.2617
      9  O        104.5480   43.0210   10.0960 O.2    65  ILE65      -0.2715
     10  CB       105.9300   40.7130    9.1370 C.3    65  ILE65       0.0334
     11  N        105.5080   44.2080    8.4410 N.am   66  THR66      -0.1937
     12  CA       104.5610   45.3150    8.5220 C.3    66  THR66       0.2013
     13  C        103.6730   45.3800    7.2790 C.2    66  THR66       0.2484
     14  O        104.0460   44.8660    6.2210 O.2    66  THR66      -0.2729
     15  CB       105.2960   46.6670    8.6890 C.3    66  THR66       0.1807
     16  OG1      105.8510   47.0780    7.4310 O.3    66  THR66      -0.2208
     17  CG2      106.4050   46.5490    9.7270 C.3    66  THR66       0.0379
     18  N        102.4880   46.0070    7.4020 N.am   67  PRO67      -0.2715
     19  CA       101.6060   46.2000    6.2430 C.3    67  PRO67       0.1536
     20  C        102.1120   47.2840    5.2830 C.2    67  PRO67       0.2598
     21  O        101.3420   48.1610    4.8890 O.2    67  PRO67      -0.2715
     22  CB       100.2770   46.6430    6.8780 C.3    67  PRO67       0.0310
     23  CG       100.3760   46.2540    8.3260 C.3    67  PRO67       0.0237
     24  CD       101.8250   46.3870    8.6620 C.3    67  PRO67       0.0939
     25  N        103.3890   47.2180    4.9140 N.am   68  GLU68      -0.1964
     26  CA       103.9850   48.1940    4.0060 C.3    68  GLU68       0.1728
     27  C        104.9390   47.5220    3.0210 C.2    68  GLU68       0.2616
     28  O        104.9070   47.7950    1.8200 O.2    68  GLU68      -0.2715
     29  CB       104.7190   49.2820    4.7950 C.3    68  GLU68       0.0334
     30  N        105.7800   46.6300    3.5350 N.am   69  ASN69      -0.1958
     31  CA       106.7820   45.9560    2.7180 C.3    69  ASN69       0.1819
     32  C        106.2120   44.7600    1.9600 C.2    69  ASN69       0.2621
     33  O        106.9590   43.9500    1.4120 O.2    69  ASN69      -0.2715
     34  CB       107.9600   45.5070    3.5880 C.3    69  ASN69       0.1195
     35  CG       108.4330   46.5950    4.5370 C.2    69  ASN69       0.2630
     36  OD1      108.5620   46.3730    5.7410 O.2    69  ASN69      -0.2716
     37  ND2      108.6880   47.7830    3.9970 N.am   69  ASN69      -0.0877
     38  N        104.8860   44.6570    1.9350 N.am   70  PHE70      -0.1974
     39  CA       104.2140   43.5320    1.2920 C.3    70  PHE70       0.1639
     40  C        103.0730   44.0190    0.4040 C.2    70  PHE70       0.2290
     41  O        102.6860   43.3510   -0.5540 O.2    70  PHE70      -0.2864
     42  CB       103.6830   42.5520    2.3450 C.3    70  PHE70       0.0560
     43  CG       104.7560   41.9410    3.2120 C.ar   70  PHE70      -0.0200
     44  CD1      105.2560   42.6250    4.3140 C.ar   70  PHE70      -0.0042
     45  CD2      105.2560   40.6760    2.9340 C.ar   70  PHE70      -0.0042
     46  CE1      106.2430   42.0650    5.1130 C.ar   70  PHE70      -0.0003
     47  CE2      106.2400   40.1100    3.7290 C.ar   70  PHE70      -0.0003
     48  CZ       106.7340   40.8070    4.8200 C.ar   70  PHE70      -0.0000
@<TRIPOS>BOND
     1    41    40    2
     2    40    39    1
     3    39    38    1
     4    39    42    1
     5    33    32    2
     6    28    27    2
     7    38    32   am
     8    32    31    1
     9    42    43    1
    10    31    30    1
    11    31    34    1
    12    45    43   ar
    13    45    47   ar
    14    27    30   am
    15    27    26    1
    16    43    44   ar
    17    34    35    1
    18    47    48   ar
    19    37    35   am
    20    26    29    1
    21    26    25    1
    22    44    46   ar
    23    35    36    2
    24    48    46   ar
    25    21    20    2
    26    25    20   am
    27    20    19    1
    28    14    13    2
    29    19    22    1
    30    19    18    1
    31    22    23    1
    32    13    18   am
    33    13    12    1
    34    18    24    1
    35    16    15    1
    36    23    24    1
    37    11    12    1
    38    11     8   am
    39    12    15    1
    40    15    17    1
    41     7    10    1
    42     7     8    1
    43     7     6    1
    44     4     3    2
    45     8     9    2
    46     3     6   am
    47     3     2    1
    48     2     5    1
    49     2     1    1
