@<TRIPOS>MOLECULE
4h2v_H2V_C_1.pdb
 25 24 0 0 0
SMALL
GASTEIGER

@<TRIPOS>ATOM
      1  C         93.4520   34.8730    8.3140 C.3   101  H2V101      0.0056
      2  N         89.1080   36.6310    9.4950 N.am  101  H2V101     -0.2028
      3  O         91.5900   34.6470    6.3890 O.3   101  H2V101     -0.2952
      4  P         92.1560   33.7890    5.1770 P.3   101  H2V101      0.3942
      5  S         85.2320   37.1790   16.1350 S.3   101  H2V101     -0.0738
      6  C1        92.4840   36.0410    8.1010 C.3   101  H2V101      0.0646
      7  N1        87.9890   35.9510   13.4420 N.am  101  H2V101     -0.2044
      8  O1        91.5810   32.3670    5.3170 O.3   101  H2V101     -0.1425
      9  C2        93.2510   37.3530    8.2780 C.3   101  H2V101      0.0056
     10  N2        84.1050   39.9230   17.9420 N.3   101  H2V101     -0.1220
     11  O2        91.7240   34.4570    3.8670 O.3   101  H2V101     -0.1425
     12  C3        91.8700   36.0220    6.6880 C.3   101  H2V101      0.1537
     13  C4        91.4080   35.9530    9.2130 C.3   101  H2V101      0.2312
     14  O4        91.7190   34.8080    9.9940 O.3   101  H2V101     -0.2131
     15  C5        89.9200   35.8440    8.7980 C.2   101  H2V101      0.2719
     16  O5        89.5050   35.0250    7.9800 O.2   101  H2V101     -0.2706
     17  C6        87.7330   36.2530    9.7710 C.3   101  H2V101      0.1248
     18  O6        87.5600   37.7030   12.1060 O.2   101  H2V101     -0.2733
     19  C7        87.6390   35.5390   11.0950 C.3   101  H2V101      0.1102
     20  O7        85.0410   39.3660   14.7180 O.2   101  H2V101     -0.2829
     21  C8        87.7480   36.4970   12.2560 C.2   101  H2V101      0.2432
     22  C9        87.5150   36.5620   14.6740 C.3   101  H2V101      0.1272
     23  C10       86.0040   36.6430   14.5890 C.3   101  H2V101      0.0884
     24  C11       84.6640   38.7830   15.7000 C.2   101  H2V101      0.2180
     25  C12       83.6310   39.3560   16.6930 C.3   101  H2V101      0.1846
@<TRIPOS>BOND
     1    11     4    1
     2     4     8    1
     3     4     3    1
     4     3    12    1
     5    12     6    1
     6    16    15    2
     7     6     9    1
     8     6     1    1
     9     6    13    1
    10    15    13    1
    11    15     2   am
    12    13    14    1
    13     2    17    1
    14    17    19    1
    15    19    21    1
    16    18    21    2
    17    21     7   am
    18     7    22    1
    19    23    22    1
    20    23     5    1
    21    20    24    2
    22    24     5    1
    23    24    25    1
    24    25    10    1
