@<TRIPOS>MOLECULE
4h2v_AMP_A_1.pdb
 23 25 0 0 0
SMALL
GASTEIGER

@<TRIPOS>ATOM
      1  P         87.3240   42.9690   18.7730 P.3   402  AMP402      0.5327
      2  O1P       87.2130   43.8820   17.5600 O.2   402  AMP402     -0.2224
      3  O2P       88.7020   42.6990   19.2820 O.3   402  AMP402     -0.1145
      4  O3P       86.6810   41.6010   18.5590 O.3   402  AMP402     -0.1145
      5  O5'       86.5510   43.5820   20.0310 O.3   402  AMP402     -0.2675
      6  C5'       85.2900   44.2210   19.9140 C.3   402  AMP402      0.1860
      7  C4'       85.2580   45.4570   20.7840 C.3   402  AMP402      0.1823
      8  O4'       85.3930   45.0640   22.1710 O.3   402  AMP402     -0.3135
      9  C3'       86.4140   46.4170   20.5540 C.3   402  AMP402      0.2184
     10  O3'       86.1760   47.3120   19.4770 O.3   402  AMP402     -0.2174
     11  C2'       86.5660   47.1250   21.8940 C.3   402  AMP402      0.2570
     12  O2'       85.6900   48.2330   21.9640 O.3   402  AMP402     -0.2130
     13  C1'       86.0950   46.0540   22.8920 C.3   402  AMP402      0.3186
     14  N9        87.2370   45.4270   23.5740 N.pl3 402  AMP402     -0.1439
     15  C8        88.1010   44.5060   23.0420 C.3   402  AMP402      0.3377
     16  N7        89.0990   44.1920   23.8320 N.2   402  AMP402     -0.2095
     17  C5        88.8680   44.9490   24.9700 C.2   402  AMP402      0.2526
     18  C6        89.5510   45.0460   26.2010 C.2   402  AMP402      0.4393
     19  N6        90.6130   44.2930   26.5230 N.pl3 402  AMP402      0.2180
     20  N1        89.0580   45.9010   27.1270 N.2   402  AMP402      0.0021
     21  C2        87.9450   46.5860   26.8430 C.3   402  AMP402      0.5254
     22  N3        87.1970   46.5480   25.7350 N.2   402  AMP402     -0.0055
     23  C4        87.7200   45.7110   24.8290 C.2   402  AMP402      0.3518
@<TRIPOS>BOND
     1     2     1    2
     2     4     1    1
     3     1     3    1
     4     1     5    1
     5    10     9    1
     6     6     5    1
     7     6     7    1
     8     9     7    1
     9     9    11    1
    10     7     8    1
    11    11    12    1
    12    11    13    1
    13     8    13    1
    14    13    14    1
    15    15    14    1
    16    15    16    1
    17    14    23    1
    18    16    17    2
    19    23    17    1
    20    23    22    2
    21    17    18    1
    22    22    21    1
    23    18    19    1
    24    18    20    2
    25    21    20    1
