@<TRIPOS>MOLECULE
4h2w_AMP_B_1.pdb
 23 25 0 0 0
SMALL
GASTEIGER

@<TRIPOS>ATOM
      1  P        -18.0300  -17.7120   46.9090 P.3   402  AMP402      0.5327
      2  O1P      -16.7220  -17.0320   47.1080 O.3   402  AMP402     -0.1145
      3  O2P      -19.0790  -17.5810   48.0020 O.3   402  AMP402     -0.1145
      4  O3P      -17.8530  -19.1890   46.5760 O.2   402  AMP402     -0.2224
      5  O5'      -18.6580  -17.1430   45.5570 O.3   402  AMP402     -0.2675
      6  C5'      -19.4450  -15.9690   45.5590 C.3   402  AMP402      0.1860
      7  C4'      -20.5610  -16.0720   44.5550 C.3   402  AMP402      0.1823
      8  O4'      -20.0040  -16.2440   43.2240 O.3   402  AMP402     -0.3135
      9  C3'      -21.4670  -17.2700   44.7410 C.3   402  AMP402      0.2184
     10  O3'      -22.4730  -17.0330   45.7130 O.3   402  AMP402     -0.2174
     11  C2'      -22.0130  -17.5170   43.3400 C.3   402  AMP402      0.2570
     12  O2'      -23.1420  -16.6970   43.0900 O.3   402  AMP402     -0.2130
     13  C1'      -20.8480  -17.0540   42.4460 C.3   402  AMP402      0.3186
     14  N9       -20.0610  -18.1910   41.9330 N.pl3 402  AMP402     -0.1439
     15  C8       -19.1620  -18.9630   42.6260 C.3   402  AMP402      0.3377
     16  N7       -18.6470  -19.9420   41.9240 N.2   402  AMP402     -0.2095
     17  C5       -19.2530  -19.8140   40.6840 C.2   402  AMP402      0.2526
     18  C6       -19.1670  -20.5730   39.5010 C.2   402  AMP402      0.4393
     19  N6       -18.3730  -21.6370   39.3590 N.pl3 402  AMP402      0.2180
     20  N1       -19.9360  -20.1970   38.4560 N.2   402  AMP402      0.0021
     21  C2       -20.7130  -19.1190   38.5860 C.3   402  AMP402      0.5254
     22  N3       -20.8650  -18.3170   39.6440 N.2   402  AMP402     -0.0055
     23  C4       -20.1160  -18.7320   40.6700 C.2   402  AMP402      0.3518
@<TRIPOS>BOND
     1    20    21    1
     2    20    18    2
     3    21    22    1
     4    19    18    1
     5    18    17    1
     6    22    23    2
     7    23    17    1
     8    23    14    1
     9    17    16    2
    10    16    15    1
    11    14    13    1
    12    14    15    1
    13    13     8    1
    14    13    11    1
    15    12    11    1
    16     8     7    1
    17    11     9    1
    18     7     9    1
    19     7     6    1
    20     9    10    1
    21     5     6    1
    22     5     1    1
    23     4     1    2
    24     1     2    1
    25     1     3    1
