@<TRIPOS>MOLECULE
4h2w_PNS_C_1.pdb
 21 20 0 0 0
SMALL
GASTEIGER

@<TRIPOS>ATOM
      1  O23      -12.1780  -20.3760   62.7720 O.3   101  PNS101     -0.1425
      2  P24      -11.2080  -21.0710   61.7900 P.3   101  PNS101      0.3942
      3  O25      -11.5030  -22.5580   61.5820 O.3   101  PNS101     -0.1425
      4  O27      -11.2810  -20.3690   60.3530 O.3   101  PNS101     -0.2952
      5  C28      -11.5000  -18.9670   60.1300 C.3   101  PNS101      0.1537
      6  C29      -10.9710  -18.6390   58.7200 C.3   101  PNS101      0.0646
      7  C30      -11.4120  -17.2120   58.3760 C.3   101  PNS101      0.0056
      8  C31       -9.4380  -18.7150   58.6860 C.3   101  PNS101      0.0056
      9  C32      -11.5470  -19.6220   57.6680 C.3   101  PNS101      0.2312
     10  O33      -12.9400  -19.8350   57.8270 O.3   101  PNS101     -0.2131
     11  C34      -11.2880  -19.1440   56.2170 C.2   101  PNS101      0.2719
     12  O35      -10.1920  -19.3410   55.6940 O.2   101  PNS101     -0.2706
     13  N36      -12.2840  -18.5140   55.5950 N.am  101  PNS101     -0.2028
     14  C37      -12.0910  -17.7880   54.3480 C.3   101  PNS101      0.1248
     15  C38      -11.9430  -18.7100   53.1650 C.3   101  PNS101      0.1102
     16  C39      -11.6480  -17.9400   51.9040 C.2   101  PNS101      0.2432
     17  O40      -10.4950  -17.6580   51.5890 O.2   101  PNS101     -0.2733
     18  N41      -12.7060  -17.5670   51.1860 N.am  101  PNS101     -0.2044
     19  C42      -12.6120  -16.6960   50.0230 C.3   101  PNS101      0.1276
     20  C43      -12.6860  -15.2110   50.4440 C.3   101  PNS101      0.0920
     21  S44      -14.2730  -14.9990   51.2980 S.3   101  PNS101     -0.0802
@<TRIPOS>BOND
     1    19    20    1
     2    19    18    1
     3    20    21    1
     4    18    16   am
     5    17    16    2
     6    16    15    1
     7    15    14    1
     8    14    13    1
     9    13    11   am
    10    12    11    2
    11    11     9    1
    12     9    10    1
    13     9     6    1
    14     7     6    1
    15     8     6    1
    16     6     5    1
    17     5     4    1
    18     4     2    1
    19     3     2    1
    20     2     1    1
