@<TRIPOS>MOLECULE
4h2w_5GP_A_1.pdb
 24 26 0 0 0
SMALL
GASTEIGER

@<TRIPOS>ATOM
      1  P         -3.3920   -4.6440   18.5260 P.3   403  5GP403      0.5327
      2  O1P       -2.0220   -5.0560   18.9980 O.3   403  5GP403     -0.1145
      3  O2P       -4.3800   -5.7330   18.0880 O.3   403  5GP403     -0.1145
      4  O3P       -3.3410   -3.5930   17.4140 O.2   403  5GP403     -0.2224
      5  O5'       -4.0700   -3.9050   19.7620 O.3   403  5GP403     -0.2675
      6  C5'       -5.3030   -3.2250   19.6090 C.3   403  5GP403      0.1859
      7  C4'       -5.3700   -2.0220   20.5100 C.3   403  5GP403      0.1801
      8  O4'       -5.2780   -2.4490   21.8890 O.3   403  5GP403     -0.3326
      9  C3'       -4.2390   -1.0280   20.3490 C.3   403  5GP403      0.2158
     10  O3'       -4.4700   -0.1240   19.2750 O.3   403  5GP403     -0.2175
     11  C2'       -4.1870   -0.3460   21.7110 C.3   403  5GP403      0.2310
     12  O2'       -5.1640    0.6760   21.7640 O.3   403  5GP403     -0.2158
     13  C1'       -4.6110   -1.4790   22.6590 C.3   403  5GP403      0.2293
     14  N9        -3.4650   -2.1430   23.3150 N.pl3 403  5GP403     -0.2354
     15  C8        -2.6190   -3.0530   22.7340 C.3   403  5GP403      0.2246
     16  N7        -1.6710   -3.4710   23.5370 N.2   403  5GP403     -0.2322
     17  C5        -1.9050   -2.7880   24.7230 C.2   403  5GP403      0.2182
     18  C6        -1.1930   -2.7850   25.9640 C.1   403  5GP403      0.2372
     19  O6        -0.2030   -3.4610   26.2380 O.2   403  5GP403     -0.2069
     20  N1        -1.7540   -1.9260   26.8980 N.2   403  5GP403     -0.2485
     21  C2        -2.8830   -1.1850   26.6950 C.1   403  5GP403      0.2531
     22  N2        -3.3570   -0.4900   27.7420 N.pl3 403  5GP403     -0.0226
     23  N3        -3.5520   -1.1710   25.5410 N.2   403  5GP403     -0.3074
     24  C4        -3.0110   -1.9790   24.6060 C.2   403  5GP403      0.2300
@<TRIPOS>BOND
     1     4     1    2
     2     3     1    1
     3     1     2    1
     4     1     5    1
     5    10     9    1
     6     6     5    1
     7     6     7    1
     8     9     7    1
     9     9    11    1
    10     7     8    1
    11    11    12    1
    12    11    13    1
    13     8    13    1
    14    13    14    1
    15    15    14    1
    16    15    16    1
    17    14    24    1
    18    16    17    2
    19    24    17    1
    20    24    23    2
    21    17    18    1
    22    23    21    2
    23    18    19    2
    24    18    20    2
    25    21    20    2
    26    21    22    1
