@<TRIPOS>MOLECULE
4h2x_PNS_C_1.pdb
 21 20 0 0 0
SMALL
GASTEIGER

@<TRIPOS>ATOM
      1  O23      -12.3960  -20.6940   62.8320 O.3   101  PNS101     -0.1425
      2  P24      -11.3160  -21.2890   61.9000 P.3   101  PNS101      0.3942
      3  O25      -11.4810  -22.7900   61.6380 O.3   101  PNS101     -0.1425
      4  O27      -11.3600  -20.5450   60.4730 O.3   101  PNS101     -0.2952
      5  C28      -11.3960  -19.1210   60.2830 C.3   101  PNS101      0.1537
      6  C29      -10.9090  -18.8240   58.8430 C.3   101  PNS101      0.0646
      7  C30      -11.2940  -17.3800   58.5060 C.3   101  PNS101      0.0056
      8  C31       -9.3860  -18.9740   58.7410 C.3   101  PNS101      0.0056
      9  C32      -11.5760  -19.7770   57.8180 C.3   101  PNS101      0.2312
     10  O33      -12.9610  -19.9590   58.0640 O.3   101  PNS101     -0.2131
     11  C34      -11.3740  -19.2950   56.3520 C.2   101  PNS101      0.2719
     12  O35      -10.3190  -19.5540   55.7770 O.2   101  PNS101     -0.2706
     13  N36      -12.3590  -18.6010   55.7780 N.am  101  PNS101     -0.2028
     14  C37      -12.1830  -17.8800   54.5260 C.3   101  PNS101      0.1248
     15  C38      -12.0780  -18.8080   53.3420 C.3   101  PNS101      0.1102
     16  C39      -11.7640  -18.0550   52.0730 C.2   101  PNS101      0.2432
     17  O40      -10.6160  -17.7000   51.8150 O.2   101  PNS101     -0.2733
     18  N41      -12.8020  -17.8020   51.2760 N.am  101  PNS101     -0.2044
     19  C42      -12.6880  -17.1340   49.9840 C.3   101  PNS101      0.1276
     20  C43      -12.6210  -15.5910   50.0890 C.3   101  PNS101      0.0920
     21  S44      -14.0480  -15.0620   51.0770 S.3   101  PNS101     -0.0802
@<TRIPOS>BOND
     1    19    20    1
     2    19    18    1
     3    20    21    1
     4    18    16   am
     5    17    16    2
     6    16    15    1
     7    15    14    1
     8    14    13    1
     9    12    11    2
    10    13    11   am
    11    11     9    1
    12     9    10    1
    13     9     6    1
    14     7     6    1
    15     8     6    1
    16     6     5    1
    17     5     4    1
    18     4     2    1
    19     3     2    1
    20     2     1    1
