@<TRIPOS>MOLECULE
4h2x_G5A_A_1.pdb
 27 29 0 0 0
SMALL
GASTEIGER

@<TRIPOS>ATOM
      1  C         -6.0020   -6.0190   17.7640 C.2   401  G5A401      0.2818
      2  N         -7.6800   -7.5600   16.8960 N.3   401  G5A401     -0.1209
      3  O         -5.7110   -6.7570   18.7040 O.2   401  G5A401     -0.2700
      4  S         -3.7000   -4.5120   18.2370 S.3   401  G5A401      0.0852
      5  N1        -1.6230   -1.9700   26.8750 N.2   401  G5A401      0.0021
      6  C2        -2.7190   -1.2550   26.6130 C.3   401  G5A401      0.5254
      7  N3        -3.4530   -1.2250   25.4960 N.2   401  G5A401     -0.0055
      8  C4        -2.9540   -2.0470   24.5670 C.2   401  G5A401      0.3518
      9  C5        -1.8420   -2.8580   24.6950 C.2   401  G5A401      0.2526
     10  C6        -1.1500   -2.8050   25.9200 C.2   401  G5A401      0.4393
     11  N6        -0.0650   -3.5310   26.1870 N.pl3 401  G5A401      0.2180
     12  N7        -1.6210   -3.5790   23.5300 N.2   401  G5A401     -0.2095
     13  C8        -2.5840   -3.1810   22.7330 C.3   401  G5A401      0.3377
     14  N9        -3.4210   -2.2490   23.2890 N.pl3 401  G5A401     -0.1439
     15  CA        -7.2430   -6.1760   16.8900 C.3   401  G5A401      0.1973
     16  C1*       -4.5170   -1.5620   22.6120 C.3   401  G5A401      0.3186
     17  O1S       -3.0260   -5.6880   18.6500 O.3   401  G5A401     -0.0508
     18  C2*       -4.0690   -0.4570   21.6350 C.3   401  G5A401      0.2570
     19  O2*       -4.9420    0.6570   21.7350 O.3   401  G5A401     -0.2130
     20  O2S       -3.0490   -3.4280   17.5960 O.3   401  G5A401     -0.0508
     21  C3*       -4.2460   -1.1220   20.2670 C.3   401  G5A401      0.2185
     22  O3*       -4.5790   -0.2120   19.2230 O.3   401  G5A401     -0.2174
     23  N3S       -5.1180   -4.9410   17.4480 N.am  401  G5A401     -0.0576
     24  C4*       -5.4420   -2.0200   20.5140 C.3   401  G5A401      0.1842
     25  O4*       -5.2390   -2.5140   21.8530 O.3   401  G5A401     -0.3135
     26  C5*       -5.5640   -3.1760   19.5590 C.3   401  G5A401      0.2064
     27  O5*       -4.2940   -3.8700   19.5390 O.3   401  G5A401     -0.2230
@<TRIPOS>BOND
     1    15     2    1
     2    15     1    1
     3    23     1   am
     4    23     4    1
     5    20     4    1
     6     1     3    2
     7     4    17    1
     8     4    27    1
     9    22    21    1
    10    27    26    1
    11    26    24    1
    12    21    24    1
    13    21    18    1
    14    24    25    1
    15    18    19    1
    16    18    16    1
    17    25    16    1
    18    16    14    1
    19    13    14    1
    20    13    12    1
    21    14     8    1
    22    12     9    2
    23     8     9    1
    24     8     7    2
    25     9    10    1
    26     7     6    1
    27    10    11    1
    28    10     5    2
    29     6     5    1
