@<TRIPOS>MOLECULE
4h2y_PNS_C_1.pdb
 21 20 0 0 0
SMALL
GASTEIGER

@<TRIPOS>ATOM
      1  O23      -12.2760  -20.8790   63.3100 O.3   101  PNS101     -0.1425
      2  P24      -11.1880  -21.3930   62.3500 P.3   101  PNS101      0.3942
      3  O25      -11.3560  -22.8750   61.9840 O.3   101  PNS101     -0.1425
      4  O27      -11.2350  -20.5450   60.9930 O.3   101  PNS101     -0.2952
      5  C28      -11.2140  -19.1090   60.8960 C.3   101  PNS101      0.1537
      6  C29      -10.8220  -18.7510   59.4380 C.3   101  PNS101      0.0646
      7  C30      -11.3000  -17.3220   59.1470 C.3   101  PNS101      0.0056
      8  C31       -9.2980  -18.8150   59.2660 C.3   101  PNS101      0.0056
      9  C32      -11.4890  -19.7260   58.4330 C.3   101  PNS101      0.2312
     10  O33      -12.8850  -19.8500   58.6530 O.3   101  PNS101     -0.2131
     11  C34      -11.2610  -19.2990   56.9580 C.2   101  PNS101      0.2719
     12  O35      -10.1970  -19.5760   56.4090 O.2   101  PNS101     -0.2706
     13  N36      -12.2400  -18.6300   56.3460 N.am  101  PNS101     -0.2028
     14  C37      -12.0580  -17.9580   55.0660 C.3   101  PNS101      0.1248
     15  C38      -11.8610  -18.9280   53.9200 C.3   101  PNS101      0.1102
     16  C39      -11.7180  -18.2010   52.6070 C.2   101  PNS101      0.2432
     17  O40      -10.6430  -17.7220   52.2510 O.2   101  PNS101     -0.2733
     18  N41      -12.8350  -18.0690   51.9000 N.am  101  PNS101     -0.2044
     19  C42      -12.9820  -17.1060   50.8200 C.3   101  PNS101      0.1276
     20  C43      -14.0650  -16.0940   51.2400 C.3   101  PNS101      0.0920
     21  S44      -13.4020  -14.4690   50.7930 S.3   101  PNS101     -0.0802
@<TRIPOS>BOND
     1    21    20    1
     2    19    20    1
     3    19    18    1
     4    18    16   am
     5    17    16    2
     6    16    15    1
     7    15    14    1
     8    14    13    1
     9    13    11   am
    10    12    11    2
    11    11     9    1
    12     9    10    1
    13     9     6    1
    14     7     6    1
    15     8     6    1
    16     6     5    1
    17     5     4    1
    18     4     2    1
    19     3     2    1
    20     2     1    1
