@<TRIPOS>MOLECULE
4h2y_ATP_A_1.pdb
 31 33 0 0 0
SMALL
GASTEIGER

@<TRIPOS>ATOM
      1  PG         2.3140   -2.4080   21.0840 P.3   402  ATP402      0.5373
      2  O1G        3.6880   -2.5580   20.4340 O.2   402  ATP402     -0.2221
      3  O2G        1.9020   -0.9520   21.2790 O.3   402  ATP402     -0.1143
      4  O3G        2.2070   -3.0890   22.4580 O.3   402  ATP402     -0.1143
      5  PB        -0.2680   -3.0070   19.3290 P.3   402  ATP402      0.2277
      6  O1B       -1.0370   -1.7470   19.4720 O.3   402  ATP402     -0.4368
      7  O2B        0.3780   -3.5390   18.0370 O.2   402  ATP402     -0.5168
      8  O3B        1.0380   -2.9120   20.2320 O.3   402  ATP402     -0.2258
      9  PA        -2.7030   -4.5200   18.6000 P.3   402  ATP402      0.2189
     10  O1A       -2.4240   -5.9690   18.6890 O.3   402  ATP402     -0.4371
     11  O2A       -2.6390   -3.7040   17.2990 O.2   402  ATP402     -0.5170
     12  O3A       -1.5200   -4.0410   19.6540 O.3   402  ATP402     -0.2700
     13  O5'       -4.2410   -4.2100   18.8900 O.3   402  ATP402     -0.3112
     14  C5'       -4.5560   -4.0840   20.2810 C.3   402  ATP402      0.1813
     15  C4'       -5.2150   -2.7660   20.6010 C.3   402  ATP402      0.1821
     16  O4'       -5.4630   -2.7360   22.0150 O.3   402  ATP402     -0.3135
     17  C3'       -4.4590   -1.4850   20.2450 C.3   402  ATP402      0.2184
     18  O3'       -5.2540   -0.6750   19.3830 O.3   402  ATP402     -0.2174
     19  C2'       -4.2320   -0.7630   21.5860 C.3   402  ATP402      0.2570
     20  O2'       -5.0130    0.4170   21.7140 O.3   402  ATP402     -0.2130
     21  C1'       -4.6840   -1.7570   22.6550 C.3   402  ATP402      0.3186
     22  N9        -3.5880   -2.4060   23.3600 N.pl3 402  ATP402     -0.1439
     23  C8        -2.6470   -3.2450   22.8230 C.3   402  ATP402      0.3377
     24  N7        -1.6650   -3.5360   23.6380 N.2   402  ATP402     -0.2095
     25  C5        -1.9890   -2.8510   24.7980 C.2   402  ATP402      0.2526
     26  C6        -1.3220   -2.7110   26.0230 C.2   402  ATP402      0.4393
     27  N6        -0.1660   -3.3200   26.2990 N.pl3 402  ATP402      0.2180
     28  N1        -1.8930   -1.9210   26.9620 N.2   402  ATP402      0.0021
     29  C2        -3.0610   -1.3350   26.6860 C.3   402  ATP402      0.5254
     30  N3        -3.7880   -1.4010   25.5640 N.2   402  ATP402     -0.0055
     31  C4        -3.1830   -2.1700   24.6490 C.2   402  ATP402      0.3518
@<TRIPOS>BOND
     1    11     9    2
     2     7     5    2
     3     9    10    1
     4     9    13    1
     5     9    12    1
     6    13    14    1
     7     5     6    1
     8     5    12    1
     9     5     8    1
    10    18    17    1
    11     8     1    1
    12    17    15    1
    13    17    19    1
    14    14    15    1
    15     2     1    2
    16    15    16    1
    17     1     3    1
    18     1     4    1
    19    19    20    1
    20    19    21    1
    21    16    21    1
    22    21    22    1
    23    23    22    1
    24    23    24    1
    25    22    31    1
    26    24    25    2
    27    31    25    1
    28    31    30    2
    29    25    26    1
    30    30    29    1
    31    26    27    1
    32    26    28    2
    33    29    28    1
