@<TRIPOS>MOLECULE
4h38_0YX_A_1.pdb
 28 29 0 0 0
SMALL
GASTEIGER

@<TRIPOS>ATOM
      1  OAC       44.7130   27.9760   63.8040 O.3   301  0YX301     -0.3541
      2  PBB       45.4000   26.4670   63.7260 P.3   301  0YX301      0.1424
      3  OAD       44.8920   25.9040   65.0990 O.3   301  0YX301     -0.3541
      4  OAB       46.8720   26.4800   63.7980 O.2   301  0YX301     -0.4556
      5  CBA       44.4630   25.4140   62.3870 C.ar  301  0YX301      0.0633
      6  CAL       44.3390   24.1310   62.8120 C.ar  301  0YX301      0.0124
      7  CAW       43.6790   23.1550   62.1260 C.ar  301  0YX301      0.0349
      8 BRE        43.7400   21.4610   62.9880 Br    301  0YX301     -0.0490
      9  CAI       43.0730   23.4490   60.9360 C.ar  301  0YX301      0.0098
     10  CAJ       43.1590   24.7450   60.4630 C.ar  301  0YX301      0.0375
     11  CAZ       43.8470   25.7300   61.1390 C.ar  301  0YX301      0.1416
     12  OAV       43.8990   26.9990   60.6680 O.3   301  0YX301     -0.4705
     13  CAT       43.4720   27.1230   59.3320 C.3   301  0YX301      0.2321
     14  CAX       43.6210   28.3980   58.8860 C.ar  301  0YX301      0.0242
     15  CAK       43.7050   29.4380   59.7670 C.ar  301  0YX301      0.0362
     16  CAG       43.6830   28.6360   57.5310 C.ar  301  0YX301     -0.0005
     17  CAF       43.8420   29.9110   57.0380 C.ar  301  0YX301      0.0029
     18  CAH       43.9150   30.9760   57.9270 C.ar  301  0YX301      0.0369
     19  CAY       43.8450   30.7220   59.2830 C.ar  301  0YX301      0.1384
     20  OAU       43.9320   31.7510   60.1060 O.3   301  0YX301     -0.4755
     21  CAS       43.4740   32.7870   59.2770 C.3   301  0YX301      0.2054
     22  CAR       44.5950   33.7400   58.9380 C.3   301  0YX301      0.0473
     23  CAQ       45.0490   34.5060   60.1640 C.3   301  0YX301      0.0038
     24  CAP       44.8940   36.0060   59.8980 C.3   301  0YX301      0.0001
     25  CAO       45.6260   36.8770   60.9180 C.3   301  0YX301      0.0000
     26  CAN       44.8440   38.1630   61.0150 C.3   301  0YX301      0.0000
     27  CAM       45.6000   39.4350   60.6860 C.3   301  0YX301      0.0000
     28  CAA       45.5610   40.3470   61.9030 C.3   301  0YX301      0.0000
@<TRIPOS>BOND
     1    17    16   ar
     2    17    18   ar
     3    16    14   ar
     4    18    19   ar
     5    14    13    1
     6    14    15   ar
     7    22    21    1
     8    22    23    1
     9    21    20    1
    10    19    15   ar
    11    19    20    1
    12    13    12    1
    13    24    23    1
    14    24    25    1
    15    10     9   ar
    16    10    11   ar
    17    12    11    1
    18    27    26    1
    19    27    28    1
    20    25    26    1
    21     9     7   ar
    22    11     5   ar
    23     7     6   ar
    24     7     8    1
    25     5     6   ar
    26     5     2    1
    27     2     4    2
    28     2     1    1
    29     2     3    1
