@<TRIPOS>MOLECULE
4h3a_0YY_A_1.pdb
 23 23 0 0 0
SMALL
GASTEIGER

@<TRIPOS>ATOM
      1  OAB       45.2250   26.2840   67.1370 O.co2 301  0YY301     -0.2369
      2  CAS       45.0050   25.1920   67.6750 C.2   301  0YY301      0.4262
      3  OAD       45.2280   25.0200   68.8780 O.co2 301  0YY301     -0.2369
      4  CAU       44.4470   24.0700   66.8360 C.2   301  0YY301      0.2779
      5  OAE       44.2150   22.8520   67.4010 O.2   301  0YY301     -0.2794
      6  CAF       44.2130   24.4140   65.3650 C.2   301  0YY301      0.0910
      7  CAT       43.6950   23.4430   64.2970 C.2   301  0YY301      0.1991
      8  OAC       43.3130   22.3050   64.5460 O.2   301  0YY301     -0.2865
      9  CAW       43.5490   24.1150   63.0820 C.ar  301  0YY301      0.0393
     10  CAJ       44.4650   25.1180   62.7980 C.ar  301  0YY301      0.0063
     11  CAH       44.3990   25.8930   61.6530 C.ar  301  0YY301      0.0370
     12  CAI       42.4950   23.9230   62.2070 C.ar  301  0YY301      0.0063
     13  CAG       42.4200   24.7080   61.0670 C.ar  301  0YY301      0.0370
     14  CAV       43.3600   25.6750   60.8020 C.ar  301  0YY301      0.1386
     15  OAR       43.2650   26.4130   59.7140 O.3   301  0YY301     -0.4755
     16  CAQ       44.1650   27.4570   59.7580 C.3   301  0YY301      0.2054
     17  CAP       43.9970   28.2520   58.4850 C.3   301  0YY301      0.0473
     18  CAO       44.4280   29.6870   58.7250 C.3   301  0YY301      0.0038
     19  CAN       43.8200   30.2060   60.0300 C.3   301  0YY301      0.0001
     20  CAM       44.2170   31.6480   60.3110 C.3   301  0YY301      0.0000
     21  CAL       43.2950   32.6410   59.6370 C.3   301  0YY301      0.0000
     22  CAK       44.0910   33.8000   59.0560 C.3   301  0YY301      0.0000
     23  CAA       45.2430   34.1560   59.9870 C.3   301  0YY301      0.0000
@<TRIPOS>BOND
     1    17    18    1
     2    17    16    1
     3    18    19    1
     4    22    21    1
     5    22    23    1
     6    21    20    1
     7    15    16    1
     8    15    14    1
     9    19    20    1
    10    14    13   ar
    11    14    11   ar
    12    13    12   ar
    13    11    10   ar
    14    12     9   ar
    15    10     9   ar
    16     9     7    1
    17     7     8    2
    18     7     6    1
    19     6     4    2
    20     4     5    1
    21     4     2    1
    22     1     2   ar
    23     2     3   ar
