@<TRIPOS>MOLECULE
4h3c_0YZ_A_1.pdb
 25 25 0 0 0
SMALL
GASTEIGER

@<TRIPOS>ATOM
      1  OAB       43.6830   20.4740   66.3350 O.co2 301  0YZ301     -0.2369
      2  CAU       42.6770   19.7970   66.6280 C.2   301  0YZ301      0.4262
      3  OAD       42.5280   19.3790   67.7810 O.co2 301  0YZ301     -0.2369
      4  CAW       41.6050   19.5150   65.5700 C.2   301  0YZ301      0.2779
      5  OAE       40.4940   18.7410   65.7990 O.2   301  0YZ301     -0.2794
      6  CAF       41.9010   20.0800   64.2100 C.2   301  0YZ301      0.0910
      7  CAV       40.9090   19.8850   63.1320 C.2   301  0YZ301      0.1992
      8  OAC       39.9280   19.1950   63.3140 O.2   301  0YZ301     -0.2865
      9  CAY       41.3030   20.4400   61.9370 C.ar  301  0YZ301      0.0421
     10  CAJ       42.0540   21.5930   61.9350 C.ar  301  0YZ301      0.0401
     11  CAI       41.0030   19.8130   60.7610 C.ar  301  0YZ301      0.0034
     12  CAG       41.4290   20.3640   59.5830 C.ar  301  0YZ301      0.0032
     13  CAH       42.1800   21.4970   59.5750 C.ar  301  0YZ301      0.0369
     14  CAX       42.4740   22.1340   60.7410 C.ar  301  0YZ301      0.1387
     15  OAT       43.2100   23.2430   60.6060 O.3   301  0YZ301     -0.4755
     16  CAS       43.2670   24.2760   61.5180 C.3   301  0YZ301      0.2054
     17  CAR       44.2270   25.3180   60.9270 C.3   301  0YZ301      0.0473
     18  CAQ       43.5100   26.2040   59.9430 C.3   301  0YZ301      0.0038
     19  CAP       44.3410   27.4100   59.6110 C.3   301  0YZ301      0.0001
     20  CAO       43.8490   28.1040   58.3850 C.3   301  0YZ301      0.0000
     21  CAN       44.9010   29.1130   58.0510 C.3   301  0YZ301      0.0000
     22  CAM       44.9940   29.4090   56.5850 C.3   301  0YZ301      0.0000
     23  CAL       46.2790   30.1530   56.4750 C.3   301  0YZ301      0.0000
     24  CAK       46.8820   30.0560   55.1250 C.3   301  0YZ301      0.0000
     25  CAA       47.5590   31.3570   54.8470 C.3   301  0YZ301      0.0000
@<TRIPOS>BOND
     1    25    24    1
     2    24    23    1
     3    23    22    1
     4    22    21    1
     5    21    20    1
     6    20    19    1
     7    13    12   ar
     8    13    14   ar
     9    12    11   ar
    10    19    18    1
    11    18    17    1
    12    15    14    1
    13    15    16    1
    14    14    10   ar
    15    11     9   ar
    16    17    16    1
    17    10     9   ar
    18     9     7    1
    19     7     8    2
    20     7     6    1
    21     6     4    2
    22     4     5    1
    23     4     2    1
    24     1     2   ar
    25     2     3   ar
