@<TRIPOS>MOLECULE
4h3d_SHL_A_1.pdb
 12 12 0 0 0
SMALL
GASTEIGER

@<TRIPOS>ATOM
      1  OAD       50.0120  -15.2320   57.5890 O.co2 303  SHL303     -0.2412
      2  CAH       49.4930  -15.1920   58.7370 C.2   303  SHL303      0.4085
      3  OAA       48.5870  -14.3690   59.0210 O.co2 303  SHL303     -0.2412
      4  CAK       49.9360  -16.0700   59.7910 C.3   303  SHL303      0.2927
      5  OAG       49.1820  -16.0290   61.0080 O.2   303  SHL303     -0.4640
      6  CAF       49.6020  -16.7770   62.1040 C.2   303  SHL303      0.1594
      7  CAL       48.8950  -16.6430   63.2520 C.3   303  SHL303      0.0755
      8  CAJ       50.7170  -17.5210   61.9630 C.2   303  SHL303      0.2634
      9  OAC       51.1660  -18.2460   62.9950 O.2   303  SHL303     -0.2802
     10  CAI       51.3990  -17.5640   60.7730 C.2   303  SHL303      0.2368
     11  CAE       50.9960  -16.8760   59.6860 C.2   303  SHL303      0.0737
     12  OAB       52.4900  -18.3270   60.6710 O.2   303  SHL303     -0.2833
@<TRIPOS>BOND
     1     1     2   ar
     2     2     3   ar
     3     2     4    1
     4    11     4    1
     5    11    10    2
     6     4     5    1
     7    12    10    1
     8    10     8    1
     9     5     6    1
    10     8     6    2
    11     8     9    1
    12     6     7    1
