@<TRIPOS>MOLECULE
4h3f_10O_A_1.pdb
 33 37 0 0 0
SMALL
GASTEIGER

@<TRIPOS>ATOM
      1  C1        21.8620   10.3850   21.5640 C.3   502  10O502      0.2009
      2  C2        21.1720   11.6730   22.0590 C.3   502  10O502      0.1553
      3  N1        22.4630   11.3560   24.1820 N.am  502  10O502     -0.1395
      4  C3        22.4780    9.9840   23.9550 C.2   502  10O502      0.4490
      5  C4        21.8150   12.2610   23.3420 C.2   502  10O502      0.2924
      6  N2        22.1740    9.5010   22.7020 N.2   502  10O502     -0.0957
      7  C5        23.1090   10.7540   20.7800 C.ar  502  10O502      0.0452
      8  N3        19.5370   10.1670   21.3280 N.pl3 502  10O502     -0.2822
      9  C6        20.7860    9.7190   20.7100 C.3   502  10O502      0.1379
     10  C7        19.6950   11.3040   22.2440 C.3   502  10O502      0.1074
     11  C8        24.4860   10.6230   21.2060 C.ar  502  10O502      0.0060
     12  C9        25.4310   11.0600   20.2420 C.ar  502  10O502      0.0068
     13  S1        23.0970   11.4220   19.2090 S.2   502  10O502     -0.0874
     14  C10       24.7930   11.5310   19.0810 C.ar  502  10O502      0.0352
     15  C11       18.3400    9.5550   21.0370 C.2   502  10O502      0.1680
     16  N4        29.7790    9.2640   23.9810 N.1   502  10O502     -0.1908
     17  N5        22.7720    9.1390   24.9360 N.pl3 502  10O502      0.1440
     18  C12       26.9210   11.0300   20.4680 C.ar  502  10O502      0.0012
     19  C13       29.3580    9.7690   23.0340 C.1   502  10O502      0.1004
     20  O1        21.7440   13.4670   23.5620 O.2   502  10O502     -0.2563
     21  N6        18.3940    8.5740   20.1010 N.2   502  10O502     -0.3567
     22  C14       27.4740   10.4230   21.6210 C.ar  502  10O502      0.0103
     23  C15       23.1720   11.9050   25.3740 C.3   502  10O502      0.2161
     24  C16       28.8650   10.3990   21.8500 C.ar  502  10O502      0.0684
     25  C17       27.8260   11.6220   19.5440 C.ar  502  10O502      0.0001
     26  C18       17.1090    9.9060   21.6560 C.3   502  10O502      0.1011
     27  C19       29.2280   11.6010   19.7670 C.ar  502  10O502      0.0007
     28  C20       17.2840    7.9010   19.7290 C.2   502  10O502      0.2782
     29  C21       29.7600   10.9860   20.9270 C.ar  502  10O502      0.0103
     30  C22       15.9430    9.2020   21.2700 C.2   502  10O502     -0.0113
     31  C23       16.0290    8.1820   20.2890 C.2   502  10O502      0.0675
     32  O2        17.3610    6.8960   18.7670 O.2   502  10O502     -0.4476
     33  C24       18.6700    6.6660   18.2430 C.3   502  10O502      0.2553
@<TRIPOS>BOND
     1    33    32    1
     2    32    28    1
     3    14    13   ar
     4    14    12   ar
     5    13     7   ar
     6    25    27   ar
     7    25    18   ar
     8    28    21    2
     9    28    31    1
    10    27    29   ar
    11    21    15    2
    12    12    18    1
    13    12    11   ar
    14    31    30    2
    15    18    22   ar
    16     9     8    1
    17     9     1    1
    18     7    11   ar
    19     7     1    1
    20    29    24   ar
    21    15     8    1
    22    15    26    1
    23    30    26    1
    24     8    10    1
    25     1     2    1
    26     1     6    1
    27    22    24   ar
    28    24    19    1
    29     2    10    1
    30     2     5    1
    31     6     4    2
    32    19    16    3
    33     5    20    2
    34     5     3   am
    35     4     3    1
    36     4    17    1
    37     3    23    1
