@<TRIPOS>MOLECULE
4h3g_10Q_A_1.pdb
 33 37 0 0 0
SMALL
GASTEIGER

@<TRIPOS>ATOM
      1  C1        21.9550   10.7170   21.1860 C.3   502  10Q502      0.2008
      2  C2        21.4950   12.1180   21.6250 C.3   502  10Q502      0.1553
      3  N1        22.6910   11.6700   23.7900 N.am  502  10Q502     -0.1395
      4  C3        22.5710   10.2970   23.5800 C.2   502  10Q502      0.4490
      5  C4        22.2490   12.6340   22.8790 C.2   502  10Q502      0.2924
      6  N2        22.1730    9.8350   22.3520 N.2   502  10Q502     -0.0957
      7  C5        23.1850   10.8980   20.3110 C.ar  502  10Q502      0.0452
      8  N3        19.6300   10.7890   21.0670 N.pl3 502  10Q502     -0.2884
      9  C6        20.7880   10.1640   20.4320 C.3   502  10Q502      0.1374
     10  C7        19.9770   11.9990   21.8190 C.3   502  10Q502      0.1068
     11  C8        24.5600   10.8480   20.7490 C.ar  502  10Q502      0.0060
     12  C9        25.4990   11.0590   19.7140 C.ar  502  10Q502      0.0068
     13  S1        23.1580   11.2120   18.6280 S.2   502  10Q502     -0.0874
     14  C10       24.8630   11.2790   18.4680 C.ar  502  10Q502      0.0352
     15  C11       18.3210   10.2980   21.0180 C.ar  502  10Q502      0.1414
     16  N4        29.8160    9.5150   23.6020 N.1   502  10Q502     -0.1908
     17  N5        22.8590    9.4320   24.5560 N.pl3 502  10Q502      0.1440
     18  C12       26.9860   11.0580   19.9590 C.ar  502  10Q502      0.0012
     19  C13       17.7220    9.5050   19.9650 C.ar  502  10Q502      0.1000
     20  C14       29.4030    9.9630   22.6230 C.1   502  10Q502      0.1004
     21  O1        22.4380   13.8400   23.0230 O.2   502  10Q502     -0.2563
     22  C15       16.3810    9.0950   20.1020 C.ar  502  10Q502      0.0147
     23  C16       27.5210   10.5180   21.1540 C.ar  502  10Q502      0.0103
     24  C17       23.3360   12.1520   25.0490 C.3   502  10Q502      0.2161
     25  C18       28.9120   10.5210   21.4010 C.ar  502  10Q502      0.0684
     26  N6        17.5670   10.6430   22.1120 N.ar  502  10Q502     -0.2285
     27  C19       27.8980   11.6070   19.0170 C.ar  502  10Q502      0.0001
     28  C20       16.2800   10.2220   22.2300 C.ar  502  10Q502      0.1004
     29  C21       29.2940   11.6100   19.2590 C.ar  502  10Q502      0.0007
     30  C22       15.6440    9.4550   21.2480 C.ar  502  10Q502      0.0215
     31  C23       29.8160   11.0670   20.4580 C.ar  502  10Q502      0.0103
     32  C24       18.4050    9.0940   18.7530 C.1   502  10Q502      0.1032
     33  N7        19.0030    8.7910   17.8020 N.1   502  10Q502     -0.1907
@<TRIPOS>BOND
     1    33    32    3
     2    14    13   ar
     3    14    12   ar
     4    13     7   ar
     5    32    19    1
     6    27    29   ar
     7    27    18   ar
     8    29    31   ar
     9    12    18    1
    10    12    11   ar
    11    18    23   ar
    12    19    22   ar
    13    19    15   ar
    14    22    30   ar
    15     7    11   ar
    16     7     1    1
    17     9     8    1
    18     9     1    1
    19    31    25   ar
    20    15     8    1
    21    15    26   ar
    22     8    10    1
    23    23    25   ar
    24     1     2    1
    25     1     6    1
    26    30    28   ar
    27    25    20    1
    28     2    10    1
    29     2     5    1
    30    26    28   ar
    31     6     4    2
    32    20    16    3
    33     5    21    2
    34     5     3   am
    35     4     3    1
    36     4    17    1
    37     3    24    1
