@<TRIPOS>MOLECULE
4h3i_10V_A_1.pdb
 33 37 0 0 0
SMALL
GASTEIGER

@<TRIPOS>ATOM
      1  C1        28.3940   10.9150   18.2840 C.ar  502  10V502      0.0007
      2  C2        29.0800   10.5530   19.4740 C.ar  502  10V502      0.0103
      3  C3        28.3190   10.3150   20.6500 C.ar  502  10V502      0.0684
      4  C4        26.9150   10.4360   20.6350 C.ar  502  10V502      0.0103
      5  C5        26.2070   10.7940   19.4600 C.ar  502  10V502      0.0012
      6  C6        26.9740   11.0330   18.2820 C.ar  502  10V502      0.0001
      7  C7        24.7030   10.9150   19.4840 C.ar  502  10V502      0.0068
      8  C8        23.8900   10.4700   20.5640 C.ar  502  10V502      0.0060
      9  C9        22.4680   10.6900   20.3660 C.ar  502  10V502      0.0452
     10  S1        22.2430   11.4320   18.8520 S.2   502  10V502     -0.0874
     11  C10       23.9120   11.4710   18.4590 C.ar  502  10V502      0.0352
     12  C11       21.3480   10.3360   21.3170 C.3   502  10V502      0.2008
     13  C12       20.7340   11.6290   21.8870 C.3   502  10V502      0.1553
     14  C13       21.5060   12.2330   23.1010 C.2   502  10V502      0.2924
     15  N1        22.2770   11.3440   23.8600 N.am  502  10V502     -0.1395
     16  C14       22.3160    9.9770   23.6180 C.2   502  10V502      0.4490
     17  N2        21.8350    9.4830   22.4300 N.2   502  10V502     -0.0957
     18  N3        22.8060    9.1340   24.5260 N.pl3 502  10V502      0.1440
     19  C15       20.1640    9.6030   20.6520 C.3   502  10V502      0.1374
     20  C16       23.0710   11.9480   24.9740 C.3   502  10V502      0.2161
     21  O1        21.4180   13.4350   23.3480 O.2   502  10V502     -0.2563
     22  C17       28.9630    9.9470   21.8800 C.1   502  10V502      0.1004
     23  N4        29.4520    9.6480   22.8880 N.1   502  10V502     -0.1908
     24  C18       19.3020   11.2590   22.2360 C.3   502  10V502      0.1069
     25  N5        18.9810   10.1530   21.3180 N.pl3 502  10V502     -0.2865
     26  C19       15.3710    9.1180   21.6510 C.ar  502  10V502      0.0414
     27  C20       16.6400    9.6270   22.0600 C.ar  502  10V502      0.1701
     28  C21       17.6840    9.6770   21.0620 C.ar  502  10V502      0.1661
     29  C23       16.2280    8.7630   19.4300 C.ar  502  10V502      0.1005
     30  C24       15.1600    8.6830   20.3310 C.ar  502  10V502      0.0239
     31  C25       16.0550    9.6820   24.4530 C.3   502  10V502      0.2526
     32  O2        16.8920   10.0720   23.3770 O.3   502  10V502     -0.4686
     33  N6        17.4470    9.2450   19.7850 N.ar  502  10V502     -0.2260
@<TRIPOS>BOND
     1     6     1   ar
     2     6     5   ar
     3     1     2   ar
     4    11    10   ar
     5    11     7   ar
     6    10     9   ar
     7    29    33   ar
     8    29    30   ar
     9     5     7    1
    10     5     4   ar
    11     2     3   ar
    12     7     8   ar
    13    33    28   ar
    14    30    26   ar
    15     9     8   ar
    16     9    12    1
    17     4     3   ar
    18     3    22    1
    19    19    12    1
    20    19    25    1
    21    28    25    1
    22    28    27   ar
    23    12    13    1
    24    12    17    1
    25    25    24    1
    26    26    27   ar
    27    22    23    3
    28    13    24    1
    29    13    14    1
    30    27    32    1
    31    17    16    2
    32    14    21    2
    33    14    15   am
    34    32    31    1
    35    16    15    1
    36    16    18    1
    37    15    20    1
