@<TRIPOS>MOLECULE
4h3j_10W_A_1.pdb
 32 36 0 0 0
SMALL
GASTEIGER

@<TRIPOS>ATOM
      1  C1        21.5430   12.2290   23.3130 C.2   502  10W502      0.2924
      2  N1        22.2370   11.3640   24.1340 N.am  502  10W502     -0.1395
      3  C2        22.2480    9.9970   23.9650 C.2   502  10W502      0.4490
      4  N2        21.7440    9.4280   22.8060 N.2   502  10W502     -0.0957
      5  N3        22.7370    9.2260   24.9090 N.pl3 502  10W502      0.1440
      6  C3        22.9910   12.0060   25.2550 C.3   502  10W502      0.2161
      7  O1        21.5040   13.4380   23.5050 O.2   502  10W502     -0.2563
      8  C4        20.7870   11.5840   22.1170 C.3   502  10W502      0.1552
      9  C5        21.3930   10.2250   21.6270 C.3   502  10W502      0.2008
     10  C6        20.2310    9.5620   20.8930 C.3   502  10W502      0.1363
     11  N4        19.0440   10.1790   21.5070 N.pl3 502  10W502     -0.3035
     12  C7        19.3470   11.2580   22.4600 C.3   502  10W502      0.1054
     13  C8        22.6170   10.5300   20.8450 C.ar  502  10W502      0.0451
     14  C9        22.7170   11.1480   19.5540 C.ar  502  10W502      0.0060
     15  C10       24.0460   11.3070   19.1190 C.ar  502  10W502      0.0068
     16  C11       25.0010   10.8170   20.0380 C.ar  502  10W502      0.0293
     17  S1        24.1850   10.2000   21.3870 S.2   502  10W502     -0.0880
     18  C12       26.4530   10.8800   19.9300 C.ar  502  10W502      0.0068
     19  C13       27.1940   10.4880   21.0570 C.ar  502  10W502      0.0130
     20  C14       28.5900   10.5630   21.0680 C.ar  502  10W502      0.0958
     21  C15       29.2650   11.0500   19.9270 C.ar  502  10W502      0.1497
     22  C16       28.5470   11.4610   18.7880 C.ar  502  10W502      0.0304
     23  C17       27.1320   11.3810   18.7980 C.ar  502  10W502      0.0028
     24  C18       29.2760   10.1320   22.2520 C.1   502  10W502      0.1027
     25  N5        29.8040    9.7740   23.2180 N.1   502  10W502     -0.1908
     26  F1        30.5860   11.1390   19.8950 F     502  10W502     -0.2035
     27  C19       17.7280    9.7790   21.2180 C.ar  502  10W502      0.0479
     28  C20       17.4520    8.8020   20.2130 C.ar  502  10W502      0.0145
     29  C21       16.1240    8.4040   19.9290 C.ar  502  10W502      0.0013
     30  C22       15.0540    8.9730   20.6410 C.ar  502  10W502      0.0001
     31  C23       15.3000    9.9410   21.6410 C.ar  502  10W502      0.0013
     32  C24       16.6270   10.3380   21.9240 C.ar  502  10W502      0.0145
@<TRIPOS>BOND
     1    22    23   ar
     2    22    21   ar
     3    23    18   ar
     4    15    14   ar
     5    15    16   ar
     6    14    13   ar
     7    26    21    1
     8    21    20   ar
     9    29    28   ar
    10    29    30   ar
    11    18    16    1
    12    18    19   ar
    13    16    17   ar
    14    28    27   ar
    15    30    31   ar
    16    13    17   ar
    17    13     9    1
    18    10    11    1
    19    10     9    1
    20    19    20   ar
    21    20    24    1
    22    27    11    1
    23    27    32   ar
    24    11    12    1
    25     9     8    1
    26     9     4    1
    27    31    32   ar
    28     8    12    1
    29     8     1    1
    30    24    25    3
    31     4     3    2
    32     1     7    2
    33     1     2   am
    34     3     2    1
    35     3     5    1
    36     2     6    1
