@<TRIPOS>MOLECULE
4h3p_ANP_A_1.pdb
 31 33 0 0 0
SMALL
GASTEIGER

@<TRIPOS>ATOM
      1  PG        -2.3670    3.8430   -9.2730 P.3   401  ANP401      0.4884
      2  O1G       -1.1220    2.9810   -9.3490 O.3   401  ANP401     -0.1240
      3  O2G       -3.4440    3.4380  -10.3470 O.2   401  ANP401     -0.2331
      4  O3G       -1.9930    5.3970   -9.4870 O.3   401  ANP401     -0.1240
      5  PB        -1.8990    3.6810   -6.5220 P.3   401  ANP401      0.4669
      6  O1B       -2.9570    3.5440   -5.3290 O.3   401  ANP401     -0.1253
      7  O2B       -0.7820    4.8030   -6.4670 O.2   401  ANP401     -0.2351
      8  N3B       -3.1010    3.6960   -7.7970 N.3   401  ANP401     -0.0163
      9  PA        -2.3900    1.0350   -5.9610 P.3   401  ANP401      0.2220
     10  O1A       -3.8630    1.1150   -6.4410 O.2   401  ANP401     -0.5170
     11  O2A       -2.3100    1.1690   -4.4660 O.3   401  ANP401     -0.4370
     12  O3A       -1.4800    2.1550   -6.5810 O.3   401  ANP401     -0.2360
     13  O5'       -1.7410   -0.3400   -6.3900 O.3   401  ANP401     -0.3111
     14  C5'       -0.5860   -0.3630   -7.2250 C.3   401  ANP401      0.1813
     15  C4'        0.0090   -1.6600   -7.5870 C.3   401  ANP401      0.1821
     16  O4'       -0.7990   -2.6850   -7.1390 O.3   401  ANP401     -0.3135
     17  C3'        0.0980   -1.8070   -9.0610 C.3   401  ANP401      0.2184
     18  O3'        1.2830   -2.4570   -9.3750 O.3   401  ANP401     -0.2174
     19  C2'       -1.0480   -2.5650   -9.4540 C.3   401  ANP401      0.2570
     20  O2'       -0.7660   -3.3750  -10.5380 O.3   401  ANP401     -0.2130
     21  C1'       -1.2990   -3.3950   -8.2740 C.3   401  ANP401      0.3186
     22  N9        -2.6390   -3.9620   -7.9660 N.pl3 401  ANP401     -0.1439
     23  C8        -3.6750   -3.3300   -7.3710 C.3   401  ANP401      0.3377
     24  N7        -4.6910   -4.1900   -7.2230 N.2   401  ANP401     -0.2095
     25  C5        -4.3000   -5.3950   -7.7190 C.2   401  ANP401      0.2526
     26  C6        -4.9120   -6.6570   -7.8420 C.2   401  ANP401      0.4393
     27  N6        -6.2630   -6.8210   -7.3720 N.pl3 401  ANP401      0.2180
     28  N1        -4.2430   -7.6890   -8.3960 N.2   401  ANP401      0.0021
     29  C2        -2.9920   -7.5020   -8.8280 C.3   401  ANP401      0.5254
     30  N3        -2.3640   -6.3110   -8.7260 N.2   401  ANP401     -0.0055
     31  C4        -2.9910   -5.2500   -8.1830 C.2   401  ANP401      0.3518
@<TRIPOS>BOND
     1    20    19    1
     2     3     1    2
     3     4     1    1
     4    19    17    1
     5    19    21    1
     6    18    17    1
     7     2     1    1
     8     1     8    1
     9    17    15    1
    10    29    30    1
    11    29    28    1
    12    30    31    2
    13    28    26    2
    14    21    22    1
    15    21    16    1
    16    31    22    1
    17    31    25    1
    18    22    23    1
    19    26    25    1
    20    26    27    1
    21     8     5    1
    22    25    24    2
    23    15    14    1
    24    15    16    1
    25    23    24    1
    26    14    13    1
    27    12     5    1
    28    12     9    1
    29     5     7    2
    30     5     6    1
    31    10     9    2
    32    13     9    1
    33     9    11    1
