@<TRIPOS>MOLECULE
4h3q_ANP_A_1.pdb
 31 33 0 0 0
SMALL
GASTEIGER

@<TRIPOS>ATOM
      1  PG        -1.9340   -3.9240    8.9200 P.3   401  ANP401      0.4884
      2  O1G       -1.0400   -4.7930    8.0620 O.2   401  ANP401     -0.2331
      3  O2G       -1.1460   -2.6660    9.4940 O.3   401  ANP401     -0.1240
      4  O3G       -2.5640   -4.8010   10.1340 O.3   401  ANP401     -0.1240
      5  PB        -2.7500   -2.8380    6.4300 P.3   401  ANP401      0.4669
      6  O1B       -4.2360   -2.6370    5.8820 O.3   401  ANP401     -0.1253
      7  O2B       -1.7430   -3.6940    5.5490 O.2   401  ANP401     -0.2351
      8  N3B       -3.2240   -3.3600    8.0380 N.3   401  ANP401     -0.0163
      9  PA        -2.7390   -0.4310    7.9730 P.3   401  ANP401      0.2220
     10  O1A       -2.8060   -1.1090    9.3660 O.3   401  ANP401     -0.4370
     11  O2A       -4.0990    0.1490    7.7330 O.2   401  ANP401     -0.5170
     12  O3A       -2.3690   -1.3160    6.7180 O.3   401  ANP401     -0.2360
     13  O5'       -1.7080    0.7420    7.9500 O.3   401  ANP401     -0.3111
     14  C5'       -0.3140    0.6200    8.1320 C.3   401  ANP401      0.1813
     15  C4'        0.3040    1.7110    8.9010 C.3   401  ANP401      0.1821
     16  O4'        0.1580    2.9490    8.2750 O.3   401  ANP401     -0.3135
     17  C3'       -0.4370    1.8730   10.1780 C.3   401  ANP401      0.2184
     18  O3'       -0.1450    0.9450   11.1750 O.3   401  ANP401     -0.2174
     19  C2'       -0.2730    3.2490   10.5360 C.3   401  ANP401      0.2570
     20  O2'        0.8570    3.5500   11.2510 O.3   401  ANP401     -0.2130
     21  C1'       -0.2030    3.9260    9.2510 C.3   401  ANP401      0.3186
     22  N9        -1.5080    4.5400    8.9760 N.pl3 401  ANP401     -0.1439
     23  C8        -2.5910    3.8670    8.5320 C.3   401  ANP401      0.3377
     24  N7        -3.5980    4.7220    8.4020 N.2   401  ANP401     -0.2095
     25  C5        -3.1670    5.9560    8.7730 C.2   401  ANP401      0.2526
     26  C6        -3.7750    7.2160    8.8440 C.2   401  ANP401      0.4393
     27  N6        -5.1670    7.3700    8.4640 N.pl3 401  ANP401      0.2180
     28  N1        -3.0560    8.2690    9.2570 N.2   401  ANP401      0.0021
     29  C2        -1.7660    8.1380    9.6120 C.3   401  ANP401      0.5254
     30  N3        -1.1420    6.9540    9.5660 N.2   401  ANP401     -0.0055
     31  C4        -1.8250    5.8500    9.1490 C.2   401  ANP401      0.3518
@<TRIPOS>BOND
     1     7     5    2
     2     6     5    1
     3     5    12    1
     4     5     8    1
     5    12     9    1
     6    11     9    2
     7    13     9    1
     8    13    14    1
     9     9    10    1
    10     8     1    1
    11     2     1    2
    12    14    15    1
    13    16    15    1
    14    16    21    1
    15    24    23    1
    16    24    25    2
    17    27    26    1
    18    23    22    1
    19    25    26    1
    20    25    31    1
    21    26    28    2
    22    15    17    1
    23     1     3    1
    24     1     4    1
    25    22    31    1
    26    22    21    1
    27    31    30    2
    28    21    19    1
    29    28    29    1
    30    30    29    1
    31    17    19    1
    32    17    18    1
    33    19    20    1
