@<TRIPOS>MOLECULE
4h4b_11H_A_1.pdb
 24 26 0 0 0
SMALL
GASTEIGER

@<TRIPOS>ATOM
      1  O01       -2.3510   20.3060   57.6760 O.co2 601  11H601     -0.7394
      2  S02       -3.5400   19.5800   57.2180 S.3   601  11H601     -0.1532
      3  O03       -4.1640   20.3730   56.1920 O.3   601  11H601     -0.1052
      4  O04       -4.4660   19.5220   58.3240 O.3   601  11H601     -0.1052
      5  C05       -2.9020   18.0370   56.6680 C.ar  601  11H601      0.0700
      6  C06       -2.8830   16.8990   57.4980 C.ar  601  11H601      0.0154
      7  C07       -2.3000   15.7170   57.0370 C.ar  601  11H601      0.0045
      8  C08       -1.7240   15.6910   55.7310 C.ar  601  11H601      0.0421
      9  C09       -1.0780   14.4220   55.2090 C.2   601  11H601      0.1958
     10  O10       -1.0520   13.4160   55.9060 O.2   601  11H601     -0.2866
     11  C11       -0.4630   14.4190   53.8170 C.ar  601  11H601      0.0432
     12  C12       -0.4800   15.5510   53.0120 C.ar  601  11H601      0.0421
     13  C13        0.1040   15.5230   51.7140 C.ar  601  11H601      0.0045
     14  C14        0.6980   14.3520   51.2390 C.ar  601  11H601      0.0154
     15  C15        0.7100   13.2050   52.0560 C.ar  601  11H601      0.0700
     16  C16        0.1420   13.2330   53.3330 C.ar  601  11H601      0.0186
     17  S17        1.4760   11.6930   51.5500 S.3   601  11H601     -0.1532
     18  O18        0.4900   10.7190   51.0420 O.co2 601  11H601     -0.7394
     19  O19        2.2220   11.2020   52.6950 O.3   601  11H601     -0.1052
     20  O20        2.5420   11.9560   50.5980 O.3   601  11H601     -0.1052
     21  C21       -1.1320   16.8180   53.5320 C.2   601  11H601      0.1958
     22  O22       -1.1610   17.8280   52.8480 O.2   601  11H601     -0.2866
     23  C23       -1.7420   16.8250   54.9230 C.ar  601  11H601      0.0432
     24  C24       -2.3350   18.0140   55.4010 C.ar  601  11H601      0.0186
@<TRIPOS>UNITY_ATOM_ATTR
1 1
charge -1
18 1
charge -1
@<TRIPOS>BOND
     1    20    17    1
     2    18    17    1
     3    14    13   ar
     4    14    15   ar
     5    17    15    1
     6    17    19    1
     7    13    12   ar
     8    15    16   ar
     9    22    21    2
    10    12    21    1
    11    12    11   ar
    12    16    11   ar
    13    21    23    1
    14    11     9    1
    15    23    24   ar
    16    23     8   ar
    17     9     8    1
    18     9    10    2
    19    24     5   ar
    20     8     7   ar
    21     3     2    1
    22     5     2    1
    23     5     6   ar
    24     7     6   ar
    25     2     1    1
    26     2     4    1
