@<TRIPOS>MOLECULE
4h4c_10D_A_1.pdb
 15 14 0 0 0
SMALL
GASTEIGER

@<TRIPOS>ATOM
      1  O14      -24.9550    0.8480  -15.8360 O.3   402  10D402     -0.1143
      2  P10      -26.0310    0.7010  -16.7960 P.3   402  10D402      0.5373
      3  O11      -25.6580    0.9660  -18.2660 O.2   402  10D402     -0.2221
      4  O15      -27.1430    1.5830  -16.2940 O.3   402  10D402     -0.1143
      5  O9       -26.6920   -0.7500  -16.7560 O.3   402  10D402     -0.2261
      6  P8       -26.1800   -2.2000  -16.3630 P.3   402  10D402      0.2230
      7  O12      -27.2980   -3.0530  -16.9160 O.2   402  10D402     -0.5169
      8  O13      -24.6750   -2.3490  -16.7850 O.3   402  10D402     -0.4370
      9  O7       -26.1010   -2.2020  -14.8330 O.3   402  10D402     -0.3138
     10  C6       -27.0000   -2.5890  -13.9100 C.3   402  10D402      0.1492
     11  C5       -28.0940   -1.7060  -14.0720 C.3   402  10D402      0.0353
     12  C3       -27.8960   -0.5600  -13.5480 C.3   402  10D402      0.0379
     13  C4       -26.5610   -0.2760  -12.8110 C.3   402  10D402      0.0030
     14  C1       -29.1870    0.2580  -13.6400 C.3   402  10D402      0.1932
     15  F2       -30.2210   -0.6900  -13.8590 F     402  10D402     -0.2344
@<TRIPOS>BOND
     1     3     2    2
     2     7     6    2
     3     2     5    1
     4     2     4    1
     5     2     1    1
     6     8     6    1
     7     5     6    1
     8     6     9    1
     9     9    10    1
    10    11    10    1
    11    11    12    1
    12    15    14    1
    13    14    12    1
    14    12    13    1
