@<TRIPOS>MOLECULE
4h4d_10E_A_1.pdb
 15 14 0 0 0
SMALL
GASTEIGER

@<TRIPOS>ATOM
      1  O13      -25.8170    1.0630  -18.5820 O.2   402  10E402     -0.2221
      2  P12      -26.1890    0.8560  -17.1130 P.3   402  10E402      0.5373
      3  O14      -27.4030    1.7270  -16.7010 O.3   402  10E402     -0.1143
      4  O15      -25.0090    0.8920  -16.1150 O.3   402  10E402     -0.1143
      5  O11      -26.7750   -0.6190  -17.0720 O.3   402  10E402     -0.2261
      6  P8       -26.3140   -2.0800  -16.7740 P.3   402  10E402      0.2233
      7  O9       -27.3730   -3.0020  -17.2600 O.2   402  10E402     -0.5169
      8  O10      -24.9240   -2.3000  -17.2350 O.3   402  10E402     -0.4370
      9  O7       -26.1610   -2.1630  -15.1820 O.3   402  10E402     -0.3089
     10  C6       -27.3310   -2.1640  -14.2180 C.3   402  10E402      0.1747
     11  C5       -27.8940   -0.8160  -14.2020 C.2   402  10E402     -0.0010
     12  C3       -29.1350   -0.4530  -14.5040 C.2   402  10E402     -0.0269
     13  C4       -30.2280   -1.3440  -14.7410 C.3   402  10E402      0.0276
     14  C1       -29.5280    1.0130  -14.3640 C.3   402  10E402      0.1312
     15  N2       -29.8360    1.2310  -12.9420 N.3   402  10E402     -0.1266
@<TRIPOS>BOND
     1     1     2    2
     2     7     6    2
     3     8     6    1
     4     2     5    1
     5     2     3    1
     6     2     4    1
     7     5     6    1
     8     6     9    1
     9     9    10    1
    10    13    12    1
    11    12    14    1
    12    12    11    2
    13    14    15    1
    14    10    11    1
