@<TRIPOS>MOLECULE
4h4e_10G_A_1.pdb
 15 14 0 0 0
SMALL
GASTEIGER

@<TRIPOS>ATOM
      1  O13      -10.5450    0.9300   16.0220 O.2   402  10G402     -0.2221
      2  P12       -9.3790    0.8190   16.9860 P.3   402  10G402      0.5373
      3  O14       -9.7070    1.0280   18.4300 O.3   402  10G402     -0.1143
      4  O15       -8.2300    1.7740   16.5720 O.3   402  10G402     -0.1143
      5  O11       -8.6520   -0.5960   16.9280 O.3   402  10G402     -0.2261
      6  P8        -9.1760   -2.0680   16.6240 P.3   402  10G402      0.2233
      7  O9       -10.5650   -2.2810   17.1670 O.3   402  10G402     -0.4370
      8  O10       -8.1120   -2.9750   17.1110 O.2   402  10G402     -0.5169
      9  O7        -9.3700   -2.1860   14.9880 O.3   402  10G402     -0.3089
     10  C6        -8.2030   -2.2580   14.1160 C.3   402  10G402      0.1747
     11  C5        -7.5290   -0.9590   14.2090 C.2   402  10G402     -0.0015
     12  C3        -6.2660   -0.6310   14.4140 C.2   402  10G402     -0.0342
     13  C4        -5.0290   -1.4210   14.5930 C.3   402  10G402      0.0270
     14  C1        -5.9090    0.8440   14.5410 C.3   402  10G402      0.0904
     15  S2        -5.1610    1.1610   12.9940 S.3   402  10G402     -0.0774
@<TRIPOS>BOND
     1    15    14    1
     2    10    11    1
     3    10     9    1
     4    11    12    2
     5    12    14    1
     6    12    13    1
     7     9     6    1
     8     1     2    2
     9     4     2    1
    10     6     5    1
    11     6     8    2
    12     6     7    1
    13     5     2    1
    14     2     3    1
