@<TRIPOS>MOLECULE
4h4k_ATP_C_1.pdb
 35 37 0 0 0
SMALL
GASTEIGER

@<TRIPOS>ATOM
      1  PG        37.0110  -41.4090   20.8490 P.3   901  ATP901      0.5373
      2  O1G       36.2640  -40.7310   19.7250 O.2   901  ATP901     -0.2221
      3  O2G       38.4480  -41.7410   20.5280 O.3   901  ATP901     -0.1143
      4  O3G       36.2640  -42.5260   21.5410 O.3   901  ATP901     -0.1143
      5  PB        36.4020  -38.8430   21.8500 P.3   901  ATP901      0.2277
      6  O1B       37.2970  -37.9170   21.0600 O.2   901  ATP901     -0.5168
      7  O2B       34.9740  -39.0700   21.4090 O.3   901  ATP901     -0.4368
      8  O3B       37.1550  -40.2610   21.9660 O.3   901  ATP901     -0.2258
      9  PA        36.1840  -39.4280   24.5700 P.3   901  ATP901      0.2189
     10  O1A       36.2900  -38.7450   25.9150 O.3   901  ATP901     -0.4371
     11  O2A       37.0160  -40.6540   24.2840 O.2   901  ATP901     -0.5170
     12  O3A       36.4020  -38.3540   23.3860 O.3   901  ATP901     -0.2700
     13  O5'       34.6520  -39.8580   24.3350 O.3   901  ATP901     -0.3112
     14  C5'       34.1000  -40.9310   25.0890 C.3   901  ATP901      0.1813
     15  C4'       32.9050  -41.5230   24.3560 C.3   901  ATP901      0.1799
     16  O4'       31.9080  -41.8840   25.3110 O.3   901  ATP901     -0.3324
     17  C3'       32.2480  -40.5470   23.3900 C.3   901  ATP901      0.2158
     18  O3'       32.6620  -40.7700   22.0390 O.3   901  ATP901     -0.2175
     19  C2'       30.7610  -40.7960   23.5240 C.3   901  ATP901      0.2313
     20  O2'       30.2520  -41.5400   22.4140 O.3   901  ATP901     -0.2158
     21  C1'       30.6080  -41.5760   24.8150 C.3   901  ATP901      0.2331
     22  N9        29.9180  -40.6360   25.7140 N.pl3 901  ATP901     -0.2163
     23  C8        30.0340  -39.2930   25.6080 C.2   901  ATP901      0.1454
     24  N7        29.2650  -38.6960   26.5540 N.2   901  ATP901     -0.3871
     25  C5        28.6470  -39.6660   27.2610 C.2   901  ATP901      0.2211
     26  C6        27.7030  -39.7170   28.3950 C.2   901  ATP901      0.2227
     27  N6        27.2800  -38.5460   28.9460 N.pl3 901  ATP901     -0.3300
     28  N1        27.2990  -40.9370   28.8370 N.2   901  ATP901     -0.3296
     29  C2        27.7270  -42.0950   28.2790 C.1   901  ATP901      0.0930
     30  N3        28.5930  -42.1010   27.2370 N.2   901  ATP901     -0.3287
     31  C4        29.0710  -40.9500   26.6980 C.2   901  ATP901      0.2357
     32  H8        30.6510  -38.7740   24.8840 H     901  ATP901      0.1149
     33 HN61       26.6360  -38.5580   29.7240 H     901  ATP901      0.1448
     34 HN62       27.6140  -37.6660   28.5800 H     901  ATP901      0.1448
     35  H2        27.3680  -43.0380   28.6730 H     901  ATP901      0.1751
@<TRIPOS>BOND
     1     2     1    2
     2     3     1    1
     3     1     4    1
     4     1     8    1
     5     6     5    2
     6     7     5    1
     7     5     8    1
     8     5    12    1
     9    18    17    1
    10    20    19    1
    11    12     9    1
    12    17    19    1
    13    17    15    1
    14    19    21    1
    15    11     9    2
    16    13     9    1
    17    13    14    1
    18    15    14    1
    19    15    16    1
    20     9    10    1
    21    21    16    1
    22    21    22    1
    23    32    23    1
    24    23    22    1
    25    23    24    2
    26    22    31    1
    27    24    25    2
    28    31    30    2
    29    31    25    1
    30    30    29    2
    31    25    26    1
    32    29    35    1
    33    29    28    2
    34    26    28    2
    35    26    27    1
    36    34    27    1
    37    27    33    1
