@<TRIPOS>MOLECULE
4h4m_494_A_1.pdb
 30 32 0 0 0
SMALL
GASTEIGER

@<TRIPOS>ATOM
      1  C00      270.2100  -24.0190   19.6490 C.ar  601  494601      0.0514
      2  C01      271.0880  -23.2230   18.8850 C.ar  601  494601      0.0609
      3  C02      272.3090  -22.7770   19.4290 C.ar  601  494601      0.0147
      4  C03      272.6400  -23.1390   20.7460 C.ar  601  494601      0.0415
      5  C04      271.7700  -23.9460   21.5330 C.ar  601  494601      0.1790
      6  C05      270.5160  -24.4000   20.9780 C.ar  601  494601      0.1737
      7 CL7       270.6510  -22.7970   17.2810 Cl    601  494601     -0.0821
      8  O0A      272.1740  -24.2400   22.8170 O.3   601  494601     -0.4504
      9  O0B      269.5100  -25.1810   21.5400 O.3   601  494601     -0.4705
     10  C0C      272.0060  -23.3130   23.8220 C.ar  601  494601      0.1463
     11  C0D      271.2750  -22.1110   23.6450 C.ar  601  494601      0.0489
     12  C0E      271.1350  -21.1950   24.6970 C.ar  601  494601      0.0607
     13  C0F      271.7250  -21.4780   25.9470 C.ar  601  494601      0.0116
     14  C0G      272.4650  -22.6680   26.1680 C.ar  601  494601      0.0046
     15  C0H      272.5950  -23.5850   25.0820 C.ar  601  494601      0.0376
     16 CL0       270.2410  -19.7520   24.4260 Cl    601  494601     -0.0821
     17  C0M      273.0270  -22.8510   27.4910 C.2   601  494601      0.0111
     18  C0O      269.5520  -25.7170   22.8590 C.3   601  494601      0.2282
     19  C0P      268.5460  -26.8680   23.0310 C.3   601  494601      0.1562
     20  N0S      269.1440  -28.1570   22.6350 N.am  601  494601     -0.1995
     21  C0V      268.8540  -28.7560   21.4330 C.1   601  494601      0.2827
     22  N0W      269.4750  -29.9400   21.2040 N.2   601  494601     -0.2452
     23  C0X      270.3460  -30.6030   22.0070 C.1   601  494601      0.2182
     24  C0Y      270.6340  -29.9380   23.2860 C.2   601  494601      0.1241
     25  C0Z      270.0380  -28.7490   23.5670 C.2   601  494601      0.0906
     26  O10      268.0860  -28.2810   20.5960 O.2   601  494601     -0.1919
     27  O12      270.8370  -31.6800   21.6650 O.2   601  494601     -0.2085
     28  C15      273.8540  -23.8590   27.8110 C.2   601  494601      0.0780
     29  C17      274.6700  -23.8320   28.9800 C.1   601  494601      0.1011
     30  N19      275.3300  -23.8100   29.9290 N.1   601  494601     -0.1908
@<TRIPOS>BOND
     1     7     2    1
     2     2     3   ar
     3     2     1   ar
     4     3     4   ar
     5     1     6   ar
     6    26    21    2
     7     4     5   ar
     8     6     5   ar
     9     6     9    1
    10    22    21    2
    11    22    23    2
    12    21    20   am
    13     5     8    1
    14     9    18    1
    15    27    23    2
    16    23    24    1
    17    20    19    1
    18    20    25    1
    19     8    10    1
    20    18    19    1
    21    24    25    2
    22    11    10   ar
    23    11    12   ar
    24    10    15   ar
    25    16    12    1
    26    12    13   ar
    27    15    14   ar
    28    13    14   ar
    29    14    17    1
    30    17    28    2
    31    28    29    1
    32    29    30    3
