@<TRIPOS>MOLECULE
4h4o_506_A_1.pdb
 30 32 0 0 0
SMALL
GASTEIGER

@<TRIPOS>ATOM
      1  OAC      268.7700  -28.4580   20.6140 O.2   601  506601     -0.1919
      2  CBC      269.5490  -28.9420   21.4340 C.1   601  506601      0.2827
      3  NAS      270.1510  -30.1870   21.1760 N.2   601  506601     -0.2452
      4  CBB      271.0610  -30.8250   22.0550 C.1   601  506601      0.2182
      5  OAB      271.5330  -31.9160   21.7410 O.2   601  506601     -0.2085
      6  CAK      271.3380  -30.0870   23.2880 C.2   601  506601      0.1241
      7  CAL      270.7670  -28.8880   23.5510 C.2   601  506601      0.0906
      8  NBD      269.8690  -28.2730   22.6660 N.am  601  506601     -0.1995
      9  CAR      269.2520  -26.9480   22.9810 C.3   601  506601      0.1562
     10  CAQ      270.2360  -25.7400   22.9130 C.3   601  506601      0.2282
     11  OAT      270.0620  -25.1050   21.6050 O.3   601  506601     -0.4704
     12  CBA      271.1220  -24.4460   20.9560 C.ar  601  506601      0.1751
     13  CAO      270.8780  -24.1410   19.6090 C.ar  601  506601      0.0697
     14  CAV      271.8170  -23.4760   18.8100 C.ar  601  506601      0.1434
     15  FAD      271.5400  -23.2130   17.5520 F     601  506601     -0.2041
     16  CAI      273.0490  -23.0890   19.3360 C.ar  601  506601      0.0330
     17  CAJ      273.3100  -23.3760   20.6600 C.ar  601  506601      0.0429
     18  CAZ      272.3990  -24.0410   21.5230 C.ar  601  506601      0.1791
     19  OAU      272.7850  -24.2860   22.8590 O.3   601  506601     -0.4504
     20  CAY      272.6190  -23.3270   23.8540 C.ar  601  506601      0.1477
     21  CAP      273.3260  -23.4610   25.0610 C.ar  601  506601      0.0377
     22  CAN      271.7530  -22.2410   23.6720 C.ar  601  506601      0.0671
     23  CAW      271.6430  -21.3230   24.7260 C.ar  601  506601      0.1432
     24  FAE      270.8230  -20.2840   24.5570 F     601  506601     -0.2041
     25  CAM      272.3490  -21.4490   25.9390 C.ar  601  506601      0.0299
     26  CAX      273.2070  -22.5360   26.1180 C.ar  601  506601      0.0060
     27  CAH      273.9820  -22.6600   27.3960 C.2   601  506601      0.0111
     28  CAG      274.1560  -23.7670   28.1600 C.2   601  506601      0.0780
     29  CAF      275.0580  -23.9680   29.2290 C.1   601  506601      0.1011
     30  NAA      275.7960  -24.1240   30.1410 N.1   601  506601     -0.1908
@<TRIPOS>BOND
     1    15    14    1
     2    14    16   ar
     3    14    13   ar
     4    16    17   ar
     5    13    12   ar
     6     1     2    2
     7    17    18   ar
     8    12    18   ar
     9    12    11    1
    10     3     2    2
    11     3     4    2
    12     2     8   am
    13    18    19    1
    14    11    10    1
    15     5     4    2
    16     4     6    1
    17     8     9    1
    18     8     7    1
    19    19    20    1
    20    10     9    1
    21     6     7    2
    22    22    20   ar
    23    22    23   ar
    24    20    21   ar
    25    24    23    1
    26    23    25   ar
    27    21    26   ar
    28    25    26   ar
    29    26    27    1
    30    27    28    2
    31    28    29    1
    32    29    30    3
