@<TRIPOS>MOLECULE
4h52_MAN_B_1.pdb
 11 11 0 0 0
SMALL
GASTEIGER

@<TRIPOS>ATOM
      1  C1        42.2500   -5.0220  -45.8280 C.3   507  MAN507      0.1777
      2  C2        42.7820   -6.4510  -45.7640 C.3   507  MAN507      0.2141
      3  C3        43.3300   -6.7550  -44.3700 C.3   507  MAN507      0.2173
      4  C4        44.3260   -5.6870  -43.9500 C.3   507  MAN507      0.2142
      5  C5        43.6700   -4.3160  -44.0630 C.3   507  MAN507      0.1810
      6  C6        44.5970   -3.1770  -43.6530 C.3   507  MAN507      0.2141
      7  O2        43.7830   -6.6550  -46.7420 O.3   507  MAN507     -0.2176
      8  O3        43.9540   -8.0230  -44.3610 O.3   507  MAN507     -0.2175
      9  O4        44.7150   -5.9110  -42.6150 O.3   507  MAN507     -0.2176
     10  O5        43.2580   -4.1160  -45.4050 O.3   507  MAN507     -0.3481
     11  O6        43.8590   -1.9740  -43.7000 O.3   507  MAN507     -0.2176
@<TRIPOS>BOND
     1     7     2    1
     2     1     2    1
     3     1    10    1
     4     2     3    1
     5    10     5    1
     6     3     8    1
     7     3     4    1
     8     5     4    1
     9     5     6    1
    10     4     9    1
    11    11     6    1
