@<TRIPOS>MOLECULE
4h52_BMA_B_1.pdb
 11 11 0 0 0
SMALL
GASTEIGER

@<TRIPOS>ATOM
      1  C1        39.1740   -1.8180  -44.1940 C.3   506  BMA506      0.1777
      2  C2        39.9400   -3.1090  -43.9410 C.3   506  BMA506      0.2141
      3  C3        40.3890   -3.7030  -45.2680 C.3   506  BMA506      0.2173
      4  C4        39.1880   -3.8620  -46.1870 C.3   506  BMA506      0.2142
      5  C5        38.4080   -2.5500  -46.2880 C.3   506  BMA506      0.1810
      6  C6        37.1380   -2.7630  -47.1000 C.3   506  BMA506      0.2141
      7  O2        39.0940   -4.0320  -43.2780 O.3   506  BMA506     -0.2176
      8  O3        41.0390   -4.9420  -45.0480 O.3   506  BMA506     -0.2175
      9  O4        39.6640   -4.2100  -47.4680 O.3   506  BMA506     -0.2176
     10  O5        38.0450   -2.0760  -44.9970 O.3   506  BMA506     -0.3481
     11  O6        36.5720   -1.5120  -47.4240 O.3   506  BMA506     -0.2176
@<TRIPOS>BOND
     1     9     4    1
     2    11     6    1
     3     6     5    1
     4     5     4    1
     5     5    10    1
     6     4     3    1
     7     3     8    1
     8     3     2    1
     9    10     1    1
    10     1     2    1
    11     2     7    1
