@<TRIPOS>MOLECULE
4h52_FSI_A_1.pdb
 21 21 0 0 0
SMALL
GASTEIGER

@<TRIPOS>ATOM
      1  C1        47.1540  -20.6950  -22.7050 C.2   508  FSI508      0.3942
      2  F1        47.4880  -21.1780  -20.0330 F     508  FSI508     -0.2312
      3  C2        46.0620  -21.2050  -21.8680 C.3   508  FSI508      0.2533
      4  C3        46.2110  -20.8730  -20.4230 C.3   508  FSI508      0.2308
      5  C4        45.3250  -21.6490  -19.5390 C.3   508  FSI508      0.2096
      6  O4        45.6140  -21.3520  -18.1610 O.3   508  FSI508     -0.2182
      7  C5        45.4300  -23.1220  -19.7580 C.3   508  FSI508      0.1580
      8  N5        44.3830  -23.7190  -18.9470 N.am  508  FSI508     -0.2019
      9  C6        45.2110  -23.4290  -21.2300 C.3   508  FSI508      0.1712
     10  O6        46.1190  -22.7020  -22.0310 O.3   508  FSI508     -0.3409
     11  C7        45.3840  -24.8540  -21.5790 C.3   508  FSI508      0.2134
     12  O7        46.6740  -25.2440  -21.4200 O.3   508  FSI508     -0.2176
     13  C8        45.1390  -25.0730  -23.0630 C.3   508  FSI508      0.2173
     14  O8        43.8510  -24.6270  -23.3810 O.3   508  FSI508     -0.2175
     15  C9        45.2890  -26.5380  -23.4390 C.3   508  FSI508      0.2175
     16  O9        44.4030  -27.4000  -22.7810 O.3   508  FSI508     -0.2175
     17  C10       44.6460  -24.6910  -17.9370 C.2   508  FSI508      0.2420
     18  O10       45.7570  -25.0620  -17.7260 O.2   508  FSI508     -0.2733
     19  C11       43.5070  -25.2060  -17.1640 C.3   508  FSI508      0.0964
     20  O1A       47.4880  -21.3180  -23.7630 O.co2 508  FSI508     -0.2429
     21  O1B       47.7500  -19.6350  -22.4000 O.co2 508  FSI508     -0.2429
@<TRIPOS>BOND
     1    20     1   ar
     2    15    13    1
     3    15    16    1
     4    14    13    1
     5    13    11    1
     6     1    21   ar
     7     1     3    1
     8    10     3    1
     9    10     9    1
    10     3     4    1
    11    11    12    1
    12    11     9    1
    13     9     7    1
    14     4     2    1
    15     4     5    1
    16     7     5    1
    17     7     8    1
    18     5     6    1
    19     8    17   am
    20    17    18    2
    21    17    19    1
