@<TRIPOS>MOLECULE
4h53_MAN_A_1.pdb
 11 11 0 0 0
SMALL
GASTEIGER

@<TRIPOS>ATOM
      1  C1         1.8400  -11.5330  -20.4960 C.3   506  MAN506      0.1777
      2  C2         0.8990  -12.7320  -20.5400 C.3   506  MAN506      0.2141
      3  C3         1.3920  -13.8320  -19.6030 C.3   506  MAN506      0.2173
      4  C4         2.8440  -14.1620  -19.9280 C.3   506  MAN506      0.2142
      5  C5         3.6750  -12.8920  -19.8520 C.3   506  MAN506      0.1810
      6  C6         5.1290  -13.1360  -20.2240 C.3   506  MAN506      0.2141
      7  O2         0.7820  -13.1910  -21.8740 O.3   506  MAN506     -0.2176
      8  O3         0.5730  -14.9760  -19.7370 O.3   506  MAN506     -0.2175
      9  O4         3.3430  -15.1050  -18.9920 O.3   506  MAN506     -0.2176
     10  O5         3.1600  -11.9400  -20.7670 O.3   506  MAN506     -0.3481
     11  O6         5.8600  -11.9420  -19.9970 O.3   506  MAN506     -0.2176
@<TRIPOS>BOND
     1     7     2    1
     2    10     1    1
     3    10     5    1
     4     2     1    1
     5     2     3    1
     6     6    11    1
     7     6     5    1
     8     4     5    1
     9     4     3    1
    10     4     9    1
    11     8     3    1
