@<TRIPOS>MOLECULE
4h53_SIA_A_1.pdb
 20 20 0 0 0
SMALL
GASTEIGER

@<TRIPOS>ATOM
      1  C1        54.2130  -12.9340   -4.5230 C.2   510  SIA510      0.3914
      2  C2        54.8100  -14.2090   -4.9680 C.3   510  SIA510      0.2203
      3  C3        55.2000  -14.6590   -3.5530 C.3   510  SIA510      0.0760
      4  C4        54.2700  -15.3830   -2.5990 C.3   510  SIA510      0.1773
      5  C5        53.2690  -16.2330   -3.2660 C.3   510  SIA510      0.1552
      6  C6        52.7380  -15.5960   -4.4920 C.3   510  SIA510      0.1710
      7  C7        51.7810  -16.3400   -5.3380 C.3   510  SIA510      0.2134
      8  C8        51.5620  -15.6300   -6.6530 C.3   510  SIA510      0.2173
      9  C9        50.3530  -16.1540   -7.3870 C.3   510  SIA510      0.2175
     10  C10       51.5930  -17.8120   -2.1050 C.2   510  SIA510      0.2420
     11  C11       50.5050  -17.9430   -1.0830 C.3   510  SIA510      0.0964
     12  N5        52.1890  -16.5240   -2.2830 N.am  510  SIA510     -0.2020
     13  O1A       53.1910  -12.5550   -5.1440 O.co2 510  SIA510     -0.2430
     14  O1B       54.6860  -12.2040   -3.6120 O.co2 510  SIA510     -0.2430
     15  O4        54.9170  -16.1120   -1.5230 O.3   510  SIA510     -0.2211
     16  O6        53.9260  -15.2240   -5.3440 O.3   510  SIA510     -0.3429
     17  O7        52.2890  -17.5950   -5.6290 O.3   510  SIA510     -0.2176
     18  O8        51.4000  -14.2730   -6.4640 O.3   510  SIA510     -0.2175
     19  O9        50.2190  -15.7480   -8.7130 O.3   510  SIA510     -0.2175
     20  O10       51.9480  -18.7850   -2.7710 O.2   510  SIA510     -0.2733
@<TRIPOS>BOND
     1    19     9    1
     2     9     8    1
     3     8    18    1
     4     8     7    1
     5    17     7    1
     6    16     2    1
     7    16     6    1
     8     7     6    1
     9    13     1   ar
    10     2     1    1
    11     2     3    1
    12     1    14   ar
    13     6     5    1
    14     3     4    1
    15     5     4    1
    16     5    12    1
    17    20    10    2
    18     4    15    1
    19    12    10   am
    20    10    11    1
