@<TRIPOS>MOLECULE
4h53_SLB_A_1.pdb
 21 21 0 0 0
SMALL
GASTEIGER

@<TRIPOS>ATOM
      1  C1        36.3060  -10.4430   -6.0800 C.2   512  SLB512      0.4179
      2  C2        34.9270   -9.9520   -5.9330 C.3   512  SLB512      0.3155
      3  C3        33.9630  -11.0590   -5.5950 C.3   512  SLB512      0.1056
      4  C4        32.5670  -10.5500   -5.5950 C.3   512  SLB512      0.1798
      5  C5        32.2290   -9.7930   -6.8080 C.3   512  SLB512      0.1554
      6  C6        33.2030   -8.7340   -7.0920 C.3   512  SLB512      0.1734
      7  C7        32.9680   -8.0570   -8.4030 C.3   512  SLB512      0.2135
      8  C8        33.9910   -6.9860   -8.6880 C.3   512  SLB512      0.2173
      9  C9        33.8280   -6.3540  -10.0390 C.3   512  SLB512      0.2175
     10  C10       29.6570   -9.5720   -7.3310 C.2   512  SLB512      0.2420
     11  C11       28.3640   -8.8770   -7.0140 C.3   512  SLB512      0.0964
     12  N5        30.8670   -9.1600   -6.5980 N.am  512  SLB512     -0.2020
     13  O1A       37.0780   -9.8170   -6.8600 O.co2 512  SLB512     -0.2401
     14  O1B       36.7250  -11.4470   -5.4330 O.co2 512  SLB512     -0.2401
     15  O2        34.9310   -9.0370   -4.9190 O.3   512  SLB512     -0.1830
     16  O4        31.6360  -11.6300   -5.4330 O.3   512  SLB512     -0.2210
     17  O6        34.5840   -9.3100   -7.1340 O.3   512  SLB512     -0.3220
     18  O7        33.1220   -8.9990   -9.3910 O.3   512  SLB512     -0.2176
     19  O8        33.9020   -5.9980   -7.7120 O.3   512  SLB512     -0.2175
     20  O9        32.6540   -5.6280  -10.2410 O.3   512  SLB512     -0.2175
     21  O10       29.6800  -10.4630   -8.1510 O.2   512  SLB512     -0.2733
@<TRIPOS>BOND
     1    20     9    1
     2     9     8    1
     3    18     7    1
     4     8     7    1
     5     8    19    1
     6     7     6    1
     7    21    10    2
     8    10    11    1
     9    10    12   am
    10    17     6    1
    11    17     2    1
    12     6     5    1
    13    13     1   ar
    14     5    12    1
    15     5     4    1
    16     1     2    1
    17     1    14   ar
    18     2     3    1
    19     2    15    1
    20     4     3    1
    21     4    16    1
