@<TRIPOS>MOLECULE
4h53_BMA_A_1.pdb
 11 11 0 0 0
SMALL
GASTEIGER

@<TRIPOS>ATOM
      1  C1         3.7070   -8.1130  -17.8210 C.3   505  BMA505      0.1777
      2  C2         3.0770   -9.4920  -17.8600 C.3   505  BMA505      0.2141
      3  C3         2.3290   -9.6370  -19.1730 C.3   505  BMA505      0.2173
      4  C4         1.2960   -8.5290  -19.2790 C.3   505  BMA505      0.2142
      5  C5         1.9790   -7.1750  -19.0810 C.3   505  BMA505      0.1810
      6  C6         0.8970   -6.1180  -19.0420 C.3   505  BMA505      0.2141
      7  O2         2.1740   -9.6060  -16.7800 O.3   505  BMA505     -0.2176
      8  O3         1.7060  -10.9060  -19.2140 O.3   505  BMA505     -0.2175
      9  O4         0.6790   -8.5820  -20.5530 O.3   505  BMA505     -0.2176
     10  O5         2.6810   -7.1400  -17.8500 O.3   505  BMA505     -0.3481
     11  O6         1.4270   -4.8020  -18.9660 O.3   505  BMA505     -0.2176
@<TRIPOS>BOND
     1     9     4    1
     2     4     3    1
     3     4     5    1
     4     8     3    1
     5     3     2    1
     6     5     6    1
     7     5    10    1
     8     6    11    1
     9     2     1    1
    10     2     7    1
    11    10     1    1
