@<TRIPOS>MOLECULE
4h55_BDR_A_1.pdb
 10 10 0 0 0
SMALL
GASTEIGER

@<TRIPOS>ATOM
      1  C4        10.0260   12.0980   23.2340 C.3   303  BDR303      0.1837
      2  O         10.0760   13.4290   23.7500 O.3   303  BDR303     -0.3236
      3  C1        11.4490   13.7190   23.8520 C.3   303  BDR303      0.3024
      4  O1        11.7050   14.9500   24.5050 O.3   303  BDR303     -0.1869
      5  C2        11.8430   12.5350   24.6360 C.3   303  BDR303      0.2433
      6  O2        13.2330   12.6130   24.8540 O.3   303  BDR303     -0.2148
      7  C3        11.3210   11.4700   23.6810 C.3   303  BDR303      0.2169
      8  O3        12.0500   11.4050   22.4410 O.3   303  BDR303     -0.2175
      9  C5         8.7510   11.3950   23.6400 C.3   303  BDR303      0.2142
     10  O5         7.7660   12.0700   22.8270 O.3   303  BDR303     -0.2176
@<TRIPOS>BOND
     1     8     7    1
     2    10     9    1
     3     1     9    1
     4     1     7    1
     5     1     2    1
     6     7     5    1
     7     2     3    1
     8     3     4    1
     9     3     5    1
    10     5     6    1
