@<TRIPOS>MOLECULE
4h57_0PJ_A_1.pdb
 32 32 0 0 0
SMALL
GASTEIGER

@<TRIPOS>ATOM
      1  C1       -12.7510   41.0930    8.8790 C.2   406  0PJ406      0.4220
      2  O1       -13.5870   41.6880    8.2740 O.2   406  0PJ406     -0.2245
      3  O2       -12.8750   40.8930   10.2150 O.3   406  0PJ406     -0.4285
      4  C2       -13.6090   41.7850   11.0260 C.3   406  0PJ406      0.2368
      5  C3       -14.9880   41.2960   11.4530 C.ar  406  0PJ406      0.0213
      6  C4       -15.1320   40.6300   12.6590 C.ar  406  0PJ406     -0.0007
      7  C5       -16.3900   40.1870   13.0520 C.ar  406  0PJ406     -0.0002
      8  C6       -17.4890   40.4090   12.2430 C.ar  406  0PJ406     -0.0000
      9  C7       -17.3460   41.0730   11.0330 C.ar  406  0PJ406     -0.0002
     10  C8       -16.0800   41.5200   10.6400 C.ar  406  0PJ406     -0.0007
     11  N        -12.0390   40.0250    8.2410 N.am  406  0PJ406     -0.1565
     12  C        -11.8240   40.1710    6.8180 C.3   406  0PJ406      0.2238
     13  P        -11.3140   38.6070    6.0620 P.3   406  0PJ406      0.3472
     14  O11       -9.9840   38.0950    6.6650 O.3   406  0PJ406     -0.1484
     15  O21      -12.4190   37.5470    6.2960 O.2   406  0PJ406     -0.2668
     16  N1       -11.1270   39.0050    4.4420 N.3   406  0PJ406     -0.1352
     17  CA        -9.9700   38.4760    3.7610 C.3   406  0PJ406      0.1594
     18  C9        -8.7450   39.3020    3.9940 C.2   406  0PJ406      0.2582
     19  O         -7.6070   38.8270    3.9480 O.2   406  0PJ406     -0.2718
     20  CB       -10.3190   38.5720    2.2620 C.3   406  0PJ406      0.0273
     21  CG        -9.2590   38.0520    1.2450 C.3   406  0PJ406      0.0019
     22  CD1       -9.5730   38.4930   -0.1220 C.3   406  0PJ406      0.0001
     23  CD2       -9.0350   36.5410    1.3710 C.3   406  0PJ406      0.0001
     24  N2        -8.9380   40.7470    4.2390 N.am  406  0PJ406     -0.1944
     25  CA1       -7.7740   41.5950    4.4410 C.3   406  0PJ406      0.1978
     26  CC        -8.1380   42.6090    5.5030 C.2   406  0PJ406      0.3842
     27  O3        -7.2510   43.3930    5.9410 O.co2 406  0PJ406     -0.2437
     28  CB1       -7.2220   42.2180    3.1710 C.3   406  0PJ406      0.0333
     29  CG1       -8.0900   43.0480    2.2510 C.3   406  0PJ406      0.0023
     30 CD11       -8.9610   42.2420    1.3530 C.3   406  0PJ406      0.0001
     31 CD21       -7.2670   44.0570    1.4440 C.3   406  0PJ406      0.0001
     32  OXT       -9.3130   42.6420    5.9640 O.co2 406  0PJ406     -0.2437
@<TRIPOS>BOND
     1    22    21    1
     2    21    23    1
     3    21    20    1
     4    30    29    1
     5    31    29    1
     6    29    28    1
     7    20    17    1
     8    28    25    1
     9    17    18    1
    10    17    16    1
    11    19    18    2
    12    18    24   am
    13    24    25    1
    14    25    26    1
    15    16    13    1
    16    26    27   ar
    17    26    32   ar
    18    13    15    2
    19    13    14    1
    20    13    12    1
    21    12    11    1
    22    11     1   am
    23     2     1    2
    24     1     3    1
    25     3     4    1
    26    10     9   ar
    27    10     5   ar
    28     4     5    1
    29     9     8   ar
    30     5     6   ar
    31     8     7   ar
    32     6     7   ar
