@<TRIPOS>MOLECULE
4h58_10Z_A_1.pdb
 29 32 0 0 0
SMALL
GASTEIGER

@<TRIPOS>ATOM
      1  C29       37.5430  121.6730   78.4140 C.3   801  10Z801      0.1742
      2  O28       36.5040  122.4850   77.8550 O.3   801  10Z801     -0.3496
      3  C27       35.3350  121.7710   77.4210 C.3   801  10Z801      0.1610
      4  C26       34.2500  122.7160   76.8650 C.3   801  10Z801      0.1211
      5  N25       32.9020  122.5300   77.4650 N.3   801  10Z801     -0.2106
      6  C24       31.8430  122.0980   76.5050 C.3   801  10Z801      0.1151
      7  C18       30.4250  122.0890   77.0820 C.ar  801  10Z801     -0.0047
      8  C20       29.7180  120.8950   77.2650 C.ar  801  10Z801     -0.0015
      9  C22       28.4250  120.8970   77.8030 C.ar  801  10Z801      0.0171
     10  C23       27.8290  122.1060   78.1530 C.ar  801  10Z801      0.0826
     11  C21       28.5420  123.2850   77.9640 C.ar  801  10Z801      0.0171
     12  C19       29.8210  123.2800   77.4350 C.ar  801  10Z801     -0.0015
     13  N17       26.5390  122.3010   78.7300 N.pl3 801  10Z801     -0.1358
     14  C8        25.4960  121.4480   79.1950 C.1   801  10Z801      0.1696
     15  N10       25.5940  120.0660   79.1540 N.2   801  10Z801     -0.3361
     16  C12       24.5520  119.2690   79.6100 C.ar  801  10Z801      0.1456
     17  C14       24.6670  117.8950   79.5550 C.ar  801  10Z801      0.0331
     18  C13       23.6390  117.0780   80.0020 C.ar  801  10Z801      0.0027
     19  C15       22.4710  117.6180   80.5240 C.ar  801  10Z801      0.0003
     20  C16       22.3410  119.0060   80.5700 C.ar  801  10Z801      0.0042
     21  C11       23.3820  119.8200   80.1200 C.ar  801  10Z801      0.0505
     22  C9        23.2810  121.1960   80.1640 C.2   801  10Z801      0.1143
     23  N7        24.3290  121.9950   79.7070 N.2   801  10Z801     -0.1683
     24  C2        21.3980  116.6920   80.9550 C.ar  801  10Z801      0.0031
     25  C4        21.6880  115.4720   81.5490 C.ar  801  10Z801      0.0207
     26  C6        20.6500  114.6250   81.9130 C.ar  801  10Z801      0.0989
     27  N5        19.3240  114.9770   81.6830 N.ar  801  10Z801     -0.2423
     28  C3        19.0360  116.1830   81.0800 C.ar  801  10Z801      0.0989
     29  C1        20.0700  117.0300   80.7120 C.ar  801  10Z801      0.0207
@<TRIPOS>BOND
     1     6     7    1
     2     6     5    1
     3     4     3    1
     4     4     5    1
     5     7     8   ar
     6     7    12   ar
     7     8     9   ar
     8     3     2    1
     9    12    11   ar
    10     9    10   ar
    11     2     1    1
    12    11    10   ar
    13    10    13    1
    14    13    14    1
    15    15    14    2
    16    15    16    2
    17    14    23    2
    18    17    16   ar
    19    17    18   ar
    20    16    21   ar
    21    23    22    1
    22    18    19   ar
    23    21    22    2
    24    21    20   ar
    25    19    20   ar
    26    19    24    1
    27    29    24   ar
    28    29    28   ar
    29    24    25   ar
    30    28    27   ar
    31    25    26   ar
    32    27    26   ar
