@<TRIPOS>MOLECULE
4h59_B3P_A_1.pdb
 19 18 0 0 0
SMALL
GASTEIGER

@<TRIPOS>ATOM
      1  C1        58.1640   23.0910   30.9000 C.3   401  B3P401      0.0376
      2  C2        57.2500   23.4240   32.1050 C.3   401  B3P401      0.0904
      3  C3        59.4780   23.8870   30.9880 C.3   401  B3P401      0.0904
      4  N1        60.1890   23.5060   32.2330 N.3   401  B3P401     -0.2130
      5  C4        61.3050   24.4070   32.5480 C.3   401  B3P401      0.1507
      6  C5        61.9000   23.9530   33.8760 C.3   401  B3P401      0.2031
      7  C6        62.3760   24.3280   31.4500 C.3   401  B3P401      0.2031
      8  C7        60.8310   25.8090   32.6560 C.3   401  B3P401      0.2031
      9  N2        57.6980   22.6720   33.2790 N.3   401  B3P401     -0.2130
     10  C8        56.6940   22.7980   34.3930 C.3   401  B3P401      0.1507
     11  C9        56.3200   24.2300   34.5580 C.3   401  B3P401      0.2031
     12  C10       57.2800   22.2870   35.6830 C.3   401  B3P401      0.2031
     13  C11       55.4760   22.0160   34.0220 C.3   401  B3P401      0.2031
     14  O1        57.4710   24.9740   34.8240 O.3   401  B3P401     -0.2187
     15  O2        57.6380   20.9440   35.5510 O.3   401  B3P401     -0.2187
     16  O3        55.8280   20.8060   33.5500 O.3   401  B3P401     -0.2187
     17  O4        60.8850   23.8250   34.8180 O.3   401  B3P401     -0.2187
     18  O5        62.6100   23.0220   31.1310 O.3   401  B3P401     -0.2187
     19  O6        59.6340   25.8560   33.3130 O.3   401  B3P401     -0.2187
@<TRIPOS>BOND
     1     1     3    1
     2     1     2    1
     3     3     4    1
     4    18     7    1
     5     7     5    1
     6     2     9    1
     7     4     5    1
     8     5     8    1
     9     5     6    1
    10     8    19    1
    11     9    10    1
    12    16    13    1
    13     6    17    1
    14    13    10    1
    15    10    11    1
    16    10    12    1
    17    11    14    1
    18    15    12    1
