@<TRIPOS>MOLECULE
4h5d_YS4_F_1.pdb
 26 27 0 0 0
SMALL
GASTEIGER

@<TRIPOS>ATOM
      1  O5        16.3650   35.5510   -6.3130 O.3   401  YS4401     -0.3557
      2  P2        15.0430   35.3670   -7.1130 P.3   401  YS4401      0.1438
      3  O6        14.1070   35.4140   -5.7750 O.3   401  YS4401     -0.3557
      4  O7        14.8300   36.5910   -7.9870 O.2   401  YS4401     -0.4580
      5  C13       14.9480   33.8760   -8.0240 C.3   401  YS4401      0.1962
      6  P1        16.1750   33.8580   -9.4350 P.3   401  YS4401      0.1438
      7  O3        17.6620   33.8150   -8.6430 O.3   401  YS4401     -0.3557
      8  O2        15.9070   32.6040  -10.2510 O.3   401  YS4401     -0.3557
      9  O4        15.9510   35.0910  -10.2700 O.2   401  YS4401     -0.4580
     10  N1        15.1910   32.7110   -7.1180 N.pl3 401  YS4401     -0.2071
     11  C12       14.8900   31.4740   -7.5260 C.ar  401  YS4401      0.1483
     12  C11       15.5890   30.3400   -7.0090 C.ar  401  YS4401      0.0358
     13  N2        13.8920   31.2860   -8.3660 N.ar  401  YS4401     -0.2277
     14  C14       13.5680   30.0140   -8.8490 C.ar  401  YS4401      0.1004
     15  C15       14.2740   28.8950   -8.3800 C.ar  401  YS4401      0.0208
     16  C10       15.3370   29.0770   -7.4430 C.ar  401  YS4401      0.0044
     17  C9        16.1170   27.9730   -6.9470 C.ar  401  YS4401      0.0003
     18  C6        16.1590   26.7710   -7.6780 C.ar  401  YS4401      0.0031
     19  C5        16.8680   25.6350   -7.2000 C.ar  401  YS4401      0.0369
     20  C8        16.8250   28.0300   -5.7080 C.ar  401  YS4401      0.0031
     21  C7        17.5650   26.9330   -5.2350 C.ar  401  YS4401      0.0369
     22  C4        17.5860   25.7320   -5.9920 C.ar  401  YS4401      0.1384
     23  O1        18.3190   24.6040   -5.6210 O.3   401  YS4401     -0.4792
     24  C2        19.1460   24.6360   -4.4220 C.3   401  YS4401      0.1661
     25  C1        20.4640   25.2510   -4.7680 C.3   401  YS4401      0.0472
     26  C3        19.4810   23.1840   -4.2110 C.3   401  YS4401      0.0472
@<TRIPOS>BOND
     1     9     6    2
     2     8     6    1
     3     6     7    1
     4     6     5    1
     5    14    15   ar
     6    14    13   ar
     7    15    16   ar
     8    13    11   ar
     9     5    10    1
    10     5     2    1
    11     4     2    2
    12    18    19   ar
    13    18    17   ar
    14    11    10    1
    15    11    12   ar
    16    16    12   ar
    17    16    17    1
    18    19    22   ar
    19     2     1    1
    20     2     3    1
    21    17    20   ar
    22    22    23    1
    23    22    21   ar
    24    20    21   ar
    25    23    24    1
    26    25    24    1
    27    24    26    1
