@<TRIPOS>MOLECULE
4h5e_YS4_F_1.pdb
 26 27 0 0 0
SMALL
GASTEIGER

@<TRIPOS>ATOM
      1  O5        13.9680   35.4100   -5.8850 O.3   401  YS4401     -0.3557
      2  P2        15.0270   35.3170   -7.1320 P.3   401  YS4401      0.1438
      3  O6        14.8390   36.5410   -8.0750 O.2   401  YS4401     -0.4580
      4  O7        16.3100   35.4210   -6.3790 O.3   401  YS4401     -0.3557
      5  C13       14.8610   33.7960   -8.0780 C.3   401  YS4401      0.1962
      6  P1        16.0830   33.7380   -9.4710 P.3   401  YS4401      0.1438
      7  O3        15.8410   35.1240  -10.1360 O.3   401  YS4401     -0.3557
      8  O2        17.5960   33.7060   -8.7940 O.3   401  YS4401     -0.3557
      9  O4        15.8340   32.5340  -10.3350 O.2   401  YS4401     -0.4580
     10  N1        15.0610   32.6100   -7.1660 N.pl3 401  YS4401     -0.2071
     11  C12       14.8170   31.3540   -7.5890 C.ar  401  YS4401      0.1483
     12  C11       15.4870   30.2560   -7.0120 C.ar  401  YS4401      0.0358
     13  N2        13.9020   31.1290   -8.5320 N.ar  401  YS4401     -0.2277
     14  C14       13.6460   29.8520   -9.0150 C.ar  401  YS4401      0.1004
     15  C15       14.3200   28.7650   -8.4840 C.ar  401  YS4401      0.0208
     16  C10       15.2590   28.9650   -7.4290 C.ar  401  YS4401      0.0044
     17  C9        16.0360   27.9060   -6.8810 C.ar  401  YS4401      0.0003
     18  C6        16.7150   27.9870   -5.6030 C.ar  401  YS4401      0.0031
     19  C5        17.4840   26.8960   -5.1370 C.ar  401  YS4401      0.0369
     20  C8        16.1610   26.7120   -7.6090 C.ar  401  YS4401      0.0031
     21  C7        16.9080   25.5730   -7.1750 C.ar  401  YS4401      0.0369
     22  C4        17.5690   25.6800   -5.9280 C.ar  401  YS4401      0.1384
     23  O1        18.2760   24.5550   -5.5350 O.3   401  YS4401     -0.4792
     24  C2        19.1120   24.5940   -4.3730 C.3   401  YS4401      0.1661
     25  C1        20.4370   25.1890   -4.7470 C.3   401  YS4401      0.0472
     26  C3        19.3710   23.1640   -3.9710 C.3   401  YS4401      0.0472
@<TRIPOS>BOND
     1     9     6    2
     2     7     6    1
     3     6     8    1
     4     6     5    1
     5    14    13   ar
     6    14    15   ar
     7    13    11   ar
     8    15    16   ar
     9     5    10    1
    10     5     2    1
    11     3     2    2
    12    20    21   ar
    13    20    17   ar
    14    11    10    1
    15    11    12   ar
    16    16    12   ar
    17    16    17    1
    18    21    22   ar
    19     2     4    1
    20     2     1    1
    21    17    18   ar
    22    22    23    1
    23    22    19   ar
    24    18    19   ar
    25    23    24    1
    26    25    24    1
    27    24    26    1
