@<TRIPOS>MOLECULE
4h5e_IPR_F_1.pdb
 14 13 0 0 0
SMALL
GASTEIGER

@<TRIPOS>ATOM
      1  P11        8.0710   34.9140   -1.9750 P.3   402  IPR402      0.5373
      2  O14        6.7420   35.4970   -2.3550 O.2   402  IPR402     -0.2221
      3  O12        9.0050   35.7950   -1.2870 O.3   402  IPR402     -0.1143
      4  O13        8.0620   33.4930   -1.5860 O.3   402  IPR402     -0.1143
      5  O10        8.8470   34.8560   -3.4290 O.3   402  IPR402     -0.2261
      6  P7         8.2690   34.7350   -4.8620 P.3   402  IPR402      0.2230
      7  O8         8.5680   35.8470   -5.7450 O.2   402  IPR402     -0.5169
      8  O9         7.1710   33.7430   -5.0930 O.3   402  IPR402     -0.4370
      9  O6         9.3320   33.7040   -5.5150 O.3   402  IPR402     -0.3138
     10  C5        10.8060   33.9930   -5.6380 C.3   402  IPR402      0.1491
     11  C4        11.5710   32.8420   -6.3810 C.3   402  IPR402      0.0325
     12  C2        11.0770   32.8620   -7.7910 C.3   402  IPR402      0.0025
     13  C1        10.6880   31.6030   -8.4610 C.3   402  IPR402      0.0001
     14  C3        10.8470   34.2070   -8.4890 C.3   402  IPR402      0.0001
@<TRIPOS>BOND
     1    14    12    1
     2    13    12    1
     3    12    11    1
     4    11    10    1
     5     7     6    2
     6    10     9    1
     7     9     6    1
     8     8     6    1
     9     6     5    1
    10     5     1    1
    11     2     1    2
    12     1     4    1
    13     1     3    1
