@<TRIPOS>MOLECULE
4h5f_ARG_A_1.pdb
 12 11 0 0 0
SMALL
GASTEIGER

@<TRIPOS>ATOM
      1  N         34.7070   33.1430   51.1540 N.3   317  ARG317     -0.1208
      2  CA        33.5720   32.2450   51.2420 C.3   317  ARG317      0.1944
      3  C         33.5120   31.5540   52.5880 C.2   317  ARG317      0.3819
      4  O         32.4940   30.9750   52.9430 O.co2 317  ARG317     -0.2441
      5  CB        33.5970   31.2100   50.1090 C.3   317  ARG317      0.0343
      6  CG        34.9290   30.5010   49.9240 C.3   317  ARG317      0.0490
      7  CD        34.7780   29.2940   48.9820 C.3   317  ARG317      0.2205
      8  NE        36.0700   28.7020   48.6470 N.pl3 317  ARG317     -0.0865
      9  CZ        36.2480   27.7470   47.7410 C.cat 317  ARG317      0.5346
     10  NH1       35.2140   27.2660   47.0680 N.pl3 317  ARG317      0.1354
     11  NH2       37.4690   27.2760   47.5010 N.pl3 317  ARG317      0.1354
     12  OXT       34.4620   31.5530   53.3640 O.co2 317  ARG317     -0.2441
@<TRIPOS>BOND
     1    10     9    1
     2    11     9    1
     3     9     8    2
     4     8     7    1
     5     7     6    1
     6     6     5    1
     7     5     2    1
     8     1     2    1
     9     2     3    1
    10     3     4   ar
    11     3    12   ar
