@<TRIPOS>MOLECULE
4h5g_ARG_A_1.pdb
 12 11 0 0 0
SMALL
GASTEIGER

@<TRIPOS>ATOM
      1  N         34.7000   50.9460   25.7190 N.3   310  ARG310     -0.1208
      2  CA        33.5180   50.9990   26.5920 C.3   310  ARG310      0.1944
      3  C         33.4420   52.3170   27.3300 C.2   310  ARG310      0.3819
      4  O         34.4290   53.0610   27.4490 O.co2 310  ARG310     -0.2441
      5  CB        33.5200   49.8380   27.5970 C.3   310  ARG310      0.0343
      6  CG        34.8170   49.6770   28.3860 C.3   310  ARG310      0.0490
      7  CD        34.6620   48.6470   29.5150 C.3   310  ARG310      0.2205
      8  NE        35.9480   48.3580   30.1660 N.pl3 310  ARG310     -0.0865
      9  CZ        36.1270   47.4730   31.1420 C.cat 310  ARG310      0.5346
     10  NH1       37.3400   47.2800   31.6570 N.pl3 310  ARG310      0.1354
     11  NH2       35.0900   46.7800   31.5990 N.pl3 310  ARG310      0.1354
     12  OXT       32.3710   52.6770   27.8260 O.co2 310  ARG310     -0.2441
@<TRIPOS>BOND
     1     1     2    1
     2     2     3    1
     3     2     5    1
     4     3     4   ar
     5     3    12   ar
     6     5     6    1
     7     6     7    1
     8     7     8    1
     9     8     9    2
    10     9    11    1
    11     9    10    1
