@<TRIPOS>MOLECULE
4h5h_III_C_1.pdb
 31 30 0 0 0
SMALL
GASTEIGER

@<TRIPOS>ATOM
      1  N         25.9520   18.6310   58.4220 N.3     2  ALA2       -0.1231
      2  CA        24.6840   18.2020   58.9950 C.3     2  ALA2        0.1694
      3  C         24.4390   18.7920   60.3810 C.2     2  ALA2        0.2592
      4  O         25.3680   19.0260   61.1450 O.2     2  ALA2       -0.2718
      5  CB        24.6150   16.6850   59.0430 C.3     2  ALA2        0.0304
      6  N         23.1660   19.0340   60.6690 N.am    3  ALA3       -0.1966
      7  CA        22.6560   19.4740   61.9720 C.3     3  ALA3        0.1728
      8  C         23.6290   20.1340   62.9690 C.2     3  ALA3        0.2616
      9  O         24.4870   19.4840   63.5340 O.2     3  ALA3       -0.2715
     10  CB        21.9070   18.3310   62.6370 C.3     3  ALA3        0.0334
     11  N         23.4360   21.4250   63.2080 N.am    4  ALA4       -0.1963
     12  CA        22.4190   22.1970   62.4850 C.3     4  ALA4        0.1728
     13  C         20.9460   21.7190   62.5870 C.2     4  ALA4        0.2616
     14  O         20.5980   20.7760   63.3380 O.2     4  ALA4       -0.2715
     15  CB        22.8350   22.4050   61.0320 C.3     4  ALA4        0.0334
     16  N         20.0780   22.5180   61.9660 N.am    5  ALA5       -0.1963
     17  CA        18.8430   22.0450   61.3570 C.3     5  ALA5        0.1728
     18  C         18.0260   23.2680   60.9630 C.2     5  ALA5        0.2616
     19  O         17.8190   24.1610   61.7870 O.2     5  ALA5       -0.2715
     20  CB        18.0650   21.1800   62.3340 C.3     5  ALA5        0.0334
     21  N         17.6230   23.3450   59.6930 N.am    6  ALA6       -0.1963
     22  CA        16.5420   24.2490   59.2950 C.3     6  ALA6        0.1728
     23  C         15.4910   24.2460   60.4100 C.2     6  ALA6        0.2617
     24  O         15.1420   23.1750   60.9240 O.2     6  ALA6       -0.2715
     25  CB        15.9320   23.7980   57.9680 C.3     6  ALA6        0.0334
     26  N         15.0300   25.4360   60.8110 N.am    7  ALA7       -0.1942
     27  CA        14.2730   25.6190   62.0680 C.3     7  ALA7        0.1979
     28  C         12.8140   25.1290   62.0060 C.2     7  ALA7        0.3842
     29  O         11.8740   25.7700   62.5060 O.co2   7  ALA7       -0.2437
     30  CB        14.3470   27.0730   62.5430 C.3     7  ALA7        0.0356
     31  OXT       12.5400   24.0330   61.5020 O.co2   7  ALA7       -0.2437
@<TRIPOS>BOND
     1    25    22    1
     2     1     2    1
     3     2     5    1
     4     2     3    1
     5    22    21    1
     6    22    23    1
     7    21    18   am
     8     3     6   am
     9     3     4    2
    10    23    26   am
    11    23    24    2
    12     6     7    1
    13    26    27    1
    14    18    17    1
    15    18    19    2
    16    15    12    1
    17    17    16    1
    18    17    20    1
    19    31    28   ar
    20    16    13   am
    21     7    10    1
    22     7     8    1
    23    28    27    1
    24    28    29   ar
    25    27    30    1
    26    12    13    1
    27    12    11    1
    28    13    14    2
    29     8    11   am
    30     8     9    2
