@<TRIPOS>MOLECULE
4h67_PLP_B_1.pdb
 15 15 0 0 0
SMALL
GASTEIGER

@<TRIPOS>ATOM
      1  N1        33.5190   -4.0060   56.3680 N.2   400  PLP400     -0.2458
      2  C2        33.8140   -3.4550   55.1350 C.2   400  PLP400      0.0942
      3  C2A       34.0720   -1.9690   55.1290 C.3   400  PLP400      0.0552
      4  C3        33.8710   -4.2680   53.9770 C.2   400  PLP400      0.1899
      5  O3        34.1690   -3.7050   52.9070 O.2   400  PLP400     -0.2898
      6  C4        33.5900   -5.6740   54.1090 C.3   400  PLP400      0.0852
      7  C4A       33.6040   -6.7100   52.9980 C.3   400  PLP400      0.0127
      8  C5        33.2810   -6.2010   55.3780 C.2   400  PLP400      0.0115
      9  C6        33.2750   -5.3590   56.4840 C.2   400  PLP400      0.0928
     10  C5A       33.0260   -7.6710   55.6650 C.3   400  PLP400      0.1701
     11  O4P       34.1820   -8.3300   56.3080 O.3   400  PLP400     -0.3405
     12  P         34.2570   -9.3400   57.6000 P.3   400  PLP400      0.0269
     13  O1P       34.7290  -10.6070   56.9460 O.co2 400  PLP400     -0.8499
     14  O2P       35.0880   -8.7090   58.6740 O.co2 400  PLP400     -0.7986
     15  O3P       32.9200   -9.3950   58.1880 O.3   400  PLP400     -0.2139
@<TRIPOS>UNITY_ATOM_ATTR
13 1
charge -1
14 1
charge -1
@<TRIPOS>BOND
     1     5     4    2
     2     7     6    1
     3     4     6    1
     4     4     2    1
     5     6     8    1
     6     3     2    1
     7     2     1    2
     8     8    10    1
     9     8     9    2
    10    10    11    1
    11    11    12    1
    12     1     9    1
    13    13    12    2
    14    12    15    1
    15    12    14    1
