@<TRIPOS>MOLECULE
4h69_10Y_A_1.pdb
 21 21 0 0 0
SMALL
GASTEIGER

@<TRIPOS>ATOM
      1  O1        16.8110    0.3150   19.9780 O.co2 202  10Y202     -0.2457
      2  C1        16.3000   -0.8230   19.9460 C.2   202  10Y202      0.3649
      3  O2        16.6510   -1.7570   19.2080 O.co2 202  10Y202     -0.2457
      4  C2        15.1540   -1.1190   20.9150 C.3   202  10Y202      0.1141
      5  C3        15.6780   -1.8050   22.1830 C.3   202  10Y202      0.0118
      6  C4        14.5550   -1.8090   23.2320 C.3   202  10Y202      0.0006
      7  C5        15.0320   -2.4100   24.5560 C.3   202  10Y202      0.0000
      8  C6        14.3070   -1.7220   25.7210 C.3   202  10Y202      0.0003
      9  C7        14.4860   -2.5330   27.0100 C.3   202  10Y202      0.0047
     10  C8        15.6680   -1.9960   27.8170 C.3   202  10Y202      0.0257
     11  C9        16.4010   -3.1690   28.4440 C.2   202  10Y202     -0.0306
     12  C10       17.6780   -3.4420   28.1600 C.2   202  10Y202     -0.0281
     13  C11       18.4840   -2.6040   27.1750 C.3   202  10Y202      0.0577
     14  C12       19.7960   -3.3170   26.8400 C.3   202  10Y202      0.1468
     15  O3        20.7690   -2.5830   26.0360 O.3   202  10Y202     -0.3531
     16  C13       21.0070   -2.6850   27.4430 C.3   202  10Y202      0.1468
     17  C14       20.7720   -1.3970   28.2150 C.3   202  10Y202      0.0577
     18  C15       22.1300   -0.7600   28.4680 C.2   202  10Y202     -0.0281
     19  C16       22.8440   -1.2400   29.4630 C.2   202  10Y202     -0.0306
     20  C17       22.2530   -2.3740   30.2870 C.3   202  10Y202      0.0257
     21  C18       22.2160   -1.9870   31.7540 C.3   202  10Y202      0.0050
@<TRIPOS>BOND
     1     3     2   ar
     2     2     1   ar
     3     2     4    1
     4     4     5    1
     5     5     6    1
     6     6     7    1
     7     7     8    1
     8     8     9    1
     9    15    14    1
    10    15    16    1
    11    14    13    1
    12    14    16    1
    13     9    10    1
    14    13    12    1
    15    16    17    1
    16    10    11    1
    17    12    11    2
    18    17    18    1
    19    18    19    2
    20    19    20    1
    21    20    21    1
