@<TRIPOS>MOLECULE
4h6b_10Y_A_1.pdb
 21 21 0 0 0
SMALL
GASTEIGER

@<TRIPOS>ATOM
      1  O1       -12.4150  -11.4190   -9.3940 O.co2 202  10Y202     -0.2457
      2  C1       -13.6130  -11.6220   -9.0590 C.2   202  10Y202      0.3649
      3  O2       -14.0890  -12.6990   -8.5890 O.co2 202  10Y202     -0.2457
      4  C2       -14.5840  -10.4510   -9.2470 C.3   202  10Y202      0.1141
      5  C3       -15.5930  -10.8070  -10.3410 C.3   202  10Y202      0.0118
      6  C4       -15.9600   -9.5400  -11.1250 C.3   202  10Y202      0.0006
      7  C5       -17.0510   -9.9010  -12.1350 C.3   202  10Y202      0.0000
      8  C6       -17.8120   -8.6370  -12.5350 C.3   202  10Y202      0.0003
      9  C7       -17.2870   -8.1170  -13.8740 C.3   202  10Y202      0.0047
     10  C8       -16.1010   -7.1850  -13.6180 C.3   202  10Y202      0.0257
     11  C9       -16.0440   -6.1130  -14.7070 C.2   202  10Y202     -0.0306
     12  C10      -15.6500   -6.4450  -15.9630 C.2   202  10Y202     -0.0281
     13  C11      -15.3500   -7.9080  -16.2740 C.3   202  10Y202      0.0577
     14  C12      -13.9220   -7.9980  -16.8040 C.3   202  10Y202      0.1468
     15  O3       -13.5620   -9.3110  -17.2960 O.3   202  10Y202     -0.3531
     16  C13      -13.8000   -8.2780  -18.2730 C.3   202  10Y202      0.1468
     17  C14      -15.0970   -8.4290  -19.0610 C.3   202  10Y202      0.0577
     18  C15      -14.7470   -8.2270  -20.5340 C.2   202  10Y202     -0.0281
     19  C16      -15.1200   -7.0810  -21.1580 C.2   202  10Y202     -0.0306
     20  C17      -15.9930   -6.0700  -20.4070 C.3   202  10Y202      0.0257
     21  C18      -15.3590   -4.6820  -20.5070 C.3   202  10Y202      0.0050
@<TRIPOS>BOND
     1    19    18    2
     2    19    20    1
     3    18    17    1
     4    21    20    1
     5    17    16    1
     6    16    15    1
     7    16    14    1
     8    15    14    1
     9    14    13    1
    10    13    12    1
    11    12    11    2
    12    11    10    1
    13     9    10    1
    14     9     8    1
    15     8     7    1
    16     7     6    1
    17     6     5    1
    18     5     4    1
    19     1     2   ar
    20     4     2    1
    21     2     3   ar
