@<TRIPOS>MOLECULE
4h6b_10X_A_1.pdb
 21 21 0 0 0
SMALL
GASTEIGER

@<TRIPOS>ATOM
      1  CAA      -15.3610   -4.7000  -20.5060 C.3   201  10X201      0.0050
      2  CAH      -15.8400   -6.1430  -20.6600 C.3   201  10X201      0.0257
      3  CAD      -14.8450   -6.9350  -21.2210 C.2   201  10X201     -0.0306
      4  CAF      -14.4420   -8.1030  -20.5850 C.2   201  10X201     -0.0281
      5  CAO      -15.0070   -8.4820  -19.3740 C.3   201  10X201      0.0577
      6  CAT      -14.1490   -7.9570  -18.2330 C.3   201  10X201      0.1468
      7  OAR      -13.4800   -8.9780  -17.4460 O.3   201  10X201     -0.3531
      8  CAU      -14.6210   -8.2980  -16.8570 C.3   201  10X201      0.1468
      9  CAP      -14.2790   -7.2470  -15.8130 C.3   201  10X201      0.0577
     10  CAG      -15.2130   -6.2220  -15.8510 C.2   201  10X201     -0.0281
     11  CAE      -16.2140   -6.1770  -14.8920 C.2   201  10X201     -0.0306
     12  CAI      -16.2610   -7.1400  -13.8910 C.3   201  10X201      0.0257
     13  CAJ      -17.6030   -7.8720  -13.8930 C.3   201  10X201      0.0047
     14  CAK      -17.8060   -8.6190  -12.5730 C.3   201  10X201      0.0003
     15  CAL      -16.7340   -9.6910  -12.3810 C.3   201  10X201      0.0000
     16  CAM      -15.9270   -9.4300  -11.1090 C.3   201  10X201      0.0006
     17  CAN      -15.6020  -10.7580  -10.4180 C.3   201  10X201      0.0118
     18  CAQ      -14.7650  -10.5260   -9.1620 C.3   201  10X201      0.1141
     19  CAS      -13.5230  -11.4170   -9.1580 C.2   201  10X201      0.3649
     20  OAC      -12.4460  -10.8770   -9.5190 O.co2 201  10X201     -0.2457
     21  OAB      -13.6750  -12.6130   -8.7880 O.co2 201  10X201     -0.2457
@<TRIPOS>BOND
     1     3     2    1
     2     3     4    2
     3     2     1    1
     4     4     5    1
     5     5     6    1
     6     6     7    1
     7     6     8    1
     8     7     8    1
     9     8     9    1
    10    10     9    1
    11    10    11    2
    12    11    12    1
    13    13    12    1
    14    13    14    1
    15    14    15    1
    16    15    16    1
    17    16    17    1
    18    17    18    1
    19    20    19   ar
    20    18    19    1
    21    19    21   ar
