@<TRIPOS>MOLECULE
4h6d_PLP_A_1.pdb
 15 15 0 0 0
SMALL
GASTEIGER

@<TRIPOS>ATOM
      1  N1        32.9900  -18.9740   55.8280 N.2   400  PLP400     -0.2458
      2  C2        33.0250  -18.7840   54.4820 C.2   400  PLP400      0.0942
      3  C2A       33.1000  -17.3920   53.9590 C.3   400  PLP400      0.0552
      4  C3        32.9930  -19.8670   53.6160 C.2   400  PLP400      0.1899
      5  O3        33.0360  -19.6180   52.4180 O.2   400  PLP400     -0.2898
      6  C4        32.9140  -21.1870   54.0940 C.3   400  PLP400      0.0852
      7  C4A       32.9000  -22.3110   53.0970 C.3   400  PLP400      0.0127
      8  C5        32.8940  -21.3680   55.4800 C.2   400  PLP400      0.0118
      9  C6        32.9210  -20.2540   56.3110 C.2   400  PLP400      0.0929
     10  C5A       32.8060  -22.6260   56.2790 C.3   400  PLP400      0.1779
     11  O4P       32.8760  -24.0140   55.9660 O.3   400  PLP400     -0.2656
     12  P         33.7850  -24.7780   57.0540 P.3   400  PLP400      0.5329
     13  O1P       34.3260  -25.9110   56.2670 O.2   400  PLP400     -0.2224
     14  O2P       34.7330  -23.6820   57.3730 O.3   400  PLP400     -0.1145
     15  O3P       32.9840  -25.1780   58.2420 O.3   400  PLP400     -0.1145
@<TRIPOS>BOND
     1     5     4    2
     2     7     6    1
     3     4     6    1
     4     4     2    1
     5     3     2    1
     6     6     8    1
     7     2     1    2
     8     8    10    1
     9     8     9    2
    10     1     9    1
    11    11    10    1
    12    11    12    1
    13    13    12    2
    14    12    14    1
    15    12    15    1
