@<TRIPOS>MOLECULE
4h6p_FMN_A_1.pdb
 31 33 0 0 0
SMALL
GASTEIGER

@<TRIPOS>ATOM
      1  N1       -48.1150   14.1090  -16.5440 N.2   201  FMN201     -0.2887
      2  C2       -48.0600   13.7270  -15.2260 C.1   201  FMN201      0.3669
      3  O2       -47.4300   14.4190  -14.4380 O.2   201  FMN201     -0.1744
      4  N3       -48.6960   12.5880  -14.7890 N.2   201  FMN201     -0.2300
      5  C4       -49.4040   11.8270  -15.6910 C.1   201  FMN201      0.2513
      6  O4       -49.9910   10.8080  -15.3250 O.2   201  FMN201     -0.2057
      7  C4A      -49.4640   12.2200  -17.0250 C.2   201  FMN201      0.2706
      8  N5       -50.1640   11.4610  -17.9310 N.2   201  FMN201     -0.3841
      9  C5A      -50.2170   11.8200  -19.2590 C.2   201  FMN201      0.1452
     10  C6       -50.9200   11.0290  -20.1620 C.2   201  FMN201      0.0252
     11  C7       -50.9800   11.3810  -21.5010 C.2   201  FMN201     -0.0375
     12  C7M      -51.7440   10.5310  -22.4710 C.3   201  FMN201      0.0268
     13  C8       -50.3290   12.5310  -21.9400 C.3   201  FMN201      0.0417
     14  C8M      -50.4040   12.8980  -23.3890 C.3   201  FMN201      0.0091
     15  C9       -49.6270   13.3230  -21.0370 C.2   201  FMN201     -0.0049
     16  C9A      -49.5750   12.9620  -19.6920 C.2   201  FMN201      0.0795
     17  N10      -48.8690   13.7320  -18.7940 N.pl3 201  FMN201     -0.2545
     18  C10      -48.8140   13.3610  -17.4590 C.2   201  FMN201      0.2449
     19  C1'      -48.1990   14.9780  -19.2970 C.3   201  FMN201      0.1336
     20  C2'      -46.7610   14.7850  -19.7310 C.3   201  FMN201      0.2048
     21  O2'      -45.9570   14.6640  -18.5800 O.3   201  FMN201     -0.2185
     22  C3'      -46.3180   15.9560  -20.6110 C.3   201  FMN201      0.2165
     23  O3'      -47.1440   15.9520  -21.7540 O.3   201  FMN201     -0.2175
     24  C4'      -44.8900   15.7540  -21.0840 C.3   201  FMN201      0.2147
     25  O4'      -44.3600   16.9150  -21.6780 O.3   201  FMN201     -0.2176
     26  C5'      -44.8880   14.6530  -22.1230 C.3   201  FMN201      0.1892
     27  O5'      -43.5840   14.1490  -22.1950 O.3   201  FMN201     -0.2674
     28  P        -42.6710   14.5940  -23.4430 P.3   201  FMN201      0.5327
     29  O1P      -42.5240   16.0980  -23.3850 O.3   201  FMN201     -0.1145
     30  O2P      -43.3720   14.1870  -24.7280 O.2   201  FMN201     -0.2224
     31  O3P      -41.2960   13.9760  -23.3160 O.3   201  FMN201     -0.1145
@<TRIPOS>BOND
     1    30    28    2
     2    28    29    1
     3    28    31    1
     4    28    27    1
     5    14    13    1
     6    12    11    1
     7    27    26    1
     8    26    24    1
     9    13    11    1
    10    13    15    1
    11    23    22    1
    12    25    24    1
    13    11    10    2
    14    24    22    1
    15    15    16    2
    16    22    20    1
    17    10     9    1
    18    20    19    1
    19    20    21    1
    20    16     9    1
    21    16    17    1
    22    19    17    1
    23     9     8    2
    24    17    18    1
    25     8     7    2
    26    18     7    1
    27    18     1    2
    28     7     5    1
    29     1     2    2
    30     5     6    2
    31     5     4    2
    32     2     4    2
    33     2     3    2
