@<TRIPOS>MOLECULE
4h71_PXE_A_1.pdb
 13 13 0 0 0
SMALL
GASTEIGER

@<TRIPOS>ATOM
      1  OAA        0.4830  -12.7000   -3.5560 O.3   702  PXE702     -0.0605
      2  NAB       -0.5580  -12.6280   -2.6990 N.4   702  PXE702     -0.0971
      3  CAC       -1.7810  -12.2590   -3.1830 C.2   702  PXE702      0.1030
      4  CAD       -1.9580  -11.9300   -4.5090 C.2   702  PXE702      0.0024
      5  CAE       -3.1950  -11.6110   -5.0010 C.3   702  PXE702      0.0853
      6  CAF       -4.2840  -11.5670   -4.0600 C.2   702  PXE702      0.1765
      7  CAG       -4.1170  -11.8170   -2.7660 C.2   702  PXE702      0.0351
      8  CAH       -2.9280  -12.1690   -2.3030 C.2   702  PXE702      0.0006
      9  OAI       -5.3740  -11.2970   -4.4260 O.2   702  PXE702     -0.2910
     10  CAJ       -2.9300  -12.4520   -0.8590 C.3   702  PXE702      0.0328
     11  CAK       -3.5480  -11.2240   -6.3350 C.3   702  PXE702      0.0114
     12  CAL       -2.3710  -10.9460   -7.2000 C.3   702  PXE702      0.0008
     13  CAM       -4.0860   -9.8890   -6.0020 C.3   702  PXE702      0.0008
@<TRIPOS>BOND
     1    12    11    1
     2    11    13    1
     3    11     5    1
     4     5     4    1
     5     5     6    1
     6     4     3    2
     7     9     6    2
     8     6     7    1
     9     1     2    1
    10     3     2    1
    11     3     8    1
    12     7     8    2
    13     8    10    1
