@<TRIPOS>MOLECULE
4h7z_GUN_A_1.pdb
 11 12 0 0 0
SMALL
GASTEIGER

@<TRIPOS>ATOM
      1  N9       107.2550   16.8720   19.7530 N.2   401  GUN401     -0.1802
      2  C8       108.5150   17.1970   19.3640 C.3   401  GUN401      0.2633
      3  N7       109.2700   17.5410   20.4360 N.2   401  GUN401     -0.2212
      4  C5       108.4850   17.4420   21.5200 C.2   401  GUN401      0.2482
      5  C6       108.6870   17.6500   22.9690 C.1   401  GUN401      0.2442
      6  O6       109.8220   18.0170   23.3270 O.2   401  GUN401     -0.2063
      7  N1       107.6410   17.4720   23.8120 N.2   401  GUN401     -0.2474
      8  C2       106.4290   17.0780   23.3310 C.1   401  GUN401      0.2608
      9  N2       105.3790   16.8850   24.1620 N.pl3 401  GUN401     -0.0220
     10  N3       106.1900   16.8400   22.0150 N.2   401  GUN401     -0.2682
     11  C4       107.1660   17.0130   21.0820 C.1   401  GUN401      0.1289
@<TRIPOS>BOND
     1     2     1    1
     2     2     3    1
     3     1    11    2
     4     3     4    2
     5    11     4    1
     6    11    10    2
     7     4     5    1
     8    10     8    2
     9     5     6    2
    10     5     7    2
    11     8     7    2
    12     8     9    1
