@<TRIPOS>MOLECULE
4h8a_NAI_A_1.pdb
 44 48 0 0 0
SMALL
GASTEIGER

@<TRIPOS>ATOM
      1  PA        52.1530   -8.4330  -21.5060 P.3   401  NAI401      0.2189
      2  O1A       53.3530   -8.4610  -22.4770 O.2   401  NAI401     -0.5170
      3  O2A       52.0300   -7.1220  -20.8190 O.3   401  NAI401     -0.4371
      4  O5B       50.8040   -8.6420  -22.3870 O.3   401  NAI401     -0.3112
      5  C5B       49.6160   -9.2140  -21.8610 C.3   401  NAI401      0.1813
      6  C4B       48.6840   -9.7350  -22.8510 C.3   401  NAI401      0.1821
      7  O4B       48.3890   -8.7280  -23.8100 O.3   401  NAI401     -0.3135
      8  C3B       49.2680  -10.8690  -23.6010 C.3   401  NAI401      0.2184
      9  O3B       48.2160  -11.7670  -23.9190 O.3   401  NAI401     -0.2174
     10  C2B       49.7890  -10.2750  -24.7750 C.3   401  NAI401      0.2570
     11  O2B       49.8640  -11.1880  -25.8250 O.3   401  NAI401     -0.2130
     12  C1B       48.8330   -9.1540  -25.0630 C.3   401  NAI401      0.3186
     13  N9A       49.3950   -8.0370  -25.8070 N.pl3 401  NAI401     -0.1439
     14  C8A       50.4530   -7.2860  -25.4240 C.3   401  NAI401      0.3377
     15  N7A       50.6920   -6.3530  -26.3560 N.2   401  NAI401     -0.2095
     16  C5A       49.7790   -6.4870  -27.3520 C.2   401  NAI401      0.2526
     17  C6A       49.5210   -5.8170  -28.5560 C.2   401  NAI401      0.4393
     18  N6A       50.2940   -4.7310  -28.9850 N.pl3 401  NAI401      0.2180
     19  N1A       48.4960   -6.2320  -29.3250 N.2   401  NAI401      0.0021
     20  C2A       47.7270   -7.2640  -28.9490 C.3   401  NAI401      0.5254
     21  N3A       47.9520   -7.9330  -27.8100 N.2   401  NAI401     -0.0055
     22  C4A       48.9590   -7.5650  -26.9890 C.2   401  NAI401      0.3518
     23  O3        52.2870   -9.6610  -20.5770 O.3   401  NAI401     -0.2703
     24  PN        52.5850   -9.8000  -19.0350 P.3   401  NAI401      0.2189
     25  O1N       51.5810   -9.0410  -18.1710 O.3   401  NAI401     -0.4371
     26  O2N       54.0060   -9.3310  -18.6940 O.2   401  NAI401     -0.5170
     27  O5D       52.4480  -11.3620  -18.8920 O.3   401  NAI401     -0.3112
     28  C5D       52.8090  -12.1470  -17.7730 C.3   401  NAI401      0.1813
     29  C4D       53.1400  -13.5860  -18.0670 C.3   401  NAI401      0.1799
     30  O4D       53.7220  -14.1270  -16.9360 O.3   401  NAI401     -0.3327
     31  C3D       51.9210  -14.3920  -18.3120 C.3   401  NAI401      0.2158
     32  O3D       52.2520  -15.4980  -19.1880 O.3   401  NAI401     -0.2175
     33  C2D       51.5760  -14.8640  -17.0410 C.3   401  NAI401      0.2309
     34  O2D       50.8410  -16.0960  -17.0800 O.3   401  NAI401     -0.2158
     35  C1D       52.8830  -15.0750  -16.3850 C.3   401  NAI401      0.2263
     36  N1N       52.8470  -14.9700  -14.9130 N.pl3 401  NAI401     -0.2787
     37  C2N       52.9070  -16.0710  -14.1460 C.3   401  NAI401      0.1244
     38  C3N       52.8920  -15.9490  -12.7630 C.2   401  NAI401      0.0544
     39  C7N       52.9510  -17.1230  -11.9240 C.2   401  NAI401      0.2818
     40  O7N       52.7820  -18.2130  -12.4070 O.2   401  NAI401     -0.2670
     41  N7N       53.2210  -16.9930  -10.4660 N.am  401  NAI401     -0.0839
     42  C4N       52.8020  -14.6670  -12.1940 C.2   401  NAI401      0.0033
     43  C5N       52.7340  -13.5500  -13.0250 C.2   401  NAI401      0.0157
     44  C6N       52.7570  -13.7340  -14.3970 C.2   401  NAI401      0.0633
@<TRIPOS>BOND
     1    19    20    1
     2    19    17    2
     3    18    17    1
     4    20    21    1
     5    17    16    1
     6    21    22    2
     7    16    22    1
     8    16    15    2
     9    22    13    1
    10    15    14    1
    11    11    10    1
    12    13    14    1
    13    13    12    1
    14    12    10    1
    15    12     7    1
    16    10     8    1
    17     9     8    1
    18     7     6    1
    19     8     6    1
    20     6     5    1
    21     2     1    2
    22     4     5    1
    23     4     1    1
    24     1     3    1
    25     1    23    1
    26    23    24    1
    27    32    31    1
    28    24    27    1
    29    24    26    2
    30    24    25    1
    31    27    28    1
    32    31    29    1
    33    31    33    1
    34    29    28    1
    35    29    30    1
    36    34    33    1
    37    33    35    1
    38    30    35    1
    39    35    36    1
    40    36    44    1
    41    36    37    1
    42    44    43    2
    43    37    38    1
    44    43    42    1
    45    38    42    2
    46    38    39    1
    47    40    39    2
    48    39    41   am
