@<TRIPOS>MOLECULE
4h8e_FPP_A_1.pdb
 24 23 0 0 0
SMALL
GASTEIGER

@<TRIPOS>ATOM
      1  C1        21.1570    2.0890   10.0380 C.3   302  FPP302      0.1747
      2  O1        20.3820    1.0490   10.5790 O.3   302  FPP302     -0.3089
      3  C2        22.2220    1.4630    9.3040 C.2   302  FPP302     -0.0024
      4  C3        23.5840    1.9600    9.4410 C.2   302  FPP302     -0.0454
      5  C4        23.9710    3.1060   10.3700 C.3   302  FPP302      0.0261
      6  C5        24.5930    1.3020    8.5470 C.3   302  FPP302      0.0264
      7  C6        25.7610    0.7970    9.3760 C.3   302  FPP302      0.0297
      8  C7        26.7700    0.4180    8.2970 C.2   302  FPP302     -0.0342
      9  C8        27.4470   -0.8830    8.3060 C.2   302  FPP302     -0.0478
     10  C10       27.1160   -1.9160    9.4170 C.3   302  FPP302      0.0260
     11  C9        28.4050   -1.2210    7.2400 C.3   302  FPP302      0.0263
     12  C11       29.8690   -1.0900    7.7400 C.3   302  FPP302      0.0297
     13  C12       30.7920   -1.7850    6.7300 C.2   302  FPP302     -0.0342
     14  C13       31.3670   -1.0390    5.6180 C.2   302  FPP302     -0.0478
     15  C14       31.0520    0.4290    5.4010 C.3   302  FPP302      0.0260
     16  C15       32.2120   -1.7730    4.6350 C.3   302  FPP302      0.0260
     17  PA        19.8950    1.4630   12.0180 P.3   302  FPP302      0.2233
     18  O1A       21.0170    1.1680   13.0730 O.3   302  FPP302     -0.4370
     19  O2A       19.3710    2.8510   12.0400 O.2   302  FPP302     -0.5169
     20  O3A       18.6710    0.4080   12.2180 O.3   302  FPP302     -0.2261
     21  PB        17.2740    0.7390   13.0800 P.3   302  FPP302      0.5373
     22  O1B       16.3850   -0.5600   12.8200 O.3   302  FPP302     -0.1143
     23  O2B       17.7620    0.8440   14.5390 O.3   302  FPP302     -0.1143
     24  O3B       16.6740    1.9920   12.4570 O.2   302  FPP302     -0.2221
@<TRIPOS>BOND
     1    16    14    1
     2    15    14    1
     3    14    13    2
     4    13    12    1
     5    11    12    1
     6    11     9    1
     7     8     9    2
     8     8     7    1
     9     9    10    1
    10     6     7    1
    11     6     4    1
    12     3     4    2
    13     3     1    1
    14     4     5    1
    15     1     2    1
    16     2    17    1
    17    17    19    2
    18    17    20    1
    19    17    18    1
    20    20    21    1
    21    24    21    2
    22    22    21    1
    23    21    23    1
