@<TRIPOS>MOLECULE
4h8p_HEM_A_1.pdb
 43 50 0 0 0
SMALL
GASTEIGER

@<TRIPOS>ATOM
      1  CHA        4.7940   55.7160   22.5740 C.2   201  HEM201      0.0000
      2  CHB        2.0980   54.0880   18.8650 C.2   201  HEM201      0.0000
      3  CHC        4.8560   56.6400   15.7880 C.2   201  HEM201      0.0000
      4  CHD        7.8530   57.7710   19.3750 C.2   201  HEM201      0.0000
      5  C1A        3.8160   55.0820   21.8410 C.ar  201  HEM201      0.0000
      6  C2A        2.7480   54.2750   22.3930 C.ar  201  HEM201      0.0000
      7  C3A        1.9970   53.8160   21.3850 C.ar  201  HEM201      0.0000
      8  C4A        2.5740   54.3170   20.1400 C.ar  201  HEM201      0.0000
      9  CMA        0.7410   52.9190   21.5090 C.3   201  HEM201      0.0000
     10  CAA        2.5270   54.0110   23.9010 C.3   201  HEM201      0.0000
     11  CBA        2.5810   52.5090   24.1110 C.3   201  HEM201      0.0000
     12  CGA        3.9860   52.0300   23.8900 C.2   201  HEM201      0.0000
     13  O1A        4.2010   51.1340   23.0170 O.co2 201  HEM201      0.0000
     14  O2A        4.8750   52.5680   24.6020 O.co2 201  HEM201      0.0000
     15  C1B        2.6230   54.6240   17.7080 C.2   201  HEM201      0.0000
     16  C2B        2.1950   54.3480   16.3430 C.2   201  HEM201      0.0000
     17  C3B        2.9820   55.0630   15.5210 C.2   201  HEM201      0.0000
     18  C4B        3.9070   55.8030   16.3220 C.2   201  HEM201      0.0000
     19  CMB        1.0470   53.3890   15.9470 C.3   201  HEM201      0.0000
     20  CAB        2.9910   55.1910   13.9810 C.2   201  HEM201      0.0000
     21  CBB        1.9030   54.9030   13.2780 C.2   201  HEM201      0.0000
     22  C1C        5.9250   57.1600   16.4590 C.ar  201  HEM201      0.0000
     23  C2C        7.0070   57.9370   15.8790 C.ar  201  HEM201      0.0000
     24  C3C        7.8430   58.2610   16.8790 C.ar  201  HEM201      0.0000
     25  C4C        7.3110   57.6900   18.1170 C.ar  201  HEM201      0.0000
     26  CMC        7.1320   58.3130   14.3870 C.3   201  HEM201      0.0000
     27  CAC        9.1360   59.0840   16.7320 C.2   201  HEM201      0.0000
     28  CBC        9.7780   59.5060   17.8220 C.2   201  HEM201      0.0000
     29  C1D        7.3140   57.3400   20.5640 C.2   201  HEM201      0.0000
     30  C2D        7.9170   57.5600   21.8610 C.2   201  HEM201      0.0000
     31  C3D        6.9590   56.9220   22.8540 C.2   201  HEM201      0.0000
     32  C4D        5.8780   56.3830   22.0630 C.2   201  HEM201      0.0000
     33  CMD        9.2390   58.2890   22.2050 C.3   201  HEM201      0.0000
     34  CAD        7.1240   56.8660   24.3840 C.3   201  HEM201      0.0000
     35  CBD        7.4810   55.4390   24.7860 C.3   201  HEM201      0.0000
     36  CGD        8.7880   55.0040   24.1710 C.2   201  HEM201      0.0000
     37  O1D        8.8280   53.8650   23.6300 O.co2 201  HEM201      0.0000
     38  O2D        9.8010   55.7710   24.2300 O.co2 201  HEM201      0.0000
     39  NA         3.6770   55.0890   20.4720 N.ar  201  HEM201      0.0000
     40  NB         3.6790   55.5210   17.6510 N.2   201  HEM201      0.0000
     41  NC         6.1470   57.0360   17.8040 N.ar  201  HEM201      0.0000
     42  ND         6.1090   56.6490   20.7190 N.2   201  HEM201      0.0000
     43 FE          4.7030   56.3580   19.2170 Fe    201  HEM201      0.0000
@<TRIPOS>BOND
     1    21    20    2
     2    20    17    1
     3    26    23    1
     4    17    18    1
     5    17    16    2
     6     3    18    2
     7     3    22    1
     8    23    22   ar
     9    23    24   ar
    10    19    16    1
    11    18    40    1
    12    16    15    1
    13    22    41   ar
    14    27    24    1
    15    27    28    2
    16    24    25   ar
    17    40    15    2
    18    40    43    1
    19    15     2    1
    20    41    25   ar
    21    41    43    1
    22    25     4    1
    23     2     8    2
    24    43    39    1
    25    43    42    1
    26     4    29    2
    27     8    39   ar
    28     8     7   ar
    29    39     5   ar
    30    29    42    1
    31    29    30    1
    32    42    32    2
    33     7     9    1
    34     7     6   ar
    35     5     6   ar
    36     5     1    2
    37    30    33    1
    38    30    31    2
    39    32     1    1
    40    32    31    1
    41     6    10    1
    42    31    34    1
    43    13    12   ar
    44    37    36   ar
    45    12    11    1
    46    12    14   ar
    47    10    11    1
    48    36    38   ar
    49    36    35    1
    50    34    35    1
