@<TRIPOS>MOLECULE
4h8q_HEM_A_1.pdb
 43 50 0 0 0
SMALL
GASTEIGER

@<TRIPOS>ATOM
      1  CHA       -1.1450  -49.7690  -31.9960 C.2   201  HEM201      0.0000
      2  CHB        0.4660  -52.4140  -35.7330 C.2   201  HEM201      0.0000
      3  CHC       -2.0690  -49.6630  -38.8470 C.2   201  HEM201      0.0000
      4  CHD       -3.2060  -46.6570  -35.1990 C.2   201  HEM201      0.0000
      5  C1A       -0.5030  -50.7220  -32.7400 C.ar  201  HEM201      0.0000
      6  C2A        0.3390  -51.7830  -32.2180 C.ar  201  HEM201      0.0000
      7  C3A        0.7800  -52.4970  -33.2590 C.ar  201  HEM201      0.0000
      8  C4A        0.2280  -51.9340  -34.4690 C.ar  201  HEM201      0.0000
      9  CMA        1.7100  -53.7280  -33.2110 C.3   201  HEM201      0.0000
     10  CAA        0.6770  -52.0110  -30.7220 C.3   201  HEM201      0.0000
     11  CBA        1.5840  -50.8830  -30.2290 C.3   201  HEM201      0.0000
     12  CGA        2.8760  -50.7980  -31.0140 C.2   201  HEM201      0.0000
     13  O1A        3.5100  -51.8550  -31.2590 O.co2 201  HEM201      0.0000
     14  O2A        3.3050  -49.6740  -31.3870 O.co2 201  HEM201      0.0000
     15  C1B       -0.0600  -51.8830  -36.8890 C.2   201  HEM201      0.0000
     16  C2B        0.2360  -52.3480  -38.2230 C.2   201  HEM201      0.0000
     17  C3B       -0.4510  -51.6010  -39.0840 C.2   201  HEM201      0.0000
     18  C4B       -1.2230  -50.6270  -38.3310 C.2   201  HEM201      0.0000
     19  CMB        1.2070  -53.4990  -38.5780 C.3   201  HEM201      0.0000
     20  CAB       -0.4120  -51.7770  -40.6180 C.2   201  HEM201      0.0000
     21  CBB       -1.0300  -50.9010  -41.4040 C.2   201  HEM201      0.0000
     22  C1C       -2.5740  -48.5900  -38.1380 C.ar  201  HEM201      0.0000
     23  C2C       -3.3170  -47.4740  -38.6940 C.ar  201  HEM201      0.0000
     24  C3C       -3.6360  -46.6440  -37.6930 C.ar  201  HEM201      0.0000
     25  C4C       -3.1050  -47.2020  -36.4580 C.ar  201  HEM201      0.0000
     26  CMC       -3.6830  -47.3030  -40.1900 C.3   201  HEM201      0.0000
     27  CAC       -4.4280  -45.3260  -37.8200 C.2   201  HEM201      0.0000
     28  CBC       -4.8080  -44.6860  -36.7150 C.2   201  HEM201      0.0000
     29  C1D       -2.7640  -47.2380  -34.0340 C.2   201  HEM201      0.0000
     30  C2D       -2.9750  -46.6580  -32.7340 C.2   201  HEM201      0.0000
     31  C3D       -2.3400  -47.6110  -31.7420 C.2   201  HEM201      0.0000
     32  C4D       -1.8040  -48.6900  -32.5340 C.2   201  HEM201      0.0000
     33  CMD       -3.6890  -45.3380  -32.4120 C.3   201  HEM201      0.0000
     34  CAD       -2.2930  -47.4580  -30.2110 C.3   201  HEM201      0.0000
     35  CBD       -0.8940  -47.0490  -29.7750 C.3   201  HEM201      0.0000
     36  CGD       -0.4670  -45.7580  -30.4140 C.2   201  HEM201      0.0000
     37  O1D       -1.2160  -44.7380  -30.3490 O.co2 201  HEM201      0.0000
     38  O2D        0.6570  -45.7470  -30.9800 O.co2 201  HEM201      0.0000
     39  NA        -0.5500  -50.8450  -34.1100 N.ar  201  HEM201      0.0000
     40  NB        -0.9550  -50.8290  -36.9890 N.2   201  HEM201      0.0000
     41  NC        -2.4580  -48.3780  -36.7770 N.ar  201  HEM201      0.0000
     42  ND        -2.0700  -48.4400  -33.8830 N.2   201  HEM201      0.0000
     43 FE         -1.6990  -49.7510  -35.4070 Fe    201  HEM201      0.0000
@<TRIPOS>BOND
     1    21    20    2
     2    20    17    1
     3    26    23    1
     4    17    18    1
     5    17    16    2
     6     3    18    2
     7     3    22    1
     8    23    22   ar
     9    23    24   ar
    10    19    16    1
    11    18    40    1
    12    16    15    1
    13    22    41   ar
    14    27    24    1
    15    27    28    2
    16    24    25   ar
    17    40    15    2
    18    40    43    1
    19    15     2    1
    20    41    25   ar
    21    41    43    1
    22    25     4    1
    23     2     8    2
    24    43    39    1
    25    43    42    1
    26     4    29    2
    27     8    39   ar
    28     8     7   ar
    29    39     5   ar
    30    29    42    1
    31    29    30    1
    32    42    32    2
    33     7     9    1
    34     7     6   ar
    35     5     6   ar
    36     5     1    2
    37    30    33    1
    38    30    31    2
    39    32     1    1
    40    32    31    1
    41     6    10    1
    42    31    34    1
    43    14    12   ar
    44    13    12   ar
    45    12    11    1
    46    38    36   ar
    47    10    11    1
    48    36    37   ar
    49    36    35    1
    50    34    35    1
