@<TRIPOS>MOLECULE
4h99_SPO_M_1.pdb
 42 41 0 0 0
SMALL
GASTEIGER

@<TRIPOS>ATOM
      1  CM1       42.2820   82.4090   55.0850 C.3   406  SPO406      0.1739
      2  O1        43.4030   83.3270   55.1530 O.3   406  SPO406     -0.3555
      3  C1        44.4430   83.6260   54.1320 C.3   406  SPO406      0.0970
      4  C2        45.8090   83.9120   54.7960 C.3   406  SPO406      0.0300
      5  C3        44.6330   82.4520   53.1500 C.3   406  SPO406      0.0300
      6  C4        44.0890   84.8830   53.2740 C.3   406  SPO406      0.0532
      7  C5        42.6210   85.0140   52.8260 C.2   406  SPO406     -0.0240
      8  C6        42.2320   85.9450   51.9230 C.2   406  SPO406     -0.0088
      9  C7        40.8320   86.1620   51.3890 C.2   406  SPO406     -0.0222
     10  C8        39.6160   85.2920   51.7970 C.3   406  SPO406      0.0310
     11  C9        40.7810   87.1760   50.4560 C.2   406  SPO406     -0.0043
     12  C10       39.6540   87.7650   49.6650 C.2   406  SPO406     -0.0006
     13  C11       39.8620   88.5480   48.5590 C.2   406  SPO406     -0.0043
     14  C12       38.7510   89.2050   47.8130 C.2   406  SPO406     -0.0218
     15  C13       37.4080   89.1280   48.5160 C.3   406  SPO406      0.0310
     16  C14       38.9260   89.8760   46.6260 C.2   406  SPO406     -0.0043
     17  C15       37.8480   90.5400   45.8450 C.2   406  SPO406     -0.0007
     18  C16       38.0400   91.3440   44.7680 C.2   406  SPO406     -0.0046
     19  C17       36.8490   91.8960   44.0880 C.2   406  SPO406     -0.0261
     20  C18       35.6080   91.5050   44.7760 C.3   406  SPO406      0.0307
     21  C19       36.7010   92.6380   42.9640 C.2   406  SPO406     -0.0300
     22  C20       37.7260   93.2200   42.1060 C.3   406  SPO406      0.0304
     23  C21       37.5960   94.0790   41.0460 C.3   406  SPO406      0.0304
     24  C22       38.9310   94.4960   40.5410 C.2   406  SPO406     -0.0300
     25  C23       39.3090   95.3040   39.5310 C.2   406  SPO406     -0.0261
     26  C24       38.1580   95.8990   38.7330 C.3   406  SPO406      0.0307
     27  C25       40.8100   95.5630   39.2920 C.2   406  SPO406     -0.0046
     28  C26       41.5600   95.9640   38.1950 C.2   406  SPO406     -0.0010
     29  C27       43.0820   96.1590   38.2130 C.2   406  SPO406     -0.0085
     30  C28       44.0370   96.6440   37.2620 C.2   406  SPO406     -0.0436
     31  C29       43.7560   97.1270   35.8710 C.3   406  SPO406      0.0264
     32  C30       45.5380   96.7950   37.4920 C.3   406  SPO406      0.0267
     33  C31       45.7800   98.2460   37.9490 C.3   406  SPO406      0.0297
     34  C32       47.1760   98.8490   37.8620 C.2   406  SPO406     -0.0342
     35  C33       48.0490   99.1240   38.8830 C.2   406  SPO406     -0.0478
     36  C34       47.6610   98.8640   40.2970 C.3   406  SPO406      0.0260
     37  C35       49.4250   99.7760   38.6120 C.3   406  SPO406      0.0263
     38  C36       50.7550   98.9830   38.5540 C.3   406  SPO406      0.0297
     39  C37       51.3280   98.7830   37.1220 C.2   406  SPO406     -0.0342
     40  C38       51.9730   99.6170   36.2150 C.2   406  SPO406     -0.0478
     41  C39       52.4100   99.0560   34.8650 C.3   406  SPO406      0.0260
     42  C40       52.2680  101.0810   36.4680 C.3   406  SPO406      0.0260
@<TRIPOS>BOND
     1    41    40    1
     2    31    30    1
     3    40    42    1
     4    40    39    2
     5    39    38    1
     6    30    32    1
     7    30    29    2
     8    32    33    1
     9    34    33    1
    10    34    35    2
    11    28    29    1
    12    28    27    2
    13    38    37    1
    14    37    35    1
    15    26    25    1
    16    35    36    1
    17    27    25    1
    18    25    24    2
    19    24    23    1
    20    23    22    1
    21    22    21    1
    22    21    19    2
    23    19    18    1
    24    19    20    1
    25    18    17    2
    26    17    16    1
    27    16    14    2
    28    14    15    1
    29    14    13    1
    30    13    12    2
    31    12    11    1
    32    11     9    2
    33     9    10    1
    34     9     8    1
    35     8     7    2
    36     7     6    1
    37     5     3    1
    38     6     3    1
    39     3     4    1
    40     3     2    1
    41     1     2    1
