@<TRIPOS>MOLECULE
4h99_U10_L_1.pdb
 33 33 0 0 0
SMALL
GASTEIGER

@<TRIPOS>ATOM
      1  C1        35.4250   73.2370   30.8950 C.3   304  U10304      0.0672
      2  C2        35.6600   72.2500   29.8520 C.2   304  U10304      0.1804
      3  C3        35.3590   72.2210   28.4310 C.3   304  U10304      0.2061
      4  C4        34.8350   73.4370   27.9320 C.3   304  U10304      0.2061
      5  C5        34.6800   74.4380   28.9490 C.2   304  U10304      0.1804
      6  C6        34.8810   74.4110   30.4320 C.3   304  U10304      0.0672
      7  C1M       35.7330   73.1160   32.3930 C.3   304  U10304      0.0083
      8  C3M       34.7300   70.4370   26.6500 C.3   304  U10304      0.1747
      9  C4M       33.9870   73.1810   25.4940 C.3   304  U10304      0.1747
     10  C7        34.1280   75.3670   31.5000 C.3   304  U10304      0.0078
     11  C8        34.3640   75.3220   33.0490 C.3   304  U10304      0.0008
     12  C9        34.1300   76.4520   34.0700 C.3   304  U10304      0.0043
     13  C10       35.2900   77.2260   34.7200 C.3   304  U10304      0.0003
     14  C11       32.7590   76.8950   34.6350 C.3   304  U10304      0.0257
     15  C12       32.6490   76.8820   36.2220 C.2   304  U10304     -0.0307
     16  C13       31.4500   76.2410   37.0570 C.2   304  U10304     -0.0307
     17  C14       31.2190   76.3360   38.5880 C.3   304  U10304      0.0260
     18  C15       32.4010   76.7060   39.4950 C.3   304  U10304      0.0050
     19  C16       29.8460   76.1050   39.3170 C.3   304  U10304      0.0300
     20  C17       29.6180   77.0190   40.5870 C.2   304  U10304     -0.0304
     21  C18       28.5640   78.1500   40.5160 C.2   304  U10304     -0.0310
     22  C19       28.4510   79.3690   41.3990 C.3   304  U10304      0.0217
     23  C20       29.6730   80.2540   41.5410 C.3   304  U10304      0.0047
     24  C21       27.1480   79.7640   42.1670 C.3   304  U10304      0.0043
     25  C22       27.0990   79.6160   43.7420 C.3   304  U10304      0.0003
     26  C23       25.7600   79.0420   44.3170 C.3   304  U10304      0.0000
     27  C24       25.3560   78.2570   45.5560 C.3   304  U10304      0.0000
     28  C25       26.1880   78.4600   46.8380 C.3   304  U10304      0.0000
     29  C26       24.1090   77.3080   45.4520 C.3   304  U10304      0.0000
     30  O2        36.6870   71.6130   30.0030 O.2   304  U10304     -0.2934
     31  O3        35.2130   71.0070   27.9070 O.3   304  U10304     -0.3432
     32  O4        34.1080   73.6540   26.8420 O.3   304  U10304     -0.3432
     33  O5        34.7530   75.5110   28.3300 O.2   304  U10304     -0.2934
@<TRIPOS>BOND
     1     9    32    1
     2     8    31    1
     3    32     4    1
     4    31     3    1
     5     4     3    1
     6     4     5    1
     7    33     5    2
     8     3     2    1
     9     5     6    1
    10     2    30    2
    11     2     1    1
    12     6     1    1
    13     6    10    1
    14     1     7    1
    15    10    11    1
    16    11    12    1
    17    12    14    1
    18    12    13    1
    19    14    15    1
    20    15    16    2
    21    16    17    1
    22    17    19    1
    23    17    18    1
    24    19    20    1
    25    21    20    2
    26    21    22    1
    27    22    23    1
    28    22    24    1
    29    24    25    1
    30    25    26    1
    31    26    27    1
    32    29    27    1
    33    27    28    1
