@<TRIPOS>MOLECULE
4h99_BCL_M_1.pdb
 50 56 0 0 0
SMALL
GASTEIGER

@<TRIPOS>ATOM
      1 MG         31.7840   91.2990   41.2830 Mg    401  BCL401      0.0000
      2  CHA       29.4110   89.2230   42.5160 C.2   401  BCL401      0.0000
      3  CHB       34.2060   88.8510   42.0300 C.2   401  BCL401      0.0000
      4  CHC       33.8740   92.9190   39.2090 C.2   401  BCL401      0.0000
      5  CHD       29.2080   93.5440   40.2490 C.2   401  BCL401      0.0000
      6  NA        31.7120   89.3360   41.9010 N.2   401  BCL401      0.0000
      7  C1A       30.6350   88.6410   42.3450 C.2   401  BCL401      0.0000
      8  C2A       30.9860   87.1920   42.6270 C.2   401  BCL401      0.0000
      9  C3A       32.4360   87.4330   43.1270 C.2   401  BCL401      0.0000
     10  C4A       32.8680   88.6130   42.3160 C.1   401  BCL401      0.0000
     11  CMA       32.4710   87.8480   44.5650 C.3   401  BCL401      0.0000
     12  CAA       30.8610   86.1110   41.4400 C.2   401  BCL401      0.0000
     13  CBA       31.7730   86.2170   40.1690 C.2   401  BCL401      0.0000
     14  CGA       31.6360   85.1440   39.0600 C.2   401  BCL401      0.0000
     15  O1A       30.5010   84.7740   38.9920 O.2   401  BCL401      0.0000
     16  O2A       32.6390   84.5930   38.2080 O.3   401  BCL401      0.0000
     17  NB        33.6310   90.9400   40.6860 N.ar  401  BCL401      0.0000
     18  C1B       34.5760   89.8800   41.1150 C.ar  401  BCL401      0.0000
     19  C2B       35.7970   90.1100   40.4830 C.ar  401  BCL401      0.0000
     20  C3B       35.6700   91.2660   39.6560 C.ar  401  BCL401      0.0000
     21  C4B       34.3660   91.7880   39.8100 C.ar  401  BCL401      0.0000
     22  CMB       37.0970   89.3540   40.6090 C.3   401  BCL401      0.0000
     23  CAB       36.7580   91.9150   38.8390 C.2   401  BCL401      0.0000
     24  OBB       37.8940   91.5040   38.9440 O.2   401  BCL401      0.0000
     25  CBB       36.5490   93.0790   37.9130 C.3   401  BCL401      0.0000
     26  NC        31.6300   92.9440   40.0500 N.2   401  BCL401      0.0000
     27  C1C       32.6950   93.5300   39.4060 C.1   401  BCL401      0.0000
     28  C2C       32.3900   94.8780   38.8010 C.2   401  BCL401      0.0000
     29  C3C       30.8920   95.0840   39.1710 C.2   401  BCL401      0.0000
     30  C4C       30.4970   93.7670   39.8740 C.2   401  BCL401      0.0000
     31  CMC       33.1280   96.0260   39.4790 C.3   401  BCL401      0.0000
     32  CAC       30.1860   95.5230   37.9020 C.3   401  BCL401      0.0000
     33  CBC       30.1030   94.3730   36.9000 C.3   401  BCL401      0.0000
     34  ND        29.8220   91.3300   41.1500 N.ar  401  BCL401      0.0000
     35  C1D       28.8580   92.3840   40.9820 C.ar  401  BCL401      0.0000
     36  C2D       27.6030   92.0970   41.5890 C.ar  401  BCL401      0.0000
     37  C3D       27.7150   90.8740   42.1730 C.ar  401  BCL401      0.0000
     38  C4D       29.0460   90.4440   41.9200 C.ar  401  BCL401      0.0000
     39  CMD       26.2930   92.8710   41.6610 C.3   401  BCL401      0.0000
     40  CAD       27.0800   89.8620   42.9620 C.2   401  BCL401      0.0000
     41  OBD       25.9360   89.8180   43.3490 O.2   401  BCL401      0.0000
     42  CBD       28.1320   88.7860   43.1050 C.3   401  BCL401      0.0000
     43  CGD       28.2300   88.3140   44.4720 C.2   401  BCL401      0.0000
     44  O1D       27.7030   87.2630   44.6260 O.2   401  BCL401      0.0000
     45  O2D       28.7860   88.9960   45.4690 O.3   401  BCL401      0.0000
     46  CED       28.8340   88.1990   46.6840 C.3   401  BCL401      0.0000
     47  C1        32.6040   83.1290   37.9360 C.3   401  BCL401      0.0000
     48  C2        33.6260   82.0000   38.2230 C.3   401  BCL401      0.0000
     49  C3        34.4190   81.5840   39.2380 C.3   401  BCL401      0.0000
     50  C4        35.1430   80.2970   38.8350 C.3   401  BCL401      0.0000
@<TRIPOS>BOND
     1    33    32    1
     2    32    29    1
     3    25    23    1
     4    47    16    1
     5    47    48    1
     6    16    14    1
     7    48    49    1
     8    28    29    2
     9    28    27    1
    10    28    31    1
    11    50    49    1
    12    23    24    2
    13    23    20    1
    14    15    14    2
    15    14    13    1
    16    29    30    1
    17     4    27    2
    18     4    21    1
    19    27    26    2
    20    20    21   ar
    21    20    19   ar
    22    21    17   ar
    23    30    26    2
    24    30     5    1
    25    13    12    2
    26     5    35    2
    27    19    22    1
    28    19    18   ar
    29    17    18   ar
    30    17     1    1
    31    35    34   ar
    32    35    36   ar
    33    18     3    1
    34    34     1    1
    35    34    38   ar
    36    12     8    1
    37    36    39    1
    38    36    37   ar
    39     6    10    2
    40     6     7    2
    41    38    37   ar
    42    38     2    2
    43     3    10    2
    44    37    40    1
    45    10     9    1
    46     7     2    1
    47     7     8    1
    48     2    42    1
    49     8     9    2
    50    40    42    1
    51    40    41    2
    52    42    43    1
    53     9    11    1
    54    43    44    2
    55    43    45    1
    56    45    46    1
