@<TRIPOS>MOLECULE
4h9l_SPO_M_1.pdb
 33 32 0 0 0
SMALL
GASTEIGER

@<TRIPOS>ATOM
      1  CM1       42.9000   83.6240   54.7620 C.3   406  SPO406      0.1739
      2  O1        43.8250   84.7400   54.7840 O.3   406  SPO406     -0.3555
      3  C1        45.0120   84.9480   53.9590 C.3   406  SPO406      0.0970
      4  C2        45.9750   85.9470   54.6250 C.3   406  SPO406      0.0300
      5  C3        45.7740   83.6290   53.7420 C.3   406  SPO406      0.0300
      6  C4        44.6470   85.5820   52.6040 C.3   406  SPO406      0.0532
      7  C5        43.1810   85.9330   52.4420 C.2   406  SPO406     -0.0240
      8  C6        42.8550   86.9820   51.6730 C.2   406  SPO406     -0.0088
      9  C7        41.4720   87.4640   51.3740 C.2   406  SPO406     -0.0222
     10  C8        40.3080   86.9830   52.2050 C.3   406  SPO406      0.0310
     11  C9        41.3310   88.2980   50.3030 C.2   406  SPO406     -0.0046
     12  C10       40.1200   88.9530   49.7360 C.2   406  SPO406     -0.0046
     13  C11       40.0660   89.4070   48.4500 C.2   406  SPO406     -0.0221
     14  C12       38.9050   90.1210   47.8440 C.3   406  SPO406      0.0440
     15  C13       37.6270   90.1420   48.6540 C.3   406  SPO406      0.0094
     16  C14       39.0420   90.7780   46.6460 C.2   406  SPO406     -0.0221
     17  C15       37.9530   91.5020   45.9580 C.2   406  SPO406     -0.0046
     18  C16       38.0530   92.0860   44.7320 C.2   406  SPO406     -0.0046
     19  C17       36.8670   92.7610   44.1060 C.2   406  SPO406     -0.0222
     20  C18       35.5510   92.4610   44.7330 C.3   406  SPO406      0.0310
     21  C19       36.7620   93.5700   43.0220 C.2   406  SPO406     -0.0085
     22  C20       37.7880   94.1680   42.1910 C.2   406  SPO406     -0.0218
     23  C21       37.6240   95.0050   41.1470 C.3   406  SPO406      0.0517
     24  C22       38.9240   95.4890   40.6300 C.2   406  SPO406     -0.0257
     25  C23       39.2660   96.2790   39.5820 C.2   406  SPO406     -0.0258
     26  C24       38.2140   96.8160   38.6370 C.3   406  SPO406      0.0307
     27  C25       40.7470   96.5960   39.4110 C.2   406  SPO406     -0.0046
     28  C26       41.5710   96.5710   38.3150 C.2   406  SPO406     -0.0010
     29  C27       43.0270   96.9440   38.3800 C.2   406  SPO406     -0.0085
     30  C28       43.8320   97.4550   37.3580 C.2   406  SPO406     -0.0439
     31  C29       43.2850   97.6700   35.9610 C.3   406  SPO406      0.0264
     32  C30       45.3100   97.7940   37.6340 C.3   406  SPO406      0.0220
     33  C31       45.8410   99.0900   37.0100 C.3   406  SPO406      0.0047
@<TRIPOS>BOND
     1    31    30    1
     2    33    32    1
     3    30    32    1
     4    30    29    2
     5    28    29    1
     6    28    27    2
     7    26    25    1
     8    27    25    1
     9    25    24    2
    10    24    23    1
    11    23    22    1
    12    22    21    2
    13    21    19    1
    14    19    18    2
    15    19    20    1
    16    18    17    1
    17    17    16    2
    18    16    14    1
    19    14    13    1
    20    14    15    1
    21    13    12    2
    22    12    11    1
    23    11     9    2
    24     9     8    1
    25     9    10    1
    26     8     7    2
    27     7     6    1
    28     6     3    1
    29     5     3    1
    30     3     4    1
    31     3     2    1
    32     1     2    1
