@<TRIPOS>MOLECULE
4h9l_U10_L_1.pdb
 16 16 0 0 0
SMALL
GASTEIGER

@<TRIPOS>ATOM
      1  C1        35.3280   74.7370   29.3500 C.2   304  U10304      0.0142
      2  C2        34.7070   74.7890   28.0720 C.2   304  U10304      0.1987
      3  C3        34.7270   73.7300   27.1350 C.3   304  U10304      0.2104
      4  C4        35.4600   72.5350   27.5310 C.3   304  U10304      0.2104
      5  C5        36.1090   72.5490   28.8270 C.2   304  U10304      0.1987
      6  C6        36.0510   73.6420   29.7880 C.2   304  U10304      0.0139
      7  C1M       35.2050   75.9200   30.2860 C.3   304  U10304      0.0339
      8  C3M       33.9750   73.0330   24.9220 C.3   304  U10304      0.1747
      9  C4M       35.6940   70.5260   26.1070 C.3   304  U10304      0.1747
     10  C7        36.5160   73.6190   31.2850 C.3   304  U10304      0.0291
     11  C8        35.5260   74.2490   32.2600 C.3   304  U10304      0.0048
     12  C9        35.6890   74.9680   33.5750 C.3   304  U10304      0.0004
     13  O2        34.6590   75.9040   27.5560 O.2   304  U10304     -0.2890
     14  O3        34.2040   73.9780   25.9770 O.3   304  U10304     -0.3429
     15  O4        35.0850   71.3580   27.1080 O.3   304  U10304     -0.3429
     16  O5        36.5680   71.4310   29.1470 O.2   304  U10304     -0.2890
@<TRIPOS>BOND
     1     8    14    1
     2    14     3    1
     3     9    15    1
     4    15     4    1
     5     3     4    1
     6     3     2    1
     7     4     5    1
     8    13     2    2
     9     2     1    1
    10     5    16    2
    11     5     6    1
    12     1     6    2
    13     1     7    1
    14     6    10    1
    15    10    11    1
    16    11    12    1
