@<TRIPOS>MOLECULE
4h9l_BPH_M_1.pdb
 50 55 0 0 0
SMALL
GASTEIGER

@<TRIPOS>ATOM
      1  CHA       39.3190   84.4320   31.9290 C.2   404  BPH404      0.0827
      2  CHB       37.5500   85.7310   36.1500 C.2   404  BPH404      0.1301
      3  CHC       33.8580   87.9440   33.6810 C.2   404  BPH404      0.1305
      4  CHD       35.4280   86.2780   29.4760 C.2   404  BPH404      0.0981
      5  NA        38.2450   85.2200   33.9130 N.2   404  BPH404     -0.3677
      6  C1A       39.3070   84.6940   33.3720 C.2   404  BPH404      0.1431
      7  C2A       40.3790   84.2450   34.3710 C.2   404  BPH404      0.0140
      8  C3A       39.4880   84.1390   35.6460 C.2   404  BPH404      0.0336
      9  C4A       38.3400   85.0890   35.2770 C.1   404  BPH404      0.0084
     10  CMA       38.9570   82.7020   35.8910 C.3   404  BPH404      0.0412
     11  CAA       41.5880   85.1840   34.5210 C.3   404  BPH404      0.0410
     12  CBA       42.6100   84.7240   35.5980 C.3   404  BPH404      0.1143
     13  CGA       43.8270   85.6240   35.7730 C.2   404  BPH404      0.3176
     14  O1A       43.9770   86.6590   35.1550 O.2   404  BPH404     -0.2501
     15  O2A       44.7540   85.1070   36.6670 O.3   404  BPH404     -0.4435
     16  NB        35.8590   86.7760   34.6550 N.2   404  BPH404     -0.3323
     17  C1B       36.4210   86.5630   35.9170 C.1   404  BPH404      0.0187
     18  C2B       35.5900   87.2150   36.8190 C.2   404  BPH404      0.0476
     19  C3B       34.5570   87.8410   36.0730 C.2   404  BPH404      0.0972
     20  C4B       34.7240   87.5680   34.7340 C.1   404  BPH404      0.0251
     21  CMB       35.7260   87.3390   38.2810 C.3   404  BPH404      0.0422
     22  CAB       33.4830   88.6450   36.6180 C.2   404  BPH404      0.1827
     23  OBB       33.5830   89.2500   37.6950 O.2   404  BPH404     -0.2906
     24  CBB       32.1670   88.7380   35.8860 C.3   404  BPH404      0.0780
     25  NC        34.9950   87.2420   31.6600 N.2   404  BPH404     -0.3673
     26  C1C       33.9350   87.7830   32.3550 C.1   404  BPH404      0.0085
     27  C2C       32.7760   88.2360   31.4390 C.2   404  BPH404      0.0336
     28  C3C       33.1250   87.5070   30.1370 C.2   404  BPH404      0.0138
     29  C4C       34.5710   87.0100   30.4560 C.2   404  BPH404      0.1469
     30  CMC       31.3810   87.7840   31.9280 C.3   404  BPH404      0.0412
     31  CAC       32.8970   88.5420   29.0370 C.3   404  BPH404      0.0293
     32  CBC       33.6030   88.1830   27.7430 C.3   404  BPH404      0.0051
     33  ND        37.1870   85.5650   31.1140 N.2   404  BPH404     -0.3337
     34  C1D       36.5980   85.6560   29.8510 C.1   404  BPH404      0.0116
     35  C2D       37.5190   84.8940   28.9630 C.2   404  BPH404      0.0470
     36  C3D       38.5180   84.4410   29.7570 C.2   404  BPH404      0.0972
     37  C4D       38.3200   84.8570   31.1140 C.1   404  BPH404      0.0143
     38  CMD       37.2780   84.7230   27.5060 C.3   404  BPH404      0.0422
     39  CAD       39.7820   83.6750   29.8120 C.2   404  BPH404      0.1973
     40  OBD       40.3570   83.1210   28.9410 O.2   404  BPH404     -0.2897
     41  CBD       40.3480   83.6070   31.1920 C.3   404  BPH404      0.1947
     42  CGD       40.4160   82.1620   31.5970 C.2   404  BPH404      0.3290
     43  O1D       41.4830   81.6170   31.7660 O.2   404  BPH404     -0.2492
     44  O2D       39.2300   81.4920   31.7580 O.3   404  BPH404     -0.4439
     45  CED       39.4110   80.1820   32.3510 C.3   404  BPH404      0.2556
     46  C1        45.3430   85.7640   37.8460 C.3   404  BPH404      0.2342
     47  C2        45.4550   84.7340   38.9630 C.2   404  BPH404      0.0123
     48  C3        44.8980   84.6000   40.2460 C.2   404  BPH404     -0.0443
     49  C4        43.9700   85.6070   40.9330 C.3   404  BPH404      0.0261
     50  C5        45.0420   83.4140   41.2640 C.3   404  BPH404      0.0261
@<TRIPOS>BOND
     1    38    35    1
     2    32    31    1
     3    40    39    2
     4    35    36    2
     5    35    34    1
     6    31    28    1
     7     4    34    2
     8     4    29    1
     9    36    39    1
    10    36    37    1
    11    39    41    1
    12    34    33    2
    13    28    29    1
    14    28    27    2
    15    29    25    2
    16    33    37    2
    17    37     1    2
    18    41    42    1
    19    41     1    1
    20    27    30    1
    21    27    26    1
    22    42    44    1
    23    42    43    2
    24    25    26    2
    25    44    45    1
    26     1     6    1
    27    26     3    2
    28     6     5    2
    29     6     7    1
    30     3    20    1
    31     5     9    2
    32     7    11    1
    33     7     8    2
    34    11    12    1
    35    16    20    2
    36    16    17    2
    37    20    19    2
    38    14    13    2
    39     9     8    1
    40     9     2    2
    41    12    13    1
    42     8    10    1
    43    13    15    1
    44    24    22    1
    45    17     2    1
    46    17    18    2
    47    19    22    1
    48    19    18    1
    49    22    23    2
    50    15    46    1
    51    18    21    1
    52    46    47    1
    53    47    48    2
    54    48    49    1
    55    48    50    1
