@<TRIPOS>MOLECULE
4h9t_HL4_A_1.pdb
 12 12 0 0 0
SMALL
GASTEIGER

@<TRIPOS>ATOM
      1  C1         2.1150   15.3480  -12.3150 C.3   403  HL4403      0.1971
      2  C2         1.1370   16.2780  -12.9550 C.2   403  HL4403      0.3371
      3  C4         1.0970   14.4450  -14.1980 C.3   403  HL4403      0.2109
      4  C5         1.9660   14.1380  -13.0140 C.3   403  HL4403      0.0805
      5  O6         0.8740   17.3570  -12.5910 O.2   403  HL4403     -0.2482
      6  N7         1.8470   15.0800  -10.9200 N.am  403  HL4403     -0.1956
      7  C8         2.9840   15.0640   -9.9800 C.2   403  HL4403      0.2418
      8  O9         4.0980   15.2750  -10.3830 O.2   403  HL4403     -0.2733
      9  C10        2.8110   14.7910   -8.5170 C.3   403  HL4403      0.0868
     10  C11        4.0650   14.6580   -7.7590 C.3   403  HL4403      0.0096
     11  C13        4.8670   13.3540   -7.9270 C.3   403  HL4403      0.0005
     12  OAP        0.9330   15.8170  -14.2420 O.3   403  HL4403     -0.4473
@<TRIPOS>BOND
     1    12     3    1
     2    12     2    1
     3     3     4    1
     4     4     1    1
     5     2     5    2
     6     2     1    1
     7     1     6    1
     8     6     7   am
     9     8     7    2
    10     7     9    1
    11     9    10    1
    12    11    10    1
