@<TRIPOS>MOLECULE
4h9x_HL4_A_1.pdb
 12 12 0 0 0
SMALL
GASTEIGER

@<TRIPOS>ATOM
      1  C1        13.3600   20.7670   -2.8910 C.3   404  HL4404      0.1971
      2  C2        14.0680   22.0350   -3.2300 C.2   404  HL4404      0.3371
      3  C4        13.3450   22.1230   -1.1100 C.3   404  HL4404      0.2109
      4  C5        13.5160   20.6940   -1.5070 C.3   404  HL4404      0.0805
      5  O6        14.2230   22.4470   -4.3180 O.2   404  HL4404     -0.2482
      6  N7        13.9330   19.5960   -3.5120 N.am  404  HL4404     -0.1956
      7  C8        13.4020   19.1930   -4.8190 C.2   404  HL4404      0.2418
      8  O9        12.5290   19.8600   -5.3000 O.2   404  HL4404     -0.2733
      9  C10       13.8980   17.9880   -5.5740 C.3   404  HL4404      0.0868
     10  C11       13.1980   17.6840   -6.8390 C.3   404  HL4404      0.0096
     11  C13       11.9310   16.8080   -6.8130 C.3   404  HL4404      0.0005
     12  OAP       14.0280   22.8270   -2.0870 O.3   404  HL4404     -0.4473
@<TRIPOS>BOND
     1    10    11    1
     2    10     9    1
     3     9     7    1
     4     8     7    2
     5     7     6   am
     6     5     2    2
     7     6     1    1
     8     2     1    1
     9     2    12    1
    10     1     4    1
    11    12     3    1
    12     4     3    1
