@<TRIPOS>MOLECULE
4ha5_13W_A_1.pdb
 23 25 0 0 0
SMALL
GASTEIGER

@<TRIPOS>ATOM
      1  C1        28.2760   11.2450   18.7210 C.ar  502  13W502      0.0007
      2  C2        28.9760   10.8340   19.8800 C.ar  502  13W502      0.0103
      3  C3        28.2450   10.4820   21.0380 C.ar  502  13W502      0.0684
      4  C4        26.8360   10.5370   21.0440 C.ar  502  13W502      0.0103
      5  C5        26.1050   10.9450   19.8880 C.ar  502  13W502      0.0012
      6  C6        26.8550   11.3030   18.7230 C.ar  502  13W502      0.0001
      7  C7        24.6270   11.0020   19.9160 C.ar  502  13W502      0.0068
      8  C8        23.8510   10.4900   20.9840 C.ar  502  13W502      0.0059
      9  C9        22.4810   10.6700   20.7760 C.ar  502  13W502      0.0435
     10  S1        22.1930   11.4570   19.2990 S.2   502  13W502     -0.0875
     11  C10       23.8290   11.5680   18.9100 C.ar  502  13W502      0.0352
     12  C11       21.3360   10.2500   21.7050 C.3   502  13W502      0.1819
     13  C12       20.6470   11.5190   22.2640 C.3   502  13W502      0.1477
     14  C13       21.4570   12.1880   23.4050 C.2   502  13W502      0.2913
     15  N1        22.2710   11.3450   24.1740 N.am  502  13W502     -0.1396
     16  C14       22.3270    9.9680   23.9950 C.2   502  13W502      0.4490
     17  N2        21.8610    9.4250   22.8210 N.2   502  13W502     -0.0975
     18  N3        22.8240    9.1630   24.9390 N.pl3 502  13W502      0.1440
     19  C15       20.3330    9.3850   20.9160 C.3   502  13W502      0.0490
     20  C16       23.0960   12.0250   25.2200 C.3   502  13W502      0.2161
     21  O1        21.3720   13.4000   23.5900 O.2   502  13W502     -0.2563
     22  C17       28.9270   10.0600   22.2340 C.1   502  13W502      0.1004
     23  N4        29.4470    9.7160   23.2110 N.1   502  13W502     -0.1908
@<TRIPOS>BOND
     1     1     6   ar
     2     1     2   ar
     3     6     5   ar
     4    11    10   ar
     5    11     7   ar
     6    10     9   ar
     7     2     3   ar
     8     5     7    1
     9     5     4   ar
    10     7     8   ar
    11     9     8   ar
    12     9    12    1
    13    19    12    1
    14     3     4   ar
    15     3    22    1
    16    12    13    1
    17    12    17    1
    18    22    23    3
    19    13    14    1
    20    17    16    2
    21    14    21    2
    22    14    15   am
    23    16    15    1
    24    16    18    1
    25    15    20    1
