@<TRIPOS>MOLECULE
4hai_I23_A_1.pdb
 28 30 0 0 0
SMALL
GASTEIGER

@<TRIPOS>ATOM
      1  O28       16.8890   10.7120   17.2100 O.2   603  I23603     -0.2734
      2  C9        16.1000   10.7500   16.2920 C.2   603  I23603      0.2409
      3  N8        14.8020   11.0980   16.4820 N.am  603  I23603     -0.2072
      4  C7        14.0860   11.3790   17.7560 C.3   603  I23603      0.0953
      5  C6        14.8690   12.0960   18.8600 C.3   603  I23603      0.0217
      6  C5        13.9400   12.9710   19.7110 C.3   603  I23603      0.0018
      7  C4        13.1740   12.2420   20.8210 C.3   603  I23603      0.0001
      8  C3        12.1990   11.2250   20.2580 C.3   603  I23603      0.0001
      9  C2        12.9780   10.0060   19.7660 C.3   603  I23603      0.0018
     10  C1        13.4830   10.0690   18.3050 C.3   603  I23603      0.0217
     11  C10       16.6490   10.3150   14.9270 C.3   603  I23603      0.0811
     12  C27       17.7060   11.2580   14.3650 C.3   603  I23603      0.0283
     13  C26       18.5310   10.5850   13.2630 C.3   603  I23603      0.0963
     14  N13       17.7130    9.6790   12.4400 N.3   603  I23603     -0.1555
     15  C12       16.2360    9.7630   12.4360 C.3   603  I23603      0.0963
     16  C11       15.6270   10.1590   13.7950 C.3   603  I23603      0.0283
     17  S14       18.4840    8.6530   11.5570 S.O2  603  I23603      0.0627
     18  O15       19.5060    9.3800   10.8510 O.2   603  I23603     -0.1528
     19  O25       19.1540    7.7190   12.4310 O.2   603  I23603     -0.1528
     20  C16       17.6280    7.8470   10.4300 C.ar  603  I23603      0.1142
     21  C23       17.4950    6.3430   10.4030 C.ar  603  I23603     -0.0039
     22  C24       18.1290    5.4350   11.4290 C.3   603  I23603      0.0324
     23  C22       16.7450    5.7330    9.3960 C.ar  603  I23603     -0.0072
     24  C20       16.1150    6.4730    8.3910 C.ar  603  I23603     -0.0224
     25  C21       15.3190    5.7600    7.3240 C.3   603  I23603      0.0310
     26  C19       16.2090    7.8660    8.3540 C.ar  603  I23603     -0.0072
     27  C17       16.9330    8.5770    9.3150 C.ar  603  I23603     -0.0039
     28  C18       16.9810   10.0800    9.1960 C.3   603  I23603      0.0324
@<TRIPOS>BOND
     1    25    24    1
     2    26    24   ar
     3    26    27   ar
     4    24    23   ar
     5    28    27    1
     6    27    20   ar
     7    23    21   ar
     8    21    20   ar
     9    21    22    1
    10    20    17    1
    11    18    17    2
    12    17    19    2
    13    17    14    1
    14    15    14    1
    15    15    16    1
    16    14    13    1
    17    13    12    1
    18    16    11    1
    19    12    11    1
    20    11     2    1
    21     2     3   am
    22     2     1    2
    23     3     4    1
    24     4    10    1
    25     4     5    1
    26    10     9    1
    27     5     6    1
    28     6     7    1
    29     9     8    1
    30     8     7    1
