@<TRIPOS>MOLECULE
4haj_DXC_A_1.pdb
 28 31 0 0 0
SMALL
GASTEIGER

@<TRIPOS>ATOM
      1  C1        26.0350   32.0700   22.3670 C.3    75  DXC75       0.1520
      2  C2        25.8640   31.5090   20.9430 C.3    75  DXC75       0.0329
      3  C3        27.1170   30.7090   20.5470 C.3    75  DXC75       0.0025
      4  C4        28.4150   31.5790   20.5770 C.3    75  DXC75       0.0002
      5  C5        28.5260   32.2430   21.9750 C.3    75  DXC75       0.0026
      6  C6        27.2490   33.0010   22.3360 C.3    75  DXC75       0.0329
      7  C7        26.8920   30.0370   19.1650 C.3    75  DXC75       0.0001
      8  C8        26.9090   31.0900   18.0220 C.3    75  DXC75       0.0000
      9  C9        28.1860   31.9850   18.0690 C.3    75  DXC75       0.0002
     10  C10       28.3880   32.6230   19.4620 C.3    75  DXC75       0.0025
     11  C11       28.1130   33.1350   17.0450 C.3    75  DXC75       0.0024
     12  C12       29.4080   33.9450   16.9520 C.3    75  DXC75       0.0282
     13  C13       29.6160   34.6200   18.3250 C.3    75  DXC75       0.1519
     14  C14       29.6510   33.5590   19.4540 C.3    75  DXC75       0.0329
     15  C15       27.8450   32.7120   15.5830 C.3    75  DXC75       0.0001
     16  C16       28.4990   33.8260   14.7420 C.3    75  DXC75       0.0001
     17  C17       29.0460   34.8580   15.7570 C.3    75  DXC75       0.0024
     18  C18       29.6300   30.6640   20.3870 C.3    75  DXC75       0.0000
     19  C19       30.2030   35.6540   15.0980 C.3    75  DXC75       0.0006
     20  O1        28.5570   35.5210   18.6190 O.3    75  DXC75      -0.2232
     21  O2        24.8720   32.8210   22.6830 O.3    75  DXC75      -0.2232
     22  C20       30.6070   33.0570   16.6130 C.3    75  DXC75       0.0025
     23  C21       29.7570   36.3370   13.7840 C.3    75  DXC75       0.0118
     24  C22       28.6250   37.3370   13.9860 C.3    75  DXC75       0.1141
     25  C23       29.1290   38.7550   14.2690 C.2    75  DXC75       0.3649
     26  O3        29.8150   39.3440   13.4270 O.co2  75  DXC75      -0.2457
     27  O4        28.8170   39.3200   15.3250 O.co2  75  DXC75      -0.2457
     28  C24       30.8560   36.6550   16.0750 C.3    75  DXC75       0.0000
@<TRIPOS>BOND
     1    26    25   ar
     2    23    24    1
     3    23    19    1
     4    24    25    1
     5    25    27   ar
     6    16    15    1
     7    16    17    1
     8    19    17    1
     9    19    28    1
    10    15    11    1
    11    17    12    1
    12    22    12    1
    13    12    11    1
    14    12    13    1
    15    11     9    1
    16     8     9    1
    17     8     7    1
    18     9    10    1
    19    13    20    1
    20    13    14    1
    21     7     3    1
    22    14    10    1
    23    10     4    1
    24    18     4    1
    25     3     4    1
    26     3     2    1
    27     4     5    1
    28     2     1    1
    29     5     6    1
    30     6     1    1
    31     1    21    1
