@<TRIPOS>MOLECULE
4haj_HEM_A_1.pdb
 43 50 0 0 0
SMALL
GASTEIGER

@<TRIPOS>ATOM
      1  CHA       35.0000   26.0860   16.7490 C.2    72  HEM72       0.0000
      2  CHB       38.5310   26.9980   13.5850 C.2    72  HEM72       0.0000
      3  CHC       35.2420   28.9620   10.6570 C.2    72  HEM72       0.0000
      4  CHD       32.3490   29.4650   14.5070 C.2    72  HEM72       0.0000
      5  C1A       36.1830   26.0570   16.0690 C.ar   72  HEM72       0.0000
      6  C2A       37.2810   25.1970   16.3930 C.ar   72  HEM72       0.0000
      7  C3A       38.2650   25.4400   15.5310 C.ar   72  HEM72       0.0000
      8  C4A       37.8100   26.4760   14.6340 C.ar   72  HEM72       0.0000
      9  CMA       39.6620   24.7450   15.4900 C.3    72  HEM72       0.0000
     10  CAA       37.2530   24.1150   17.4950 C.3    72  HEM72       0.0000
     11  CBA       36.7350   22.8940   16.7000 C.3    72  HEM72       0.0000
     12  CGA       36.9340   21.5240   17.3230 C.2    72  HEM72       0.0000
     13  O1A       37.8610   21.3350   18.1640 O.co2  72  HEM72       0.0000
     14  O2A       36.1440   20.5940   16.9460 O.co2  72  HEM72       0.0000
     15  C1B       37.9640   27.5510   12.4580 C.2    72  HEM72       0.0000
     16  C2B       38.6030   27.8590   11.1910 C.2    72  HEM72       0.0000
     17  C3B       37.6740   28.3910   10.3810 C.2    72  HEM72       0.0000
     18  C4B       36.4230   28.4420   11.1080 C.2    72  HEM72       0.0000
     19  CMB       40.0990   27.5680   10.8800 C.3    72  HEM72       0.0000
     20  CAB       37.7720   28.8850    8.9180 C.2    72  HEM72       0.0000
     21  CBB       38.1740   28.0220    7.9750 C.2    72  HEM72       0.0000
     22  C1C       34.1800   29.3550   11.4610 C.ar   72  HEM72       0.0000
     23  C2C       33.0550   30.1970   11.0840 C.ar   72  HEM72       0.0000
     24  C3C       32.2750   30.3320   12.1530 C.ar   72  HEM72       0.0000
     25  C4C       32.8640   29.5820   13.2380 C.ar   72  HEM72       0.0000
     26  CMC       32.8240   30.8740    9.7150 C.3    72  HEM72       0.0000
     27  CAC       30.9730   31.1420   12.2480 C.2    72  HEM72       0.0000
     28  CBC       30.0100   30.9740   11.3060 C.2    72  HEM72       0.0000
     29  C1D       32.7530   28.5400   15.4380 C.2    72  HEM72       0.0000
     30  C2D       31.9990   28.1460   16.5940 C.2    72  HEM72       0.0000
     31  C3D       32.8160   27.0930   17.3040 C.2    72  HEM72       0.0000
     32  C4D       33.9960   26.9670   16.4940 C.2    72  HEM72       0.0000
     33  CMD       30.6590   28.6810   17.0700 C.3    72  HEM72       0.0000
     34  CAD       32.4590   26.3360   18.6000 C.3    72  HEM72       0.0000
     35  CBD       31.2020   25.4690   18.4270 C.3    72  HEM72       0.0000
     36  CGD       31.4320   24.3140   17.4810 C.2    72  HEM72       0.0000
     37  O1D       32.5760   23.8160   17.4210 O.co2  72  HEM72       0.0000
     38  O2D       30.4340   23.9090   16.8270 O.co2  72  HEM72       0.0000
     39  NA        36.5130   26.8390   14.9870 N.ar   72  HEM72       0.0000
     40  NB        36.6330   27.9200   12.3650 N.2    72  HEM72       0.0000
     41  NC        34.0320   29.0060   12.7940 N.ar   72  HEM72       0.0000
     42  ND        33.9170   27.8090   15.4060 N.2    72  HEM72       0.0000
     43 FE         35.2150   27.8530   13.8670 Fe     72  HEM72       0.0000
@<TRIPOS>BOND
     1    21    20    2
     2    20    17    1
     3    26    23    1
     4    17    18    1
     5    17    16    2
     6     3    18    2
     7     3    22    1
     8    19    16    1
     9    23    22   ar
    10    23    24   ar
    11    18    40    1
    12    16    15    1
    13    28    27    2
    14    22    41   ar
    15    24    27    1
    16    24    25   ar
    17    40    15    2
    18    40    43    1
    19    15     2    1
    20    41    25   ar
    21    41    43    1
    22    25     4    1
    23     2     8    2
    24    43    39    1
    25    43    42    1
    26     4    29    2
    27     8    39   ar
    28     8     7   ar
    29    39     5   ar
    30    42    29    1
    31    42    32    2
    32    29    30    1
    33     9     7    1
    34     7     6   ar
    35     5     6   ar
    36     5     1    2
    37     6    10    1
    38    32     1    1
    39    32    31    1
    40    30    33    1
    41    30    31    2
    42    11    12    1
    43    11    10    1
    44    38    36   ar
    45    14    12   ar
    46    31    34    1
    47    12    13   ar
    48    37    36   ar
    49    36    35    1
    50    35    34    1
