@<TRIPOS>MOLECULE
4hat_LMB_C_1.pdb
 40 39 0 0 0
SMALL
GASTEIGER

@<TRIPOS>ATOM
      1  O6       -47.4390   67.4170   31.6100 O.co2 1101  LMB1101    -0.2406
      2  C24      -47.2920   68.0710   32.6620 C.2   1101  LMB1101     0.3873
      3  O5       -48.2020   68.1020   33.5120 O.co2 1101  LMB1101    -0.2406
      4  C23      -46.0400   68.8140   32.9370 C.2   1101  LMB1101     0.0777
      5  C22      -44.9530   68.7230   32.1460 C.2   1101  LMB1101    -0.0373
      6  C33      -44.9570   67.8910   30.8930 C.3   1101  LMB1101     0.0266
      7  C21      -43.7060   69.5040   32.5000 C.3   1101  LMB1101     0.0248
      8  C20      -43.3960   70.5500   31.4280 C.3   1101  LMB1101     0.0349
      9  C32      -42.1020   71.2760   31.7810 C.3   1101  LMB1101     0.0030
     10  C19      -44.5500   71.5420   31.2390 C.3   1101  LMB1101     0.1591
     11  O4       -44.6330   72.3460   32.4230 O.3   1101  LMB1101    -0.2227
     12  C18      -44.4150   72.4600   30.0160 C.3   1101  LMB1101     0.0883
     13  C31      -45.5710   73.4620   29.9540 C.3   1101  LMB1101     0.0104
     14  C17      -44.4160   71.6890   28.7250 C.2   1101  LMB1101     0.1563
     15  O3       -44.9960   70.6190   28.6190 O.2   1101  LMB1101    -0.2957
     16  C16      -43.7120   72.2560   27.5340 C.3   1101  LMB1101     0.0793
     17  C30      -44.5900   72.0680   26.3010 C.3   1101  LMB1101     0.0125
     18  C15      -42.4080   71.5400   27.2750 C.2   1101  LMB1101    -0.0234
     19  C14      -41.2040   72.0500   27.5930 C.2   1101  LMB1101    -0.0260
     20  C29      -41.0420   73.3920   28.2550 C.3   1101  LMB1101     0.0307
     21  C13      -40.0260   71.2380   27.2340 C.2   1101  LMB1101    -0.0091
     22  C12      -38.7800   71.6660   27.3930 C.2   1101  LMB1101    -0.0261
     23  C11      -37.6450   70.7620   26.9620 C.3   1101  LMB1101     0.0303
     24  C10      -36.5550   70.7490   28.0180 C.3   1101  LMB1101     0.0261
     25  C28      -37.0190   69.9860   29.2540 C.3   1101  LMB1101     0.0050
     26  C9       -35.3230   70.0510   27.4850 C.2   1101  LMB1101    -0.0304
     27  C8       -34.0780   70.5770   27.4500 C.2   1101  LMB1101    -0.0267
     28  C26      -32.9330   69.7470   26.8920 C.3   1101  LMB1101     0.0260
     29  C27      -33.3710   68.4030   26.3470 C.3   1101  LMB1101     0.0050
     30  C7       -33.7870   71.9610   27.9150 C.2   1101  LMB1101    -0.0067
     31  C6       -32.5470   72.4530   27.9530 C.2   1101  LMB1101     0.0058
     32  C5       -32.3250   73.8780   28.4000 C.3   1101  LMB1101     0.1739
     33  O2       -31.6850   74.5120   27.2810 O.3   1101  LMB1101    -0.2183
     34  C4       -31.4600   74.0910   29.6460 C.3   1101  LMB1101     0.0353
     35  C25      -30.1450   73.3350   29.5380 C.3   1101  LMB1101     0.0030
     36  C3       -31.1860   75.5860   29.8920 C.3   1101  LMB1101     0.0147
     37  C2       -32.4320   76.4360   29.6010 C.3   1101  LMB1101     0.1142
     38  C1       -32.2620   77.9020   29.9050 C.2   1101  LMB1101     0.3649
     39  O1'      -33.2460   78.4930   30.4000 O.co2 1101  LMB1101    -0.2457
     40  O1       -31.1760   78.4620   29.6300 O.co2 1101  LMB1101    -0.2457
@<TRIPOS>BOND
     1    17    16    1
     2    29    28    1
     3    28    27    1
     4    23    22    1
     5    23    24    1
     6    21    22    2
     7    21    19    1
     8    18    16    1
     9    18    19    2
    10    33    32    1
    11    27    26    2
    12    27    30    1
    13    26    24    1
    14    16    14    1
    15    19    20    1
    16    30    31    2
    17    31    32    1
    18    24    25    1
    19    32    34    1
    20    15    14    2
    21    14    12    1
    22    35    34    1
    23    37    36    1
    24    37    38    1
    25    40    38   ar
    26    34    36    1
    27    38    39   ar
    28    13    12    1
    29    12    10    1
    30     6     5    1
    31    10     8    1
    32    10    11    1
    33     8     9    1
    34     8     7    1
    35     1     2   ar
    36     5     7    1
    37     5     4    2
    38     2     4    1
    39     2     3   ar
