@<TRIPOS>MOLECULE
4hat_GNP_A_1.pdb
 32 34 0 0 0
SMALL
GASTEIGER

@<TRIPOS>ATOM
      1  PG         6.5780   38.0340   27.6790 P.3   301  GNP301      0.4884
      2  O1G        6.7350   36.7880   26.8710 O.2   301  GNP301     -0.2331
      3  O2G        7.8560   38.9760   27.6160 O.3   301  GNP301     -0.1240
      4  O3G        6.1580   37.7640   29.1890 O.3   301  GNP301     -0.1240
      5  N3B        5.2850   38.8990   26.9340 N.3   301  GNP301     -0.0163
      6  PB         4.7910   40.4580   27.4900 P.3   301  GNP301      0.4669
      7  O1B        5.9730   41.3260   27.7460 O.2   301  GNP301     -0.2351
      8  O2B        3.7880   40.3810   28.7160 O.3   301  GNP301     -0.1253
      9  O3A        3.9270   40.9510   26.2260 O.3   301  GNP301     -0.2360
     10  PA         4.4420   42.0550   25.1850 P.3   301  GNP301      0.2220
     11  O1A        5.5930   41.4880   24.4040 O.2   301  GNP301     -0.5170
     12  O2A        4.5880   43.3910   25.8540 O.3   301  GNP301     -0.4370
     13  O5'        3.1130   42.1830   24.2870 O.3   301  GNP301     -0.3111
     14  C5'        2.5260   41.0810   23.5980 C.3   301  GNP301      0.1813
     15  C4'        1.6400   41.5860   22.4600 C.3   301  GNP301      0.1799
     16  O4'        0.5180   42.2740   23.0140 O.3   301  GNP301     -0.3326
     17  C3'        2.3050   42.5850   21.5070 C.3   301  GNP301      0.2158
     18  O3'        1.9060   42.2470   20.1770 O.3   301  GNP301     -0.2175
     19  C2'        1.7480   43.9440   21.8850 C.3   301  GNP301      0.2310
     20  O2'        1.6420   44.8880   20.8040 O.3   301  GNP301     -0.2158
     21  C1'        0.3730   43.5510   22.3850 C.3   301  GNP301      0.2293
     22  N9        -0.1790   44.4970   23.3710 N.pl3 301  GNP301     -0.2354
     23  C8         0.4140   44.9090   24.5160 C.3   301  GNP301      0.2246
     24  N7        -0.3980   45.7480   25.1890 N.2   301  GNP301     -0.2322
     25  C5        -1.5340   45.8650   24.4580 C.2   301  GNP301      0.2182
     26  C6        -2.8080   46.5920   24.5830 C.1   301  GNP301      0.2372
     27  O6        -3.0160   47.3320   25.5660 O.2   301  GNP301     -0.2069
     28  N1        -3.7220   46.4310   23.6190 N.2   301  GNP301     -0.2485
     29  C2        -3.5150   45.6400   22.5400 C.1   301  GNP301      0.2531
     30  N2        -4.4700   45.5230   21.6080 N.pl3 301  GNP301     -0.0226
     31  N3        -2.3680   44.9470   22.3480 N.2   301  GNP301     -0.3074
     32  C4        -1.3800   45.0250   23.2730 C.2   301  GNP301      0.2300
@<TRIPOS>BOND
     1    18    17    1
     2    20    19    1
     3    17    19    1
     4    17    15    1
     5    30    29    1
     6    19    21    1
     7    31    29    2
     8    31    32    2
     9    21    16    1
    10    21    22    1
    11    15    16    1
    12    15    14    1
    13    29    28    2
    14    32    22    1
    15    32    25    1
    16    22    23    1
    17    14    13    1
    18    28    26    2
    19    13    10    1
    20    11    10    2
    21    25    26    1
    22    25    24    2
    23    23    24    1
    24    26    27    2
    25    10    12    1
    26    10     9    1
    27     9     6    1
    28     2     1    2
    29     5     6    1
    30     5     1    1
    31     6     7    2
    32     6     8    1
    33     3     1    1
    34     1     4    1
