@<TRIPOS>MOLECULE
4hau_RJA_C_1.pdb
 34 34 0 0 0
SMALL
GASTEIGER

@<TRIPOS>ATOM
      1  C1       -34.3400   76.0570   28.7380 C.2   1101  RJA1101     0.3649
      2  O1       -35.5590   76.0970   28.9980 O.co2 1101  RJA1101    -0.2457
      3  C2       -33.3300   76.1210   29.8700 C.3   1101  RJA1101     0.1142
      4  O2       -30.4300   72.8610   29.2970 O.3   1101  RJA1101    -0.2183
      5  C3       -32.1310   75.2040   29.6480 C.3   1101  RJA1101     0.0148
      6  O3       -43.6890   72.3670   28.5160 O.3   1101  RJA1101    -0.2157
      7  C4       -32.6400   73.8270   29.2190 C.3   1101  RJA1101     0.0381
      8  O4       -43.9770   72.5730   33.7280 O.3   1101  RJA1101    -0.2230
      9  C5       -31.5750   73.0440   28.4650 C.3   1101  RJA1101     0.1740
     10  O5       -43.9350   71.0200   30.5500 O.3   1101  RJA1101    -0.3512
     11  C6       -32.0540   71.6930   27.9830 C.2   1101  RJA1101     0.0058
     12  C7       -33.3270   71.3230   27.9330 C.2   1101  RJA1101    -0.0067
     13  C8       -33.6710   69.9790   27.4300 C.2   1101  RJA1101    -0.0264
     14  C9       -34.9300   69.5500   27.4380 C.2   1101  RJA1101    -0.0304
     15  O1'      -33.9310   75.9780   27.5670 O.co2 1101  RJA1101    -0.2457
     16  C10      -36.0420   70.4070   27.9680 C.3   1101  RJA1101     0.0257
     17  C11      -37.0360   70.7180   26.8590 C.3   1101  RJA1101     0.0263
     18  C12      -38.0280   71.7040   27.4090 C.2   1101  RJA1101    -0.0436
     19  C13      -39.2110   71.2640   27.8260 C.2   1101  RJA1101    -0.0087
     20  C14      -40.2050   72.1510   28.4040 C.2   1101  RJA1101    -0.0026
     21  C15      -41.3940   71.6360   28.6580 C.2   1101  RJA1101     0.0086
     22  C16      -42.4900   72.4430   29.2930 C.3   1101  RJA1101     0.2010
     23  C17      -42.7120   71.7230   30.6110 C.3   1101  RJA1101     0.1525
     24  C18      -42.6700   72.6860   31.7700 C.3   1101  RJA1101     0.0655
     25  C19      -42.8860   71.9450   33.0730 C.3   1101  RJA1101     0.1571
     26  C20      -43.2810   70.5030   32.8430 C.3   1101  RJA1101     0.0619
     27  C21      -44.3520   70.4200   31.7670 C.3   1101  RJA1101     0.1392
     28  C22      -44.7290   68.9850   31.5130 C.2   1101  RJA1101    -0.0017
     29  C23      -46.0060   68.6880   31.3680 C.2   1101  RJA1101    -0.0280
     30  C24      -46.4630   67.2780   31.1160 C.3   1101  RJA1101     0.0304
     31  C25      -32.6150   69.0690   26.8830 C.3   1101  RJA1101     0.0307
     32  C26      -36.7150   69.6710   29.1120 C.3   1101  RJA1101     0.0050
     33  C27      -37.6750   73.1530   27.4900 C.3   1101  RJA1101     0.0264
     34  C28      -42.0810   69.6270   32.5360 C.3   1101  RJA1101     0.0055
@<TRIPOS>BOND
     1    17    18    1
     2    17    16    1
     3    31    13    1
     4    18    33    1
     5    18    19    2
     6    13    14    2
     7    13    12    1
     8    14    16    1
     9    15     1   ar
    10    19    20    1
    11    12    11    2
    12    16    32    1
    13    11     9    1
    14    20    21    2
    15     9     7    1
    16     9     4    1
    17     6    22    1
    18    21    22    1
    19     1     2   ar
    20     1     3    1
    21     7     5    1
    22    22    23    1
    23     5     3    1
    24    10    23    1
    25    10    27    1
    26    23    24    1
    27    30    29    1
    28    29    28    2
    29    28    27    1
    30    27    26    1
    31    24    25    1
    32    34    26    1
    33    26    25    1
    34    25     8    1
