@<TRIPOS>MOLECULE
4hau_GNP_A_1.pdb
 32 34 0 0 0
SMALL
GASTEIGER

@<TRIPOS>ATOM
      1  PG         6.6670   38.0570   27.8210 P.3   301  GNP301      0.4884
      2  O1G        6.7970   36.8100   27.0320 O.2   301  GNP301     -0.2331
      3  O2G        7.9650   38.9660   27.7030 O.3   301  GNP301     -0.1240
      4  O3G        6.2510   37.8060   29.3400 O.3   301  GNP301     -0.1240
      5  N3B        5.3500   38.8760   27.0890 N.3   301  GNP301     -0.0163
      6  PB         4.8510   40.4490   27.6090 P.3   301  GNP301      0.4669
      7  O1B        6.0010   41.3090   27.8980 O.2   301  GNP301     -0.2351
      8  O2B        3.8190   40.3470   28.8330 O.3   301  GNP301     -0.1253
      9  O3A        4.0130   40.9720   26.3440 O.3   301  GNP301     -0.2360
     10  PA         4.5360   42.0640   25.2870 P.3   301  GNP301      0.2220
     11  O1A        5.6820   41.4470   24.5280 O.2   301  GNP301     -0.5170
     12  O2A        4.6630   43.4040   25.9640 O.3   301  GNP301     -0.4370
     13  O5'        3.2170   42.1890   24.3650 O.3   301  GNP301     -0.3111
     14  C5'        2.6330   41.0790   23.7020 C.3   301  GNP301      0.1813
     15  C4'        1.7240   41.5220   22.5550 C.3   301  GNP301      0.1799
     16  O4'        0.5750   42.1900   23.0890 O.3   301  GNP301     -0.3326
     17  C3'        2.3900   42.5070   21.5940 C.3   301  GNP301      0.2158
     18  O3'        2.0290   42.2000   20.2360 O.3   301  GNP301     -0.2175
     19  C2'        1.8290   43.8600   21.9890 C.3   301  GNP301      0.2310
     20  O2'        1.8220   44.8140   20.9190 O.3   301  GNP301     -0.2158
     21  C1'        0.4450   43.4650   22.4640 C.3   301  GNP301      0.2293
     22  N9        -0.1000   44.4210   23.4370 N.pl3 301  GNP301     -0.2354
     23  C8         0.5130   44.8940   24.5500 C.3   301  GNP301      0.2246
     24  N7        -0.2970   45.7540   25.2160 N.2   301  GNP301     -0.2322
     25  C5        -1.4450   45.8170   24.5080 C.2   301  GNP301      0.2182
     26  C6        -2.7300   46.5240   24.6210 C.1   301  GNP301      0.2372
     27  O6        -2.9390   47.2950   25.5680 O.2   301  GNP301     -0.2069
     28  N1        -3.6640   46.3170   23.6830 N.2   301  GNP301     -0.2485
     29  C2        -3.4680   45.4950   22.6380 C.1   301  GNP301      0.2531
     30  N2        -4.4570   45.3420   21.7400 N.pl3 301  GNP301     -0.0226
     31  N3        -2.3190   44.8080   22.4570 N.2   301  GNP301     -0.3074
     32  C4        -1.3070   44.9360   23.3410 C.2   301  GNP301      0.2300
@<TRIPOS>BOND
     1    18    17    1
     2    20    19    1
     3    17    19    1
     4    17    15    1
     5    30    29    1
     6    19    21    1
     7    31    29    2
     8    31    32    2
     9    21    16    1
    10    21    22    1
    11    15    16    1
    12    15    14    1
    13    29    28    2
    14    32    22    1
    15    32    25    1
    16    22    23    1
    17    28    26    2
    18    14    13    1
    19    13    10    1
    20    25    26    1
    21    25    24    2
    22    11    10    2
    23    23    24    1
    24    26    27    2
    25    10    12    1
    26    10     9    1
    27     9     6    1
    28     2     1    2
    29     5     6    1
    30     5     1    1
    31     6     7    2
    32     6     8    1
    33     3     1    1
    34     1     4    1
