@<TRIPOS>MOLECULE
4hav_GNP_A_1.pdb
 32 34 0 0 0
SMALL
GASTEIGER

@<TRIPOS>ATOM
      1  PG         7.0650   38.0540   28.0250 P.3   301  GNP301      0.4884
      2  O1G        7.1980   36.8000   27.2620 O.2   301  GNP301     -0.2331
      3  O2G        8.3030   39.0460   27.8670 O.3   301  GNP301     -0.1240
      4  O3G        6.7320   37.7500   29.5500 O.3   301  GNP301     -0.1240
      5  N3B        5.7350   38.8740   27.3340 N.3   301  GNP301     -0.0163
      6  PB         5.2920   40.4770   27.7870 P.3   301  GNP301      0.4669
      7  O1B        6.4590   41.3750   28.0310 O.2   301  GNP301     -0.2351
      8  O2B        4.2840   40.3520   29.0100 O.3   301  GNP301     -0.1253
      9  O3A        4.4340   40.9330   26.5120 O.3   301  GNP301     -0.2360
     10  PA         4.8830   42.0550   25.4600 P.3   301  GNP301      0.2220
     11  O1A        6.0120   41.5580   24.6130 O.2   301  GNP301     -0.5170
     12  O2A        5.0240   43.3830   26.1420 O.3   301  GNP301     -0.4370
     13  O5'        3.5430   42.2000   24.5690 O.3   301  GNP301     -0.3111
     14  C5'        2.9760   41.0870   23.8950 C.3   301  GNP301      0.1813
     15  C4'        2.0050   41.5520   22.8150 C.3   301  GNP301      0.1799
     16  O4'        0.9210   42.2660   23.4030 O.3   301  GNP301     -0.3326
     17  C3'        2.6470   42.5090   21.8200 C.3   301  GNP301      0.2158
     18  O3'        2.2710   42.1310   20.4940 O.3   301  GNP301     -0.2175
     19  C2'        2.1030   43.8760   22.1930 C.3   301  GNP301      0.2310
     20  O2'        2.0070   44.7850   21.0870 O.3   301  GNP301     -0.2158
     21  C1'        0.7420   43.5100   22.7400 C.3   301  GNP301      0.2293
     22  N9         0.2010   44.4650   23.7150 N.pl3 301  GNP301     -0.2354
     23  C8         0.7990   44.9050   24.8470 C.3   301  GNP301      0.2246
     24  N7        -0.0140   45.7670   25.5220 N.2   301  GNP301     -0.2322
     25  C5        -1.1470   45.8540   24.8080 C.2   301  GNP301      0.2182
     26  C6        -2.4090   46.5810   24.9380 C.1   301  GNP301      0.2372
     27  O6        -2.6080   47.3380   25.9150 O.2   301  GNP301     -0.2069
     28  N1        -3.3250   46.3780   23.9750 N.2   301  GNP301     -0.2485
     29  C2        -3.1200   45.5700   22.9190 C.1   301  GNP301      0.2531
     30  N2        -4.0950   45.4390   22.0100 N.pl3 301  GNP301     -0.0226
     31  N3        -1.9810   44.8740   22.7220 N.2   301  GNP301     -0.3074
     32  C4        -0.9980   44.9870   23.6280 C.2   301  GNP301      0.2300
@<TRIPOS>BOND
     1    18    17    1
     2    20    19    1
     3    17    19    1
     4    17    15    1
     5    30    29    1
     6    19    21    1
     7    31    29    2
     8    31    32    2
     9    21    16    1
    10    21    22    1
    11    15    16    1
    12    15    14    1
    13    29    28    2
    14    32    22    1
    15    32    25    1
    16    22    23    1
    17    14    13    1
    18    28    26    2
    19    13    10    1
    20    11    10    2
    21    25    26    1
    22    25    24    2
    23    23    24    1
    24    26    27    2
    25    10    12    1
    26    10     9    1
    27     9     6    1
    28     2     1    2
    29     5     6    1
    30     5     1    1
    31     6     7    2
    32     6     8    1
    33     3     1    1
    34     1     4    1
