@<TRIPOS>MOLECULE
4hav_AA8_C_1.pdb
 38 37 0 0 0
SMALL
GASTEIGER

@<TRIPOS>ATOM
      1  O6       -46.6990   67.9640   31.9360 O.co2 1101  AA81101    -0.2406
      2  C24      -46.6230   68.7240   32.9190 C.2   1101  AA81101     0.3873
      3  O5       -47.5890   68.8540   33.6890 O.co2 1101  AA81101    -0.2406
      4  C23      -45.3920   69.4830   33.2120 C.2   1101  AA81101     0.0777
      5  C22      -44.2550   69.3270   32.5040 C.2   1101  AA81101    -0.0373
      6  C31      -44.1760   68.3910   31.3340 C.3   1101  AA81101     0.0266
      7  C21      -43.0280   70.1290   32.8780 C.3   1101  AA81101     0.0248
      8  C20      -42.6440   71.0930   31.7560 C.3   1101  AA81101     0.0349
      9  C30      -41.3130   71.7620   32.0840 C.3   1101  AA81101     0.0030
     10  C19      -43.7550   72.1210   31.5040 C.3   1101  AA81101     0.1591
     11  O4       -43.8330   72.9870   32.6440 O.3   1101  AA81101    -0.2227
     12  C18      -43.5590   72.9680   30.2360 C.3   1101  AA81101     0.0883
     13  C29      -44.6450   74.0370   30.1050 C.3   1101  AA81101     0.0104
     14  C17      -43.5780   72.1450   28.9750 C.2   1101  AA81101     0.1563
     15  O3       -44.1360   71.0610   28.9230 O.2   1101  AA81101    -0.2957
     16  C16      -42.9050   72.6730   27.7470 C.3   1101  AA81101     0.0793
     17  C28      -43.8460   72.5630   26.5540 C.3   1101  AA81101     0.0125
     18  C15      -41.6590   71.8700   27.4630 C.2   1101  AA81101    -0.0234
     19  C14      -40.4160   72.3330   27.6890 C.2   1101  AA81101    -0.0260
     20  C27      -40.1780   73.7080   28.2530 C.3   1101  AA81101     0.0307
     21  C13      -39.2830   71.4410   27.3480 C.2   1101  AA81101    -0.0091
     22  C12      -38.0160   71.8310   27.4720 C.2   1101  AA81101    -0.0265
     23  C11      -36.8950   70.8890   27.1020 C.3   1101  AA81101     0.0263
     24  C10      -35.8270   70.8800   28.1850 C.3   1101  AA81101     0.0084
     25  C26      -36.3900   70.3120   29.4820 C.3   1101  AA81101     0.0007
     26  C9       -34.6400   70.0400   27.7520 C.3   1101  AA81101     0.0220
     27  C8       -33.3580   70.4710   27.7880 C.2   1101  AA81101    -0.0481
     28  C25      -32.2880   69.5150   27.3430 C.3   1101  AA81101     0.0260
     29  C7       -33.0200   71.8390   28.2750 C.2   1101  AA81101    -0.0320
     30  C6       -31.7880   72.3230   28.4500 C.3   1101  AA81101     0.0586
     31  C5       -31.7460   73.7450   28.9700 C.3   1101  AA81101     0.1606
     32  O2       -32.3930   74.5350   27.9640 O.3   1101  AA81101    -0.2224
     33  C4       -30.3650   74.3330   29.2350 C.3   1101  AA81101     0.0594
     34  C3       -30.4430   75.7280   29.8680 C.2   1101  AA81101    -0.0167
     35  C2       -31.7200   76.5170   29.5890 C.2   1101  AA81101     0.0816
     36  C1       -31.7810   77.8940   30.2220 C.2   1101  AA81101     0.3876
     37  O1       -32.8430   78.5360   30.0850 O.co2 1101  AA81101    -0.2406
     38  O1'      -30.8080   78.3660   30.8490 O.co2 1101  AA81101    -0.2406
@<TRIPOS>BOND
     1    17    16    1
     2    23    22    1
     3    23    24    1
     4    28    27    1
     5    21    22    2
     6    21    19    1
     7    18    19    2
     8    18    16    1
     9    19    20    1
    10    16    14    1
    11    26    27    1
    12    26    24    1
    13    27    29    2
    14    32    31    1
    15    24    25    1
    16    29    30    1
    17    30    31    1
    18    15    14    2
    19    31    33    1
    20    14    12    1
    21    33    34    1
    22    35    34    2
    23    35    36    1
    24    37    36   ar
    25    13    12    1
    26    36    38   ar
    27    12    10    1
    28     6     5    1
    29    10     8    1
    30    10    11    1
    31     8     9    1
    32     8     7    1
    33     1     2   ar
    34     5     7    1
    35     5     4    2
    36     2     4    1
    37     2     3   ar
