@<TRIPOS>MOLECULE
4haw_LMB_C_1.pdb
 40 39 0 0 0
SMALL
GASTEIGER

@<TRIPOS>ATOM
      1  O6       -46.8380   68.1700   32.1000 O.co2 1101  LMB1101    -0.2406
      2  C24      -46.7650   68.9910   33.0320 C.2   1101  LMB1101     0.3873
      3  O5       -47.7330   69.1710   33.7910 O.co2 1101  LMB1101    -0.2406
      4  C23      -45.5190   69.7360   33.2820 C.2   1101  LMB1101     0.0777
      5  C22      -44.3770   69.4850   32.6080 C.2   1101  LMB1101    -0.0373
      6  C33      -44.2830   68.4680   31.5050 C.3   1101  LMB1101     0.0266
      7  C21      -43.1420   70.2750   32.9520 C.3   1101  LMB1101     0.0248
      8  C20      -42.7710   71.2250   31.8240 C.3   1101  LMB1101     0.0349
      9  C32      -41.4550   71.9050   32.1760 C.3   1101  LMB1101     0.0030
     10  C19      -43.9050   72.2190   31.5400 C.3   1101  LMB1101     0.1591
     11  O4       -44.1710   72.9950   32.7200 O.3   1101  LMB1101    -0.2227
     12  C18      -43.6010   73.1400   30.3510 C.3   1101  LMB1101     0.0883
     13  C31      -44.5820   74.3140   30.2990 C.3   1101  LMB1101     0.0104
     14  C17      -43.6840   72.4040   29.0440 C.2   1101  LMB1101     0.1563
     15  O3       -44.3120   71.3610   28.9350 O.2   1101  LMB1101    -0.2957
     16  C16      -43.0030   72.9740   27.8390 C.3   1101  LMB1101     0.0793
     17  C30      -43.9400   72.8820   26.6380 C.3   1101  LMB1101     0.0125
     18  C15      -41.7300   72.2060   27.5570 C.2   1101  LMB1101    -0.0234
     19  C14      -40.5060   72.6900   27.8390 C.2   1101  LMB1101    -0.0260
     20  C29      -40.3040   74.0500   28.4500 C.3   1101  LMB1101     0.0307
     21  C13      -39.3480   71.8370   27.4990 C.2   1101  LMB1101    -0.0091
     22  C12      -38.1000   72.2680   27.6530 C.2   1101  LMB1101    -0.0261
     23  C11      -36.9480   71.3700   27.2730 C.3   1101  LMB1101     0.0303
     24  C10      -35.9610   71.2520   28.4220 C.3   1101  LMB1101     0.0261
     25  C28      -36.5630   70.4690   29.5900 C.3   1101  LMB1101     0.0050
     26  C9       -34.7290   70.5320   27.9330 C.2   1101  LMB1101    -0.0304
     27  C8       -33.4940   71.0780   27.8310 C.2   1101  LMB1101    -0.0267
     28  C26      -32.3790   70.1710   27.3230 C.3   1101  LMB1101     0.0260
     29  C27      -32.8700   68.8760   26.6950 C.3   1101  LMB1101     0.0050
     30  C7       -33.2110   72.5090   28.1840 C.2   1101  LMB1101    -0.0067
     31  C6       -31.9790   73.0390   28.1530 C.2   1101  LMB1101     0.0058
     32  C5       -31.7440   74.5010   28.4950 C.3   1101  LMB1101     0.1739
     33  O2       -30.9830   75.1050   27.4350 O.3   1101  LMB1101    -0.2183
     34  C4       -30.9840   74.7220   29.8010 C.3   1101  LMB1101     0.0353
     35  C25      -29.6190   74.0490   29.7410 C.3   1101  LMB1101     0.0030
     36  C3       -30.8510   76.2220   30.1400 C.3   1101  LMB1101     0.0147
     37  C2       -32.2050   76.8560   30.4930 C.3   1101  LMB1101     0.1142
     38  C1       -32.3360   78.3120   30.0920 C.2   1101  LMB1101     0.3649
     39  O1'      -31.3210   79.0220   29.9000 O.co2 1101  LMB1101    -0.2457
     40  O1       -33.5010   78.7550   29.9790 O.co2 1101  LMB1101    -0.2457
@<TRIPOS>BOND
     1    17    16    1
     2    29    28    1
     3    23    22    1
     4    23    24    1
     5    28    27    1
     6    33    32    1
     7    21    22    2
     8    21    19    1
     9    18    19    2
    10    18    16    1
    11    27    26    2
    12    27    30    1
    13    19    20    1
    14    16    14    1
    15    26    24    1
    16    31    30    2
    17    31    32    1
    18    24    25    1
    19    32    34    1
    20    15    14    2
    21    14    12    1
    22    35    34    1
    23    34    36    1
    24    39    38   ar
    25    40    38   ar
    26    38    37    1
    27    36    37    1
    28    13    12    1
    29    12    10    1
    30     6     5    1
    31    10     8    1
    32    10    11    1
    33     8     9    1
    34     8     7    1
    35     1     2   ar
    36     5     7    1
    37     5     4    2
    38     2     4    1
    39     2     3   ar
