@<TRIPOS>MOLECULE
4haw_GNP_A_1.pdb
 32 34 0 0 0
SMALL
GASTEIGER

@<TRIPOS>ATOM
      1  PG         7.0130   38.1990   28.1510 P.3   301  GNP301      0.4884
      2  O1G        7.1730   36.9570   27.3490 O.2   301  GNP301     -0.2331
      3  O2G        8.3360   39.0710   28.0640 O.3   301  GNP301     -0.1240
      4  O3G        6.5660   37.9330   29.6700 O.3   301  GNP301     -0.1240
      5  N3B        5.7190   39.0540   27.4010 N.3   301  GNP301     -0.0163
      6  PB         5.2250   40.6210   27.9360 P.3   301  GNP301      0.4669
      7  O1B        6.4200   41.4580   28.1750 O.2   301  GNP301     -0.2351
      8  O2B        4.2590   40.5370   29.1960 O.3   301  GNP301     -0.1253
      9  O3A        4.3440   41.1800   26.7140 O.3   301  GNP301     -0.2360
     10  PA         4.8760   42.2530   25.6470 P.3   301  GNP301      0.2220
     11  O1A        6.0320   41.6500   24.8930 O.2   301  GNP301     -0.5170
     12  O2A        5.0110   43.5940   26.3300 O.3   301  GNP301     -0.4370
     13  O5'        3.5930   42.3930   24.6820 O.3   301  GNP301     -0.3111
     14  C5'        3.0390   41.2580   24.0380 C.3   301  GNP301      0.1813
     15  C4'        2.1070   41.6960   22.9100 C.3   301  GNP301      0.1799
     16  O4'        0.9700   42.3710   23.4350 O.3   301  GNP301     -0.3326
     17  C3'        2.7530   42.6800   21.9550 C.3   301  GNP301      0.2158
     18  O3'        2.4020   42.3290   20.6220 O.3   301  GNP301     -0.2175
     19  C2'        2.1720   44.0370   22.3250 C.3   301  GNP301      0.2310
     20  O2'        2.1560   44.9760   21.2440 O.3   301  GNP301     -0.2158
     21  C1'        0.7930   43.6480   22.8090 C.3   301  GNP301      0.2293
     22  N9         0.2310   44.5960   23.7950 N.pl3 301  GNP301     -0.2354
     23  C8         0.8260   45.0220   24.9470 C.3   301  GNP301      0.2246
     24  N7         0.0070   45.8720   25.6200 N.2   301  GNP301     -0.2322
     25  C5        -1.1270   45.9890   24.9100 C.2   301  GNP301      0.2182
     26  C6        -2.3980   46.7280   25.0420 C.1   301  GNP301      0.2372
     27  O6        -2.6390   47.4810   26.0210 O.2   301  GNP301     -0.2069
     28  N1        -3.3070   46.5630   24.0700 N.2   301  GNP301     -0.2485
     29  C2        -3.1140   45.7690   23.0030 C.1   301  GNP301      0.2531
     30  N2        -4.1030   45.6770   22.0910 N.pl3 301  GNP301     -0.0226
     31  N3        -1.9810   45.0720   22.8070 N.2   301  GNP301     -0.3074
     32  C4        -0.9760   45.1420   23.7100 C.2   301  GNP301      0.2300
@<TRIPOS>BOND
     1    18    17    1
     2    20    19    1
     3    17    19    1
     4    17    15    1
     5    30    29    1
     6    19    21    1
     7    31    29    2
     8    31    32    2
     9    21    16    1
    10    21    22    1
    11    15    16    1
    12    15    14    1
    13    29    28    2
    14    32    22    1
    15    32    25    1
    16    22    23    1
    17    14    13    1
    18    28    26    2
    19    13    10    1
    20    11    10    2
    21    25    26    1
    22    25    24    2
    23    23    24    1
    24    26    27    2
    25    10    12    1
    26    10     9    1
    27     9     6    1
    28     2     1    2
    29     5     6    1
    30     5     1    1
    31     6     7    2
    32     6     8    1
    33     3     1    1
    34     1     4    1
