@<TRIPOS>MOLECULE
4hax_RJA_C_1.pdb
 34 34 0 0 0
SMALL
GASTEIGER

@<TRIPOS>ATOM
      1  C1       -32.1280   77.7540   29.3390 C.2   1101  RJA1101     0.3649
      2  O1       -32.7630   78.3240   30.2530 O.co2 1101  RJA1101    -0.2457
      3  C2       -32.2580   76.2530   29.2200 C.3   1101  RJA1101     0.1142
      4  O2       -30.8980   74.2450   26.6670 O.3   1101  RJA1101    -0.2183
      5  C3       -30.9070   75.5270   29.1820 C.3   1101  RJA1101     0.0148
      6  O3       -43.4570   72.4070   28.3820 O.3   1101  RJA1101    -0.2157
      7  C4       -31.1230   74.0150   28.9990 C.3   1101  RJA1101     0.0381
      8  O4       -43.6700   73.0390   33.5670 O.3   1101  RJA1101    -0.2230
      9  C5       -31.7830   73.7470   27.6650 C.3   1101  RJA1101     0.1740
     10  O5       -43.7320   71.3460   30.5360 O.3   1101  RJA1101    -0.3512
     11  C6       -31.9930   72.2690   27.4610 C.2   1101  RJA1101     0.0058
     12  C7       -33.2190   71.7580   27.4520 C.2   1101  RJA1101    -0.0067
     13  C8       -33.4180   70.3150   27.2390 C.2   1101  RJA1101    -0.0264
     14  C9       -34.6100   69.7620   27.4540 C.2   1101  RJA1101    -0.0304
     15  O1'      -31.4110   78.3700   28.5190 O.co2 1101  RJA1101    -0.2457
     16  C10      -35.7550   70.6060   27.9400 C.3   1101  RJA1101     0.0257
     17  C11      -36.7190   70.9480   26.8150 C.3   1101  RJA1101     0.0263
     18  C12      -37.7340   71.8980   27.3920 C.2   1101  RJA1101    -0.0436
     19  C13      -38.9540   71.4550   27.6830 C.2   1101  RJA1101    -0.0087
     20  C14      -39.9550   72.3300   28.2700 C.2   1101  RJA1101    -0.0026
     21  C15      -41.1470   71.8030   28.5070 C.2   1101  RJA1101     0.0086
     22  C16      -42.2600   72.5950   29.1380 C.3   1101  RJA1101     0.2010
     23  C17      -42.4550   71.9590   30.5040 C.3   1101  RJA1101     0.1525
     24  C18      -42.3110   72.9890   31.6070 C.3   1101  RJA1101     0.0655
     25  C19      -42.5770   72.3560   32.9580 C.3   1101  RJA1101     0.1571
     26  C20      -42.9600   70.8990   32.8000 C.3   1101  RJA1101     0.0619
     27  C21      -44.0680   70.7390   31.7750 C.3   1101  RJA1101     0.1392
     28  C22      -44.3400   69.2780   31.5540 C.2   1101  RJA1101    -0.0017
     29  C23      -45.5960   68.8640   31.5670 C.2   1101  RJA1101    -0.0280
     30  C24      -45.9360   67.4160   31.3510 C.3   1101  RJA1101     0.0304
     31  C25      -32.2880   69.4660   26.7600 C.3   1101  RJA1101     0.0307
     32  C26      -36.4730   69.8620   29.0530 C.3   1101  RJA1101     0.0050
     33  C27      -37.3680   73.3230   27.6480 C.3   1101  RJA1101     0.0264
     34  C28      -41.7580   70.0480   32.4450 C.3   1101  RJA1101     0.0055
@<TRIPOS>BOND
     1     4     9    1
     2    31    13    1
     3    17    18    1
     4    17    16    1
     5    13    12    1
     6    13    14    2
     7    18    33    1
     8    18    19    2
     9    12    11    2
    10    14    16    1
    11    11     9    1
    12     9     7    1
    13    19    20    1
    14    16    32    1
    15    20    21    2
    16     6    22    1
    17    21    22    1
    18    15     1   ar
    19     7     5    1
    20    22    23    1
    21     5     3    1
    22     3     1    1
    23     1     2   ar
    24    23    10    1
    25    23    24    1
    26    10    27    1
    27    30    29    1
    28    28    29    2
    29    28    27    1
    30    24    25    1
    31    27    26    1
    32    34    26    1
    33    26    25    1
    34    25     8    1
