@<TRIPOS>MOLECULE
4hax_GNP_A_1.pdb
 32 34 0 0 0
SMALL
GASTEIGER

@<TRIPOS>ATOM
      1  PG         6.8890   37.8480   28.0180 P.3   301  GNP301      0.4884
      2  O1G        7.0840   36.5700   27.2840 O.2   301  GNP301     -0.2331
      3  O2G        8.2400   38.7120   27.9580 O.3   301  GNP301     -0.1240
      4  O3G        6.4370   37.5600   29.5190 O.3   301  GNP301     -0.1240
      5  N3B        5.6460   38.7220   27.2000 N.3   301  GNP301     -0.0163
      6  PB         5.1340   40.2580   27.7800 P.3   301  GNP301      0.4669
      7  O1B        6.2940   41.1000   28.1140 O.2   301  GNP301     -0.2351
      8  O2B        4.1410   40.0460   29.0300 O.3   301  GNP301     -0.1253
      9  O3A        4.2330   40.9000   26.6060 O.3   301  GNP301     -0.2360
     10  PA         4.7680   41.9130   25.4890 P.3   301  GNP301      0.2220
     11  O1A        5.8530   41.2660   24.6840 O.2   301  GNP301     -0.5170
     12  O2A        4.9810   43.2620   26.1270 O.3   301  GNP301     -0.4370
     13  O5'        3.4580   42.0790   24.5680 O.3   301  GNP301     -0.3111
     14  C5'        2.8880   40.9590   23.8990 C.3   301  GNP301      0.1813
     15  C4'        1.9680   41.4170   22.7680 C.3   301  GNP301      0.1799
     16  O4'        0.8220   42.0660   23.3080 O.3   301  GNP301     -0.3326
     17  C3'        2.6050   42.4130   21.7960 C.3   301  GNP301      0.2158
     18  O3'        2.1970   42.1000   20.4630 O.3   301  GNP301     -0.2175
     19  C2'        2.0380   43.7550   22.2120 C.3   301  GNP301      0.2310
     20  O2'        1.9520   44.7110   21.1500 O.3   301  GNP301     -0.2158
     21  C1'        0.6650   43.3440   22.6970 C.3   301  GNP301      0.2293
     22  N9         0.1180   44.3020   23.6720 N.pl3 301  GNP301     -0.2354
     23  C8         0.7210   44.7430   24.8040 C.3   301  GNP301      0.2246
     24  N7        -0.0850   45.6080   25.4590 N.2   301  GNP301     -0.2322
     25  C5        -1.2200   45.7160   24.7460 C.2   301  GNP301      0.2182
     26  C6        -2.4810   46.4640   24.8670 C.1   301  GNP301      0.2372
     27  O6        -2.6710   47.2200   25.8390 O.2   301  GNP301     -0.2069
     28  N1        -3.4130   46.3060   23.9100 N.2   301  GNP301     -0.2485
     29  C2        -3.2220   45.4960   22.8470 C.1   301  GNP301      0.2531
     30  N2        -4.2060   45.3910   21.9300 N.pl3 301  GNP301     -0.0226
     31  N3        -2.0890   44.7690   22.6590 N.2   301  GNP301     -0.3074
     32  C4        -1.0820   44.8510   23.5640 C.2   301  GNP301      0.2300
@<TRIPOS>BOND
     1    18    17    1
     2    20    19    1
     3    17    19    1
     4    17    15    1
     5    30    29    1
     6    19    21    1
     7    31    29    2
     8    31    32    2
     9    21    16    1
    10    21    22    1
    11    15    16    1
    12    15    14    1
    13    29    28    2
    14    32    22    1
    15    32    25    1
    16    22    23    1
    17    14    13    1
    18    28    26    2
    19    13    10    1
    20    11    10    2
    21    25    26    1
    22    25    24    2
    23    23    24    1
    24    26    27    2
    25    10    12    1
    26    10     9    1
    27     9     6    1
    28     5     6    1
    29     5     1    1
    30     2     1    2
    31     6     7    2
    32     6     8    1
    33     3     1    1
    34     1     4    1
