@<TRIPOS>MOLECULE
4hay_LMB_C_1.pdb
 40 39 0 0 0
SMALL
GASTEIGER

@<TRIPOS>ATOM
      1  O6       -47.1340   67.6200   31.3150 O.co2 1101  LMB1101    -0.2406
      2  C24      -47.3060   68.0580   32.4740 C.2   1101  LMB1101     0.3873
      3  O5       -48.2250   67.6030   33.2040 O.co2 1101  LMB1101    -0.2406
      4  C23      -46.3590   69.0900   32.9720 C.2   1101  LMB1101     0.0777
      5  C22      -45.1190   69.1870   32.4100 C.2   1101  LMB1101    -0.0373
      6  C33      -44.7800   68.3500   31.2160 C.3   1101  LMB1101     0.0266
      7  C21      -44.0560   70.1870   32.8630 C.3   1101  LMB1101     0.0248
      8  C20      -43.6300   71.0530   31.6610 C.3   1101  LMB1101     0.0349
      9  C32      -42.1560   71.4220   31.6880 C.3   1101  LMB1101     0.0030
     10  C19      -44.4670   72.3230   31.4630 C.3   1101  LMB1101     0.1591
     11  O4       -44.1840   73.3430   32.4490 O.3   1101  LMB1101    -0.2227
     12  C18      -44.1840   72.9160   30.0840 C.3   1101  LMB1101     0.0883
     13  C31      -45.0980   74.1040   29.8260 C.3   1101  LMB1101     0.0104
     14  C17      -44.3680   71.9850   28.9190 C.2   1101  LMB1101     0.1563
     15  O3       -45.0990   71.0010   28.9610 O.2   1101  LMB1101    -0.2957
     16  C16      -43.6580   72.3770   27.6580 C.3   1101  LMB1101     0.0790
     17  C30      -44.5240   71.9610   26.5060 C.3   1101  LMB1101     0.0125
     18  C15      -42.3680   71.6480   27.5670 C.2   1101  LMB1101    -0.0276
     19  C14      -41.1960   72.2230   27.8200 C.2   1101  LMB1101    -0.0478
     20  C29      -41.1570   73.6930   28.1390 C.3   1101  LMB1101     0.0260
     21  C13      -40.0180   71.3480   27.6280 C.3   1101  LMB1101     0.0217
     22  C12      -38.8070   71.7630   27.2790 C.3   1101  LMB1101     0.0047
     23  C11      -37.8010   70.6600   27.0420 C.3   1101  LMB1101     0.0047
     24  C10      -36.6620   70.7400   28.0130 C.3   1101  LMB1101     0.0217
     25  C28      -37.1260   70.0520   29.3000 C.3   1101  LMB1101     0.0047
     26  C9       -35.4070   70.0190   27.5880 C.2   1101  LMB1101    -0.0307
     27  C8       -34.1970   70.5600   27.4300 C.2   1101  LMB1101    -0.0267
     28  C26      -33.0490   69.6390   27.0430 C.3   1101  LMB1101     0.0260
     29  C27      -33.4690   68.2770   26.5330 C.3   1101  LMB1101     0.0050
     30  C7       -33.9310   71.9980   27.6050 C.2   1101  LMB1101    -0.0067
     31  C6       -32.7120   72.4680   27.9650 C.2   1101  LMB1101     0.0058
     32  C5       -32.4560   73.9520   28.1530 C.3   1101  LMB1101     0.1739
     33  O2       -31.8300   74.4560   26.9410 O.3   1101  LMB1101    -0.2183
     34  C4       -31.5880   74.2510   29.3640 C.3   1101  LMB1101     0.0353
     35  C25      -30.1620   73.8230   29.0830 C.3   1101  LMB1101     0.0030
     36  C3       -31.6600   75.7270   29.8010 C.3   1101  LMB1101     0.0147
     37  C2       -33.0090   76.2920   29.4230 C.3   1101  LMB1101     0.1142
     38  C1       -33.2540   77.7620   29.6960 C.2   1101  LMB1101     0.3649
     39  O1'      -34.4430   78.0420   29.9280 O.co2 1101  LMB1101    -0.2457
     40  O1       -32.3840   78.6670   29.6380 O.co2 1101  LMB1101    -0.2457
@<TRIPOS>BOND
     1    17    16    1
     2    29    28    1
     3    33    32    1
     4    23    22    1
     5    23    24    1
     6    28    27    1
     7    22    21    1
     8    27    26    2
     9    27    30    1
    10    18    16    1
    11    18    19    2
    12    26    24    1
    13    30    31    2
    14    21    19    1
    15    16    14    1
    16    19    20    1
    17    31    32    1
    18    24    25    1
    19    32    34    1
    20    14    15    2
    21    14    12    1
    22    35    34    1
    23    34    36    1
    24    37    38    1
    25    37    36    1
    26    40    38   ar
    27    38    39   ar
    28    13    12    1
    29    12    10    1
    30     6     5    1
    31     1     2   ar
    32    10     8    1
    33    10    11    1
    34     8     9    1
    35     8     7    1
    36     5     7    1
    37     5     4    2
    38     2     4    1
    39     2     3   ar
