@<TRIPOS>MOLECULE
4hay_GNP_A_1.pdb
 32 34 0 0 0
SMALL
GASTEIGER

@<TRIPOS>ATOM
      1  PG         6.6560   38.1190   27.7770 P.3   301  GNP301      0.4884
      2  O1G        6.9170   36.8950   27.0000 O.2   301  GNP301     -0.2331
      3  O2G        8.0120   38.9990   27.7570 O.3   301  GNP301     -0.1240
      4  O3G        6.2420   37.8300   29.2690 O.3   301  GNP301     -0.1240
      5  N3B        5.3760   38.9670   27.0190 N.3   301  GNP301     -0.0163
      6  PB         4.9420   40.5100   27.6050 P.3   301  GNP301      0.4669
      7  O1B        6.1600   41.3080   27.8600 O.2   301  GNP301     -0.2351
      8  O2B        4.0850   40.2840   28.9310 O.3   301  GNP301     -0.1253
      9  O3A        3.9720   41.1810   26.5070 O.3   301  GNP301     -0.2360
     10  PA         4.5470   42.1090   25.3220 P.3   301  GNP301      0.2220
     11  O1A        5.5990   41.2860   24.6320 O.2   301  GNP301     -0.5170
     12  O2A        4.8930   43.4530   25.9170 O.3   301  GNP301     -0.4370
     13  O5'        3.2850   42.3370   24.3620 O.3   301  GNP301     -0.3111
     14  C5'        2.6820   41.2110   23.7150 C.3   301  GNP301      0.1813
     15  C4'        1.7390   41.6270   22.5860 C.3   301  GNP301      0.1799
     16  O4'        0.6430   42.3320   23.1610 O.3   301  GNP301     -0.3326
     17  C3'        2.3760   42.5820   21.5880 C.3   301  GNP301      0.2158
     18  O3'        1.9480   42.2860   20.2670 O.3   301  GNP301     -0.2175
     19  C2'        1.8830   43.9620   21.9990 C.3   301  GNP301      0.2310
     20  O2'        1.8670   44.8780   20.9000 O.3   301  GNP301     -0.2158
     21  C1'        0.5210   43.6130   22.5470 C.3   301  GNP301      0.2293
     22  N9         0.0240   44.5490   23.5460 N.pl3 301  GNP301     -0.2354
     23  C8         0.6500   44.9670   24.6720 C.3   301  GNP301      0.2246
     24  N7        -0.1620   45.8180   25.3570 N.2   301  GNP301     -0.2322
     25  C5        -1.3060   45.9500   24.6550 C.2   301  GNP301      0.2182
     26  C6        -2.5700   46.6870   24.7690 C.1   301  GNP301      0.2372
     27  O6        -2.7820   47.4310   25.7590 O.2   301  GNP301     -0.2069
     28  N1        -3.4910   46.5080   23.7980 N.2   301  GNP301     -0.2485
     29  C2        -3.2740   45.7210   22.7490 C.1   301  GNP301      0.2531
     30  N2        -4.2210   45.5930   21.8000 N.pl3 301  GNP301     -0.0226
     31  N3        -2.1430   45.0320   22.5700 N.2   301  GNP301     -0.3074
     32  C4        -1.1660   45.0950   23.4640 C.2   301  GNP301      0.2300
@<TRIPOS>BOND
     1    18    17    1
     2    20    19    1
     3    17    19    1
     4    17    15    1
     5    30    29    1
     6    19    21    1
     7    21    16    1
     8    21    22    1
     9    31    29    2
    10    31    32    2
    11    15    16    1
    12    15    14    1
    13    29    28    2
    14    32    22    1
    15    32    25    1
    16    22    23    1
    17    14    13    1
    18    28    26    2
    19    13    10    1
    20    11    10    2
    21    25    26    1
    22    25    24    2
    23    23    24    1
    24    26    27    2
    25    10    12    1
    26    10     9    1
    27     9     6    1
    28     2     1    2
    29     5     6    1
    30     5     1    1
    31     6     7    2
    32     6     8    1
    33     3     1    1
    34     1     4    1
