@<TRIPOS>MOLECULE
4haz_GNP_A_1.pdb
 32 34 0 0 0
SMALL
GASTEIGER

@<TRIPOS>ATOM
      1  PG         6.5730   38.0090   27.7500 P.3   301  GNP301      0.4884
      2  O1G        6.6950   36.7700   26.9470 O.2   301  GNP301     -0.2331
      3  O2G        7.9310   38.8560   27.7080 O.3   301  GNP301     -0.1240
      4  O3G        6.1710   37.6740   29.2620 O.3   301  GNP301     -0.1240
      5  N3B        5.2660   38.8720   27.0140 N.3   301  GNP301     -0.0163
      6  PB         4.7830   40.4420   27.5500 P.3   301  GNP301      0.4669
      7  O1B        5.9670   41.2750   27.8290 O.2   301  GNP301     -0.2351
      8  O2B        3.8070   40.3090   28.8140 O.3   301  GNP301     -0.1253
      9  O3A        3.8830   41.0190   26.3420 O.3   301  GNP301     -0.2360
     10  PA         4.4190   42.0610   25.2440 P.3   301  GNP301      0.2220
     11  O1A        5.5380   41.4230   24.4700 O.2   301  GNP301     -0.5170
     12  O2A        4.6080   43.4010   25.9000 O.3   301  GNP301     -0.4370
     13  O5'        3.1100   42.2160   24.3270 O.3   301  GNP301     -0.3111
     14  C5'        2.4740   41.0820   23.7550 C.3   301  GNP301      0.1813
     15  C4'        1.6120   41.5110   22.5730 C.3   301  GNP301      0.1799
     16  O4'        0.4330   42.1680   23.0510 O.3   301  GNP301     -0.3326
     17  C3'        2.3160   42.5050   21.6570 C.3   301  GNP301      0.2158
     18  O3'        2.0100   42.2140   20.2960 O.3   301  GNP301     -0.2175
     19  C2'        1.7420   43.8560   22.0100 C.3   301  GNP301      0.2310
     20  O2'        1.7010   44.7440   20.8870 O.3   301  GNP301     -0.2158
     21  C1'        0.3520   43.4810   22.4900 C.3   301  GNP301      0.2293
     22  N9        -0.1670   44.4260   23.4990 N.pl3 301  GNP301     -0.2354
     23  C8         0.4260   44.8350   24.6390 C.3   301  GNP301      0.2246
     24  N7        -0.3680   45.7000   25.3120 N.2   301  GNP301     -0.2322
     25  C5        -1.5000   45.8390   24.5850 C.2   301  GNP301      0.2182
     26  C6        -2.7670   46.5900   24.6870 C.1   301  GNP301      0.2372
     27  O6        -2.9880   47.3320   25.6500 O.2   301  GNP301     -0.2069
     28  N1        -3.6810   46.4430   23.7170 N.2   301  GNP301     -0.2485
     29  C2        -3.4760   45.6490   22.6520 C.1   301  GNP301      0.2531
     30  N2        -4.4330   45.5500   21.7090 N.pl3 301  GNP301     -0.0226
     31  N3        -2.3480   44.9360   22.4870 N.2   301  GNP301     -0.3074
     32  C4        -1.3560   44.9940   23.4010 C.2   301  GNP301      0.2300
@<TRIPOS>BOND
     1    18    17    1
     2    20    19    1
     3    17    19    1
     4    17    15    1
     5    30    29    1
     6    19    21    1
     7    31    29    2
     8    31    32    2
     9    21    16    1
    10    21    22    1
    11    15    16    1
    12    15    14    1
    13    29    28    2
    14    32    22    1
    15    32    25    1
    16    22    23    1
    17    28    26    2
    18    14    13    1
    19    13    10    1
    20    11    10    2
    21    25    26    1
    22    25    24    2
    23    23    24    1
    24    26    27    2
    25    10    12    1
    26    10     9    1
    27     9     6    1
    28     2     1    2
    29     5     6    1
    30     5     1    1
    31     6     7    2
    32     6     8    1
    33     3     1    1
    34     1     4    1
