@<TRIPOS>MOLECULE
4haz_LBF_C_1.pdb
 39 39 0 0 0
SMALL
GASTEIGER

@<TRIPOS>ATOM
      1  O6       -48.2480   68.0560   33.3660 O.co2 1101  LBF1101    -0.2406
      2  C24      -47.3300   68.0210   32.5390 C.2   1101  LBF1101     0.3873
      3  O5       -47.4440   67.3220   31.5100 O.co2 1101  LBF1101    -0.2406
      4  C23      -46.0950   68.7830   32.8440 C.2   1101  LBF1101     0.0777
      5  C22      -44.9640   68.6630   32.1170 C.2   1101  LBF1101    -0.0373
      6  C33      -44.9030   67.7860   30.8990 C.3   1101  LBF1101     0.0266
      7  C21      -43.7370   69.4590   32.5060 C.3   1101  LBF1101     0.0248
      8  C20      -43.4040   70.4980   31.4350 C.3   1101  LBF1101     0.0349
      9  C32      -42.1550   71.2800   31.8340 C.3   1101  LBF1101     0.0030
     10  C19      -44.5740   71.4510   31.1720 C.3   1101  LBF1101     0.1591
     11  O4       -44.7760   72.2400   32.3510 O.3   1101  LBF1101    -0.2227
     12  C18      -44.3590   72.3580   29.9520 C.3   1101  LBF1101     0.0883
     13  C31      -45.3970   73.4760   29.8950 C.3   1101  LBF1101     0.0104
     14  C17      -44.4210   71.6080   28.6450 C.2   1101  LBF1101     0.1563
     15  O3       -45.0510   70.5620   28.5330 O.2   1101  LBF1101    -0.2957
     16  C16      -43.7030   72.1910   27.4570 C.3   1101  LBF1101     0.0793
     17  C30      -44.5810   72.0820   26.2160 C.3   1101  LBF1101     0.0125
     18  C15      -42.3970   71.4740   27.2080 C.2   1101  LBF1101    -0.0234
     19  C14      -41.1860   71.9930   27.5080 C.2   1101  LBF1101    -0.0260
     20  C29      -41.0320   73.3610   28.1180 C.3   1101  LBF1101     0.0307
     21  C13      -40.0100   71.1560   27.1780 C.2   1101  LBF1101    -0.0091
     22  C12      -38.7520   71.5670   27.3300 C.2   1101  LBF1101    -0.0261
     23  C11      -37.6290   70.6330   26.9360 C.3   1101  LBF1101     0.0303
     24  C10      -36.5730   70.5490   28.0250 C.3   1101  LBF1101     0.0261
     25  C28      -37.0900   69.8350   29.2720 C.3   1101  LBF1101     0.0050
     26  C9       -35.3750   69.7970   27.4960 C.2   1101  LBF1101    -0.0304
     27  C8       -34.1420   70.3300   27.3400 C.2   1101  LBF1101    -0.0267
     28  C26      -33.0080   69.4740   26.7980 C.3   1101  LBF1101     0.0260
     29  C27      -33.4510   68.1190   26.2940 C.3   1101  LBF1101     0.0050
     30  C7       -33.8550   71.7410   27.6960 C.2   1101  LBF1101    -0.0056
     31  C6       -32.6050   72.2090   27.7010 C.2   1101  LBF1101     0.0163
     32  C5       -32.3260   73.6510   28.0460 C.3   1101  LBF1101     0.1908
     33  O2       -31.7310   74.1920   26.8670 O.3   1101  LBF1101    -0.4477
     34  C4       -31.3950   73.8400   29.2360 C.3   1101  LBF1101     0.0451
     35  C25      -30.0130   73.2390   29.0150 C.3   1101  LBF1101     0.0041
     36  C3       -31.2740   75.3280   29.5230 C.3   1101  LBF1101     0.0156
     37  C2       -30.8800   76.1800   28.3160 C.3   1101  LBF1101     0.1097
     38  C1       -31.1430   75.5180   26.9840 C.2   1101  LBF1101     0.3172
     39  O1       -30.8480   76.0990   25.9530 O.2   1101  LBF1101    -0.2501
@<TRIPOS>BOND
     1    39    38    2
     2    17    16    1
     3    29    28    1
     4    28    27    1
     5    33    38    1
     6    33    32    1
     7    23    22    1
     8    23    24    1
     9    38    37    1
    10    21    22    2
    11    21    19    1
    12    18    16    1
    13    18    19    2
    14    27    26    2
    15    27    30    1
    16    16    14    1
    17    26    24    1
    18    19    20    1
    19    30    31    2
    20    31    32    1
    21    24    25    1
    22    32    34    1
    23    37    36    1
    24    15    14    2
    25    14    12    1
    26    35    34    1
    27    34    36    1
    28    13    12    1
    29    12    10    1
    30     6     5    1
    31    10     8    1
    32    10    11    1
    33     8     9    1
    34     8     7    1
    35     3     2   ar
    36     5     7    1
    37     5     4    2
    38     2     4    1
    39     2     1   ar
