@<TRIPOS>MOLECULE
4hb0_LBF_C_1.pdb
 39 39 0 0 0
SMALL
GASTEIGER

@<TRIPOS>ATOM
      1  O6       -48.1260   68.1630   33.3510 O.co2 1101  LBF1101    -0.2406
      2  C24      -47.2350   68.2290   32.4890 C.2   1101  LBF1101     0.3873
      3  O5       -47.3390   67.6210   31.4140 O.co2 1101  LBF1101    -0.2406
      4  C23      -46.0190   68.9970   32.8060 C.2   1101  LBF1101     0.0777
      5  C22      -44.8720   68.8150   32.1140 C.2   1101  LBF1101    -0.0373
      6  C33      -44.8090   67.9250   30.9010 C.3   1101  LBF1101     0.0266
      7  C21      -43.6290   69.5990   32.5020 C.3   1101  LBF1101     0.0248
      8  C20      -43.2480   70.6170   31.4120 C.3   1101  LBF1101     0.0349
      9  C32      -41.9550   71.3160   31.7840 C.3   1101  LBF1101     0.0030
     10  C19      -44.3760   71.6250   31.1810 C.3   1101  LBF1101     0.1591
     11  O4       -44.5290   72.4210   32.3830 O.3   1101  LBF1101    -0.2227
     12  C18      -44.1500   72.5270   29.9560 C.3   1101  LBF1101     0.0883
     13  C31      -45.1750   73.6640   29.9340 C.3   1101  LBF1101     0.0104
     14  C17      -44.2400   71.7590   28.6540 C.2   1101  LBF1101     0.1563
     15  O3       -44.8460   70.6850   28.5600 O.2   1101  LBF1101    -0.2957
     16  C16      -43.5820   72.3530   27.4410 C.3   1101  LBF1101     0.0793
     17  C30      -44.4500   72.1820   26.2010 C.3   1101  LBF1101     0.0125
     18  C15      -42.2820   71.6470   27.1770 C.2   1101  LBF1101    -0.0234
     19  C14      -41.0600   72.1700   27.4650 C.2   1101  LBF1101    -0.0260
     20  C29      -40.8640   73.5340   28.0720 C.3   1101  LBF1101     0.0307
     21  C13      -39.9050   71.3120   27.1210 C.2   1101  LBF1101    -0.0091
     22  C12      -38.6350   71.7200   27.2230 C.2   1101  LBF1101    -0.0261
     23  C11      -37.5200   70.7670   26.8390 C.3   1101  LBF1101     0.0303
     24  C10      -36.4590   70.6200   27.9260 C.3   1101  LBF1101     0.0261
     25  C28      -36.9820   69.8680   29.1380 C.3   1101  LBF1101     0.0050
     26  C9       -35.2580   69.8830   27.4050 C.2   1101  LBF1101    -0.0304
     27  C8       -34.0120   70.4080   27.2850 C.2   1101  LBF1101    -0.0267
     28  C26      -32.8670   69.5560   26.7410 C.3   1101  LBF1101     0.0260
     29  C27      -33.2410   68.1800   26.2190 C.3   1101  LBF1101     0.0050
     30  C7       -33.7080   71.8220   27.6500 C.2   1101  LBF1101    -0.0056
     31  C6       -32.4500   72.2770   27.6750 C.2   1101  LBF1101     0.0163
     32  C5       -32.1380   73.7210   28.0050 C.3   1101  LBF1101     0.1908
     33  O2       -31.5110   74.2600   26.8270 O.3   1101  LBF1101    -0.4477
     34  C4       -31.2230   73.9090   29.1950 C.3   1101  LBF1101     0.0451
     35  C25      -29.8660   73.2810   29.0100 C.3   1101  LBF1101     0.0041
     36  C3       -31.0150   75.3760   29.4360 C.3   1101  LBF1101     0.0156
     37  C2       -30.6640   76.2730   28.2660 C.3   1101  LBF1101     0.1097
     38  C1       -30.8400   75.5530   26.9490 C.2   1101  LBF1101     0.3172
     39  O1       -30.3880   76.0490   25.9330 O.2   1101  LBF1101    -0.2501
@<TRIPOS>BOND
     1    39    38    2
     2    17    16    1
     3    29    28    1
     4    28    27    1
     5    33    38    1
     6    33    32    1
     7    23    22    1
     8    23    24    1
     9    38    37    1
    10    21    22    2
    11    21    19    1
    12    18    16    1
    13    18    19    2
    14    27    26    2
    15    27    30    1
    16    26    24    1
    17    16    14    1
    18    19    20    1
    19    30    31    2
    20    31    32    1
    21    24    25    1
    22    32    34    1
    23    37    36    1
    24    15    14    2
    25    14    12    1
    26    35    34    1
    27    34    36    1
    28    13    12    1
    29    12    10    1
    30     6     5    1
    31    10     8    1
    32    10    11    1
    33     8     9    1
    34     8     7    1
    35     3     2   ar
    36     5     7    1
    37     5     4    2
    38     2     4    1
    39     2     1   ar
