@<TRIPOS>MOLECULE
4hb0_GNP_A_1.pdb
 32 34 0 0 0
SMALL
GASTEIGER

@<TRIPOS>ATOM
      1  PG         6.4320   37.7570   27.7280 P.3   301  GNP301      0.4884
      2  O1G        6.6610   36.5350   26.9220 O.2   301  GNP301     -0.2331
      3  O2G        7.8210   38.5950   27.7490 O.3   301  GNP301     -0.1240
      4  O3G        5.9720   37.4820   29.2010 O.3   301  GNP301     -0.1240
      5  N3B        5.1940   38.6100   26.9050 N.3   301  GNP301     -0.0163
      6  PB         4.7770   40.1110   27.5290 P.3   301  GNP301      0.4669
      7  O1B        5.9730   40.9950   27.7180 O.2   301  GNP301     -0.2351
      8  O2B        3.9450   39.9120   28.8850 O.3   301  GNP301     -0.1253
      9  O3A        3.7850   40.8100   26.4600 O.3   301  GNP301     -0.2360
     10  PA         4.3350   41.7610   25.2720 P.3   301  GNP301      0.2220
     11  O1A        5.3990   40.9680   24.5640 O.2   301  GNP301     -0.5170
     12  O2A        4.5760   43.1300   25.8480 O.3   301  GNP301     -0.4370
     13  O5'        3.0370   41.8520   24.3540 O.3   301  GNP301     -0.3111
     14  C5'        2.4680   40.7190   23.7320 C.3   301  GNP301      0.1813
     15  C4'        1.6010   41.2110   22.5860 C.3   301  GNP301      0.1799
     16  O4'        0.4560   41.9020   23.0880 O.3   301  GNP301     -0.3326
     17  C3'        2.3110   42.2030   21.7030 C.3   301  GNP301      0.2158
     18  O3'        2.0020   41.8640   20.3340 O.3   301  GNP301     -0.2175
     19  C2'        1.7400   43.5590   22.0550 C.3   301  GNP301      0.2310
     20  O2'        1.7540   44.4320   20.9250 O.3   301  GNP301     -0.2158
     21  C1'        0.3440   43.1970   22.4990 C.3   301  GNP301      0.2293
     22  N9        -0.1720   44.1530   23.4760 N.pl3 301  GNP301     -0.2354
     23  C8         0.4480   44.5600   24.6130 C.3   301  GNP301      0.2246
     24  N7        -0.3400   45.4290   25.3030 N.2   301  GNP301     -0.2322
     25  C5        -1.4720   45.5810   24.5860 C.2   301  GNP301      0.2182
     26  C6        -2.7220   46.3590   24.7180 C.1   301  GNP301      0.2372
     27  O6        -2.9210   47.1150   25.7000 O.2   301  GNP301     -0.2069
     28  N1        -3.6650   46.2120   23.7780 N.2   301  GNP301     -0.2485
     29  C2        -3.4570   45.4080   22.7150 C.1   301  GNP301      0.2531
     30  N2        -4.4310   45.3160   21.7990 N.pl3 301  GNP301     -0.0226
     31  N3        -2.3540   44.6680   22.5210 N.2   301  GNP301     -0.3074
     32  C4        -1.3560   44.7230   23.4030 C.2   301  GNP301      0.2300
@<TRIPOS>BOND
     1    18    17    1
     2    20    19    1
     3    17    19    1
     4    17    15    1
     5    30    29    1
     6    19    21    1
     7    21    16    1
     8    21    22    1
     9    31    29    2
    10    31    32    2
    11    15    16    1
    12    15    14    1
    13    29    28    2
    14    32    22    1
    15    32    25    1
    16    22    23    1
    17    14    13    1
    18    28    26    2
    19    13    10    1
    20    11    10    2
    21    25    26    1
    22    25    24    2
    23    23    24    1
    24    26    27    2
    25    10    12    1
    26    10     9    1
    27     9     6    1
    28     5     6    1
    29     5     1    1
    30     2     1    2
    31     6     7    2
    32     6     8    1
    33     1     3    1
    34     1     4    1
