@<TRIPOS>MOLECULE
4hb2_GNP_A_1.pdb
 32 34 0 0 0
SMALL
GASTEIGER

@<TRIPOS>ATOM
      1  PG         7.4510   37.9050   28.2360 P.3   301  GNP301      0.4884
      2  O1G        7.5790   36.6460   27.4670 O.2   301  GNP301     -0.2331
      3  O2G        8.7830   38.7770   28.1100 O.3   301  GNP301     -0.1240
      4  O3G        7.1110   37.5700   29.7570 O.3   301  GNP301     -0.1240
      5  N3B        6.1820   38.7920   27.5030 N.3   301  GNP301     -0.0163
      6  PB         5.7180   40.3420   28.0740 P.3   301  GNP301      0.4669
      7  O1B        6.9140   41.2030   28.3310 O.2   301  GNP301     -0.2351
      8  O2B        4.6920   40.2240   29.2740 O.3   301  GNP301     -0.1253
      9  O3A        4.8650   40.8210   26.7980 O.3   301  GNP301     -0.2360
     10  PA         5.3350   41.9390   25.7550 P.3   301  GNP301      0.2220
     11  O1A        6.5130   41.4300   24.9940 O.2   301  GNP301     -0.5170
     12  O2A        5.3930   43.2580   26.4420 O.3   301  GNP301     -0.4370
     13  O5'        4.0500   42.1040   24.7980 O.3   301  GNP301     -0.3111
     14  C5'        3.3800   41.0420   24.1480 C.3   301  GNP301      0.1813
     15  C4'        2.4730   41.6050   23.0600 C.3   301  GNP301      0.1799
     16  O4'        1.3400   42.2510   23.6360 O.3   301  GNP301     -0.3326
     17  C3'        3.1510   42.6340   22.1620 C.3   301  GNP301      0.2158
     18  O3'        2.8610   42.3010   20.8040 O.3   301  GNP301     -0.2175
     19  C2'        2.5290   43.9690   22.5400 C.3   301  GNP301      0.2310
     20  O2'        2.4140   44.8900   21.4550 O.3   301  GNP301     -0.2158
     21  C1'        1.1640   43.5350   23.0330 C.3   301  GNP301      0.2293
     22  N9         0.6110   44.4820   24.0170 N.pl3 301  GNP301     -0.2354
     23  C8         1.2280   44.9170   25.1350 C.3   301  GNP301      0.2246
     24  N7         0.4420   45.7610   25.8120 N.2   301  GNP301     -0.2322
     25  C5        -0.7050   45.8710   25.1290 C.2   301  GNP301      0.2182
     26  C6        -1.9680   46.6070   25.3010 C.1   301  GNP301      0.2372
     27  O6        -2.1470   47.3600   26.2850 O.2   301  GNP301     -0.2069
     28  N1        -2.9050   46.4380   24.3640 N.2   301  GNP301     -0.2485
     29  C2        -2.7370   45.6320   23.2890 C.1   301  GNP301      0.2531
     30  N2        -3.7350   45.5170   22.3880 N.pl3 301  GNP301     -0.0226
     31  N3        -1.6080   44.9260   23.0630 N.2   301  GNP301     -0.3074
     32  C4        -0.5860   45.0230   23.9390 C.2   301  GNP301      0.2300
@<TRIPOS>BOND
     1    18    17    1
     2    20    19    1
     3    17    19    1
     4    17    15    1
     5    30    29    1
     6    19    21    1
     7    21    16    1
     8    21    22    1
     9    15    16    1
    10    15    14    1
    11    31    29    2
    12    31    32    2
    13    29    28    2
    14    32    22    1
    15    32    25    1
    16    22    23    1
    17    14    13    1
    18    28    26    2
    19    13    10    1
    20    11    10    2
    21    25    26    1
    22    25    24    2
    23    23    24    1
    24    26    27    2
    25    10    12    1
    26    10     9    1
    27     9     6    1
    28     2     1    2
    29     5     6    1
    30     5     1    1
    31     6     7    2
    32     6     8    1
    33     3     1    1
    34     1     4    1
