@<TRIPOS>MOLECULE
4hb3_GNP_A_1.pdb
 32 34 0 0 0
SMALL
GASTEIGER

@<TRIPOS>ATOM
      1  PG         6.8030   37.7790   27.7900 P.3   301  GNP301      0.4884
      2  O1G        6.8610   36.4500   27.1460 O.2   301  GNP301     -0.2331
      3  O2G        8.2210   38.5070   27.5970 O.3   301  GNP301     -0.1240
      4  O3G        6.4760   37.6830   29.3590 O.3   301  GNP301     -0.1240
      5  N3B        5.5340   38.6680   27.0060 N.3   301  GNP301     -0.0163
      6  PB         4.9420   40.1290   27.7220 P.3   301  GNP301      0.4669
      7  O1B        6.0540   41.0390   28.0480 O.2   301  GNP301     -0.2351
      8  O2B        4.1350   39.8080   29.0720 O.3   301  GNP301     -0.1253
      9  O3A        3.9880   40.8130   26.6250 O.3   301  GNP301     -0.2360
     10  PA         4.6280   41.7400   25.4720 P.3   301  GNP301      0.2220
     11  O1A        5.6570   40.9250   24.7240 O.2   301  GNP301     -0.5170
     12  O2A        5.0250   43.0540   26.1180 O.3   301  GNP301     -0.4370
     13  O5'        3.3780   41.9890   24.4850 O.3   301  GNP301     -0.3111
     14  C5'        2.7700   40.8800   23.8190 C.3   301  GNP301      0.1813
     15  C4'        1.7740   41.3400   22.7600 C.3   301  GNP301      0.1799
     16  O4'        0.6990   42.0590   23.3730 O.3   301  GNP301     -0.3326
     17  C3'        2.4010   42.2850   21.7410 C.3   301  GNP301      0.2158
     18  O3'        1.9560   41.9350   20.4240 O.3   301  GNP301     -0.2175
     19  C2'        1.9150   43.6640   22.1610 C.3   301  GNP301      0.2310
     20  O2'        1.8690   44.5940   21.0730 O.3   301  GNP301     -0.2158
     21  C1'        0.5430   43.3240   22.7160 C.3   301  GNP301      0.2293
     22  N9        -0.0080   44.3260   23.6560 N.pl3 301  GNP301     -0.2354
     23  C8         0.5700   44.7850   24.7800 C.3   301  GNP301      0.2246
     24  N7        -0.2480   45.6790   25.3990 N.2   301  GNP301     -0.2322
     25  C5        -1.3750   45.7910   24.6660 C.2   301  GNP301      0.2182
     26  C6        -2.6470   46.5560   24.7360 C.1   301  GNP301      0.2372
     27  O6        -2.8870   47.3490   25.6670 O.2   301  GNP301     -0.2069
     28  N1        -3.5490   46.3780   23.7700 N.2   301  GNP301     -0.2485
     29  C2        -3.3420   45.5320   22.7470 C.1   301  GNP301      0.2531
     30  N2        -4.3090   45.4090   21.8120 N.pl3 301  GNP301     -0.0226
     31  N3        -2.2080   44.7980   22.6110 N.2   301  GNP301     -0.3074
     32  C4        -1.2090   44.8880   23.5210 C.2   301  GNP301      0.2300
@<TRIPOS>BOND
     1    18    17    1
     2    20    19    1
     3    17    19    1
     4    17    15    1
     5    30    29    1
     6    19    21    1
     7    31    29    2
     8    31    32    2
     9    21    16    1
    10    21    22    1
    11    29    28    2
    12    15    16    1
    13    15    14    1
    14    32    22    1
    15    32    25    1
    16    22    23    1
    17    28    26    2
    18    14    13    1
    19    13    10    1
    20    25    26    1
    21    25    24    2
    22    11    10    2
    23    26    27    2
    24    23    24    1
    25    10    12    1
    26    10     9    1
    27     9     6    1
    28     5     6    1
    29     5     1    1
    30     2     1    2
    31     3     1    1
    32     6     7    2
    33     6     8    1
    34     1     4    1
