@<TRIPOS>MOLECULE
4hb4_LMB_C_1.pdb
 40 39 0 0 0
SMALL
GASTEIGER

@<TRIPOS>ATOM
      1  O6       -46.8090   68.4380   31.5120 O.co2 1101  LMB1101    -0.2406
      2  C24      -46.6820   69.2410   32.4700 C.2   1101  LMB1101     0.3873
      3  O5       -47.6220   69.4070   33.2730 O.co2 1101  LMB1101    -0.2406
      4  C23      -45.4200   69.9830   32.7200 C.2   1101  LMB1101     0.0777
      5  C22      -44.2770   69.7630   32.0260 C.2   1101  LMB1101    -0.0373
      6  C33      -44.2000   68.7710   30.8980 C.3   1101  LMB1101     0.0266
      7  C21      -43.0360   70.5530   32.3880 C.3   1101  LMB1101     0.0248
      8  C20      -42.6040   71.4890   31.2610 C.3   1101  LMB1101     0.0349
      9  C32      -41.1970   72.0150   31.5440 C.3   1101  LMB1101     0.0030
     10  C19      -43.6170   72.6280   31.0660 C.3   1101  LMB1101     0.1591
     11  O4       -43.5660   73.5290   32.1910 O.3   1101  LMB1101    -0.2227
     12  C18      -43.4120   73.4200   29.7670 C.3   1101  LMB1101     0.0883
     13  C31      -44.3580   74.6190   29.7190 C.3   1101  LMB1101     0.0104
     14  C17      -43.6270   72.5790   28.5320 C.2   1101  LMB1101     0.1563
     15  O3       -44.3320   71.5710   28.5420 O.2   1101  LMB1101    -0.2957
     16  C16      -42.9460   73.0250   27.2710 C.3   1101  LMB1101     0.0793
     17  C30      -43.8790   72.7790   26.0900 C.3   1101  LMB1101     0.0125
     18  C15      -41.6460   72.2730   27.0770 C.2   1101  LMB1101    -0.0234
     19  C14      -40.4160   72.8140   27.2620 C.2   1101  LMB1101    -0.0260
     20  C29      -40.2390   74.2490   27.6860 C.3   1101  LMB1101     0.0307
     21  C13      -39.2430   71.9410   26.9970 C.2   1101  LMB1101    -0.0091
     22  C12      -37.9730   72.3730   27.0420 C.2   1101  LMB1101    -0.0261
     23  C11      -36.8460   71.4140   26.7330 C.3   1101  LMB1101     0.0303
     24  C10      -35.7920   71.3800   27.8360 C.3   1101  LMB1101     0.0261
     25  C28      -36.3150   70.6120   29.0520 C.3   1101  LMB1101     0.0050
     26  C9       -34.5300   70.7080   27.3380 C.2   1101  LMB1101    -0.0304
     27  C8       -33.2970   71.2580   27.3070 C.2   1101  LMB1101    -0.0267
     28  C26      -32.1730   70.4000   26.7500 C.3   1101  LMB1101     0.0260
     29  C27      -32.6440   69.0800   26.1720 C.3   1101  LMB1101     0.0050
     30  C7       -32.9900   72.6540   27.7370 C.2   1101  LMB1101    -0.0067
     31  C6       -31.7240   73.1030   27.7860 C.2   1101  LMB1101     0.0058
     32  C5       -31.3930   74.5300   28.1840 C.3   1101  LMB1101     0.1739
     33  O2       -30.6900   75.1110   27.0710 O.3   1101  LMB1101    -0.2183
     34  C4       -30.5330   74.6860   29.4530 C.3   1101  LMB1101     0.0353
     35  C25      -29.2750   73.8270   29.3800 C.3   1101  LMB1101     0.0030
     36  C3       -30.1460   76.1490   29.7960 C.3   1101  LMB1101     0.0147
     37  C2       -31.2560   77.1490   29.4250 C.3   1101  LMB1101     0.1142
     38  C1       -30.9700   78.5370   29.9590 C.2   1101  LMB1101     0.3649
     39  O1'      -31.6360   78.9500   30.9250 O.co2 1101  LMB1101    -0.2457
     40  O1       -30.0720   79.2230   29.4350 O.co2 1101  LMB1101    -0.2457
@<TRIPOS>BOND
     1    17    16    1
     2    29    28    1
     3    23    22    1
     4    23    24    1
     5    28    27    1
     6    21    22    2
     7    21    19    1
     8    33    32    1
     9    18    19    2
    10    18    16    1
    11    19    20    1
    12    16    14    1
    13    27    26    2
    14    27    30    1
    15    26    24    1
    16    30    31    2
    17    31    32    1
    18    24    25    1
    19    32    34    1
    20    14    15    2
    21    14    12    1
    22    35    34    1
    23    37    36    1
    24    37    38    1
    25    40    38   ar
    26    34    36    1
    27    13    12    1
    28    12    10    1
    29    38    39   ar
    30     6     5    1
    31    10     8    1
    32    10    11    1
    33     8     9    1
    34     8     7    1
    35     1     2   ar
    36     5     7    1
    37     5     4    2
    38     2     4    1
    39     2     3   ar
