@<TRIPOS>MOLECULE
4hb4_GNP_A_1.pdb
 32 34 0 0 0
SMALL
GASTEIGER

@<TRIPOS>ATOM
      1  PG         6.6580   37.8610   27.7850 P.3   301  GNP301      0.4884
      2  O1G        6.8330   36.5940   27.0340 O.2   301  GNP301     -0.2331
      3  O2G        7.9780   38.7760   27.7300 O.3   301  GNP301     -0.1240
      4  O3G        6.2530   37.5630   29.3020 O.3   301  GNP301     -0.1240
      5  N3B        5.3290   38.6810   27.0650 N.3   301  GNP301     -0.0163
      6  PB         4.8960   40.2600   27.5850 P.3   301  GNP301      0.4669
      7  O1B        6.0710   41.1050   27.8660 O.2   301  GNP301     -0.2351
      8  O2B        3.9600   40.0670   28.8720 O.3   301  GNP301     -0.1253
      9  O3A        3.9910   40.8720   26.4060 O.3   301  GNP301     -0.2360
     10  PA         4.5520   41.9320   25.3410 P.3   301  GNP301      0.2220
     11  O1A        5.6330   41.2410   24.5620 O.2   301  GNP301     -0.5170
     12  O2A        4.8070   43.2140   26.0840 O.3   301  GNP301     -0.4370
     13  O5'        3.2110   42.0810   24.4540 O.3   301  GNP301     -0.3111
     14  C5'        2.6240   40.9530   23.8090 C.3   301  GNP301      0.1813
     15  C4'        1.7350   41.3990   22.6580 C.3   301  GNP301      0.1799
     16  O4'        0.5780   42.0610   23.1710 O.3   301  GNP301     -0.3326
     17  C3'        2.4060   42.3970   21.7240 C.3   301  GNP301      0.2158
     18  O3'        2.0480   42.1040   20.3730 O.3   301  GNP301     -0.2175
     19  C2'        1.8510   43.7510   22.1030 C.3   301  GNP301      0.2310
     20  O2'        1.8490   44.6730   21.0000 O.3   301  GNP301     -0.2158
     21  C1'        0.4630   43.3580   22.5740 C.3   301  GNP301      0.2293
     22  N9        -0.0820   44.3190   23.5530 N.pl3 301  GNP301     -0.2354
     23  C8         0.5140   44.7620   24.6910 C.3   301  GNP301      0.2246
     24  N7        -0.2890   45.6370   25.3540 N.2   301  GNP301     -0.2322
     25  C5        -1.4180   45.7390   24.6200 C.2   301  GNP301      0.2182
     26  C6        -2.6830   46.4810   24.7230 C.1   301  GNP301      0.2372
     27  O6        -2.8740   47.2490   25.6960 O.2   301  GNP301     -0.2069
     28  N1        -3.6070   46.3050   23.7570 N.2   301  GNP301     -0.2485
     29  C2        -3.4210   45.4940   22.6870 C.1   301  GNP301      0.2531
     30  N2        -4.4300   45.3970   21.7770 N.pl3 301  GNP301     -0.0226
     31  N3        -2.2840   44.7690   22.5170 N.2   301  GNP301     -0.3074
     32  C4        -1.2810   44.8680   23.4330 C.2   301  GNP301      0.2300
@<TRIPOS>BOND
     1    18    17    1
     2    20    19    1
     3    17    19    1
     4    17    15    1
     5    30    29    1
     6    19    21    1
     7    31    29    2
     8    31    32    2
     9    21    16    1
    10    21    22    1
    11    15    16    1
    12    15    14    1
    13    29    28    2
    14    32    22    1
    15    32    25    1
    16    22    23    1
    17    28    26    2
    18    14    13    1
    19    13    10    1
    20    11    10    2
    21    25    26    1
    22    25    24    2
    23    23    24    1
    24    26    27    2
    25    10    12    1
    26    10     9    1
    27     9     6    1
    28     2     1    2
    29     5     6    1
    30     5     1    1
    31     6     7    2
    32     6     8    1
    33     3     1    1
    34     1     4    1
