@<TRIPOS>MOLECULE
4hb6_DXC_A_1.pdb
 28 31 0 0 0
SMALL
GASTEIGER

@<TRIPOS>ATOM
      1  C1        26.1830   32.2060   22.3290 C.3    75  DXC75       0.1520
      2  C2        25.9890   31.5520   20.9470 C.3    75  DXC75       0.0329
      3  C3        27.2700   30.8120   20.5070 C.3    75  DXC75       0.0025
      4  C4        28.5390   31.6700   20.5440 C.3    75  DXC75       0.0002
      5  C5        28.6560   32.3400   21.9260 C.3    75  DXC75       0.0026
      6  C6        27.4020   33.1310   22.2600 C.3    75  DXC75       0.0329
      7  C7        27.0350   30.1730   19.1180 C.3    75  DXC75       0.0001
      8  C8        27.0450   31.2470   17.9810 C.3    75  DXC75       0.0000
      9  C9        28.3430   32.0840   18.0310 C.3    75  DXC75       0.0002
     10  C10       28.5450   32.7150   19.4230 C.3    75  DXC75       0.0025
     11  C11       28.3130   33.2070   16.9970 C.3    75  DXC75       0.0024
     12  C12       29.6030   34.0260   16.9270 C.3    75  DXC75       0.0282
     13  C13       29.8170   34.6840   18.2930 C.3    75  DXC75       0.1519
     14  C14       29.8190   33.6220   19.4080 C.3    75  DXC75       0.0329
     15  C15       28.1100   32.7430   15.5400 C.3    75  DXC75       0.0001
     16  C16       28.6750   33.9090   14.7290 C.3    75  DXC75       0.0001
     17  C17       29.2280   34.9300   15.7330 C.3    75  DXC75       0.0024
     18  C18       29.7380   30.7210   20.4110 C.3    75  DXC75       0.0000
     19  C19       30.3740   35.7370   15.0740 C.3    75  DXC75       0.0006
     20  O1        28.7730   35.6140   18.5920 O.3    75  DXC75      -0.2232
     21  O2        25.0560   33.0010   22.6650 O.3    75  DXC75      -0.2232
     22  C20       30.8070   33.1530   16.5990 C.3    75  DXC75       0.0025
     23  C21       29.9550   36.4010   13.7460 C.3    75  DXC75       0.0118
     24  C22       28.8460   37.4230   13.9400 C.3    75  DXC75       0.1141
     25  C23       29.3770   38.8440   14.1130 C.2    75  DXC75       0.3649
     26  O3        30.0440   39.3840   13.2250 O.co2  75  DXC75      -0.2457
     27  O4        29.1190   39.4580   15.1490 O.co2  75  DXC75      -0.2457
     28  C24       30.9780   36.7620   16.0260 C.3    75  DXC75       0.0000
@<TRIPOS>BOND
     1    26    25   ar
     2    23    24    1
     3    23    19    1
     4    24    25    1
     5    25    27   ar
     6    16    15    1
     7    16    17    1
     8    19    17    1
     9    19    28    1
    10    15    11    1
    11    17    12    1
    12    22    12    1
    13    12    11    1
    14    12    13    1
    15    11     9    1
    16     8     9    1
    17     8     7    1
    18     9    10    1
    19    13    20    1
    20    13    14    1
    21     7     3    1
    22    14    10    1
    23    10     4    1
    24    18     4    1
    25     3     4    1
    26     3     2    1
    27     4     5    1
    28     2     1    1
    29     5     6    1
    30     6     1    1
    31     1    21    1
