@<TRIPOS>MOLECULE
4hb6_HEM_A_1.pdb
 43 50 0 0 0
SMALL
GASTEIGER

@<TRIPOS>ATOM
      1  CHA       35.1160   26.1190   16.7970 C.2    72  HEM72       0.0000
      2  CHB       38.6830   27.0650   13.6680 C.2    72  HEM72       0.0000
      3  CHC       35.3630   29.0230   10.6780 C.2    72  HEM72       0.0000
      4  CHD       32.4940   29.4990   14.5480 C.2    72  HEM72       0.0000
      5  C1A       36.3190   26.1160   16.1220 C.ar   72  HEM72       0.0000
      6  C2A       37.4260   25.2700   16.4570 C.ar   72  HEM72       0.0000
      7  C3A       38.4130   25.5230   15.6080 C.ar   72  HEM72       0.0000
      8  C4A       37.9660   26.5530   14.7120 C.ar   72  HEM72       0.0000
      9  CMA       39.8110   24.8630   15.6130 C.3    72  HEM72       0.0000
     10  CAA       37.4100   24.1920   17.5540 C.3    72  HEM72       0.0000
     11  CBA       36.9690   22.9330   16.7460 C.3    72  HEM72       0.0000
     12  CGA       37.2120   21.5660   17.3820 C.2    72  HEM72       0.0000
     13  O1A       38.0780   21.4490   18.2920 O.co2  72  HEM72       0.0000
     14  O2A       36.5380   20.5600   16.9720 O.co2  72  HEM72       0.0000
     15  C1B       38.0810   27.5900   12.5290 C.2    72  HEM72       0.0000
     16  C2B       38.7380   27.8670   11.2710 C.2    72  HEM72       0.0000
     17  C3B       37.8300   28.4170   10.4370 C.2    72  HEM72       0.0000
     18  C4B       36.5600   28.5040   11.1530 C.2    72  HEM72       0.0000
     19  CMB       40.2370   27.5440   11.0090 C.3    72  HEM72       0.0000
     20  CAB       38.0050   28.8540    8.9640 C.2    72  HEM72       0.0000
     21  CBB       38.2100   27.9280    8.0160 C.2    72  HEM72       0.0000
     22  C1C       34.3200   29.4040   11.4890 C.ar   72  HEM72       0.0000
     23  C2C       33.2160   30.2610   11.1390 C.ar   72  HEM72       0.0000
     24  C3C       32.4390   30.3740   12.2110 C.ar   72  HEM72       0.0000
     25  C4C       33.0230   29.6080   13.2830 C.ar   72  HEM72       0.0000
     26  CMC       32.9960   30.9250    9.7670 C.3    72  HEM72       0.0000
     27  CAC       31.1400   31.1990   12.3190 C.2    72  HEM72       0.0000
     28  CBC       30.1760   31.0050   11.3580 C.2    72  HEM72       0.0000
     29  C1D       32.8870   28.5960   15.4930 C.2    72  HEM72       0.0000
     30  C2D       32.1500   28.2490   16.6850 C.2    72  HEM72       0.0000
     31  C3D       32.9510   27.1710   17.3840 C.2    72  HEM72       0.0000
     32  C4D       34.1100   27.0010   16.5420 C.2    72  HEM72       0.0000
     33  CMD       30.8150   28.8150   17.1430 C.3    72  HEM72       0.0000
     34  CAD       32.6040   26.4280   18.6890 C.3    72  HEM72       0.0000
     35  CBD       31.3460   25.5860   18.4740 C.3    72  HEM72       0.0000
     36  CGD       31.5410   24.4490   17.5050 C.2    72  HEM72       0.0000
     37  O1D       32.6480   23.8810   17.4230 O.co2  72  HEM72       0.0000
     38  O2D       30.5370   24.1310   16.8290 O.co2  72  HEM72       0.0000
     39  NA        36.6500   26.8920   15.0370 N.ar   72  HEM72       0.0000
     40  NB        36.7710   28.0060   12.4150 N.2    72  HEM72       0.0000
     41  NC        34.1700   29.0110   12.8210 N.ar   72  HEM72       0.0000
     42  ND        34.0260   27.8500   15.4470 N.2    72  HEM72       0.0000
     43 FE         35.3930   27.9100   13.9120 Fe     72  HEM72       0.0000
@<TRIPOS>BOND
     1    21    20    2
     2    20    17    1
     3    26    23    1
     4    17    18    1
     5    17    16    2
     6     3    18    2
     7     3    22    1
     8    19    16    1
     9    23    22   ar
    10    23    24   ar
    11    18    40    1
    12    16    15    1
    13    28    27    2
    14    22    41   ar
    15    24    27    1
    16    24    25   ar
    17    40    15    2
    18    40    43    1
    19    15     2    1
    20    41    25   ar
    21    41    43    1
    22    25     4    1
    23     2     8    2
    24    43    39    1
    25    43    42    1
    26     4    29    2
    27     8    39   ar
    28     8     7   ar
    29    39     5   ar
    30    42    29    1
    31    42    32    2
    32    29    30    1
    33     7     9    1
    34     7     6   ar
    35     5     6   ar
    36     5     1    2
    37     6    10    1
    38    32     1    1
    39    32    31    1
    40    30    33    1
    41    30    31    2
    42    11    12    1
    43    11    10    1
    44    38    36   ar
    45    14    12   ar
    46    12    13   ar
    47    31    34    1
    48    37    36   ar
    49    36    35    1
    50    35    34    1
