@<TRIPOS>MOLECULE
4hb8_DXC_A_1.pdb
 28 31 0 0 0
SMALL
GASTEIGER

@<TRIPOS>ATOM
      1  C1        26.0990   32.0620   22.3030 C.3    75  DXC75       0.1520
      2  C2        25.9640   31.5040   20.8810 C.3    75  DXC75       0.0329
      3  C3        27.2360   30.7370   20.4770 C.3    75  DXC75       0.0025
      4  C4        28.5090   31.6150   20.5150 C.3    75  DXC75       0.0002
      5  C5        28.5960   32.2400   21.9320 C.3    75  DXC75       0.0026
      6  C6        27.3250   32.9760   22.3330 C.3    75  DXC75       0.0329
      7  C7        27.0260   30.0570   19.1060 C.3    75  DXC75       0.0001
      8  C8        27.0620   31.1020   17.9420 C.3    75  DXC75       0.0000
      9  C9        28.3010   32.0010   17.9870 C.3    75  DXC75       0.0002
     10  C10       28.4890   32.6530   19.3880 C.3    75  DXC75       0.0025
     11  C11       28.2360   33.1320   16.9460 C.3    75  DXC75       0.0024
     12  C12       29.5360   33.9420   16.8800 C.3    75  DXC75       0.0282
     13  C13       29.7460   34.6240   18.2440 C.3    75  DXC75       0.1519
     14  C14       29.7540   33.5730   19.3770 C.3    75  DXC75       0.0329
     15  C15       28.0080   32.6810   15.4830 C.3    75  DXC75       0.0001
     16  C16       28.6330   33.8190   14.6620 C.3    75  DXC75       0.0001
     17  C17       29.1720   34.8550   15.6900 C.3    75  DXC75       0.0024
     18  C18       29.7380   30.6910   20.3800 C.3    75  DXC75       0.0000
     19  C19       30.3430   35.6750   15.0880 C.3    75  DXC75       0.0006
     20  O1        28.7250   35.6110   18.5170 O.3    75  DXC75      -0.2232
     21  O2        24.9640   32.8680   22.6490 O.3    75  DXC75      -0.2232
     22  C20       30.7400   33.0650   16.5210 C.3    75  DXC75       0.0025
     23  C21       29.9220   36.3310   13.7640 C.3    75  DXC75       0.0118
     24  C22       28.7530   37.3010   13.9220 C.3    75  DXC75       0.1141
     25  C23       29.2200   38.7320   14.1540 C.2    75  DXC75       0.3649
     26  O3        29.9490   39.2820   13.3180 O.co2  75  DXC75      -0.2457
     27  O4        28.8540   39.3400   15.1660 O.co2  75  DXC75      -0.2457
     28  C24       30.8870   36.7250   16.0580 C.3    75  DXC75       0.0000
@<TRIPOS>BOND
     1    26    25   ar
     2    23    24    1
     3    23    19    1
     4    24    25    1
     5    25    27   ar
     6    16    15    1
     7    16    17    1
     8    19    17    1
     9    19    28    1
    10    15    11    1
    11    17    12    1
    12    22    12    1
    13    12    11    1
    14    12    13    1
    15    11     9    1
    16     8     9    1
    17     8     7    1
    18     9    10    1
    19    13    20    1
    20    13    14    1
    21     7     3    1
    22    14    10    1
    23    10     4    1
    24    18     4    1
    25     3     4    1
    26     3     2    1
    27     4     5    1
    28     2     1    1
    29     5     6    1
    30     1     6    1
    31     1    21    1
