@<TRIPOS>MOLECULE
4hb8_HEM_A_1.pdb
 43 50 0 0 0
SMALL
GASTEIGER

@<TRIPOS>ATOM
      1  CHA       35.0140   26.0500   16.8090 C.2    72  HEM72       0.0000
      2  CHB       38.5310   26.9270   13.6260 C.2    72  HEM72       0.0000
      3  CHC       35.2930   28.9110   10.6120 C.2    72  HEM72       0.0000
      4  CHD       32.3850   29.3830   14.4780 C.2    72  HEM72       0.0000
      5  C1A       36.1990   26.0140   16.1210 C.ar   72  HEM72       0.0000
      6  C2A       37.3000   25.1370   16.4210 C.ar   72  HEM72       0.0000
      7  C3A       38.2840   25.3830   15.5550 C.ar   72  HEM72       0.0000
      8  C4A       37.8260   26.4210   14.6740 C.ar   72  HEM72       0.0000
      9  CMA       39.6670   24.6880   15.4860 C.3    72  HEM72       0.0000
     10  CAA       37.2780   24.0660   17.5210 C.3    72  HEM72       0.0000
     11  CBA       36.6840   22.8400   16.7930 C.3    72  HEM72       0.0000
     12  CGA       36.9760   21.4960   17.4390 C.2    72  HEM72       0.0000
     13  O1A       37.8930   21.3640   18.3100 O.co2  72  HEM72       0.0000
     14  O2A       36.2540   20.5240   17.0780 O.co2  72  HEM72       0.0000
     15  C1B       37.9700   27.4680   12.4890 C.2    72  HEM72       0.0000
     16  C2B       38.6560   27.7290   11.2360 C.2    72  HEM72       0.0000
     17  C3B       37.7600   28.2850   10.3890 C.2    72  HEM72       0.0000
     18  C4B       36.4760   28.3870   11.0950 C.2    72  HEM72       0.0000
     19  CMB       40.1580   27.4060   11.0220 C.3    72  HEM72       0.0000
     20  CAB       37.9190   28.7500    8.9200 C.2    72  HEM72       0.0000
     21  CBB       38.1620   27.8280    7.9810 C.2    72  HEM72       0.0000
     22  C1C       34.2370   29.3050   11.4180 C.ar   72  HEM72       0.0000
     23  C2C       33.1370   30.1830   11.0670 C.ar   72  HEM72       0.0000
     24  C3C       32.3480   30.2830   12.1400 C.ar   72  HEM72       0.0000
     25  C4C       32.9340   29.5110   13.2150 C.ar   72  HEM72       0.0000
     26  CMC       32.9210   30.8740    9.7000 C.3    72  HEM72       0.0000
     27  CAC       31.0460   31.1070   12.2670 C.2    72  HEM72       0.0000
     28  CBC       30.0820   30.9200   11.3100 C.2    72  HEM72       0.0000
     29  C1D       32.7820   28.4920   15.4390 C.2    72  HEM72       0.0000
     30  C2D       32.0220   28.1440   16.6120 C.2    72  HEM72       0.0000
     31  C3D       32.8260   27.1030   17.3580 C.2    72  HEM72       0.0000
     32  C4D       34.0080   26.9300   16.5410 C.2    72  HEM72       0.0000
     33  CMD       30.6860   28.7420   17.0240 C.3    72  HEM72       0.0000
     34  CAD       32.4700   26.3750   18.6590 C.3    72  HEM72       0.0000
     35  CBD       31.2160   25.5280   18.4200 C.3    72  HEM72       0.0000
     36  CGD       31.4600   24.3630   17.4900 C.2    72  HEM72       0.0000
     37  O1D       32.5740   23.7800   17.4930 O.co2  72  HEM72       0.0000
     38  O2D       30.4840   24.0280   16.7820 O.co2  72  HEM72       0.0000
     39  NA        36.5310   26.8010   15.0380 N.ar   72  HEM72       0.0000
     40  NB        36.6610   27.8980   12.3640 N.2    72  HEM72       0.0000
     41  NC        34.0790   28.9140   12.7490 N.ar   72  HEM72       0.0000
     42  ND        33.9230   27.7580   15.4270 N.2    72  HEM72       0.0000
     43 FE         35.2980   27.7990   13.8850 Fe     72  HEM72       0.0000
@<TRIPOS>BOND
     1    21    20    2
     2    20    17    1
     3    26    23    1
     4    17    18    1
     5    17    16    2
     6     3    18    2
     7     3    22    1
     8    19    16    1
     9    23    22   ar
    10    23    24   ar
    11    18    40    1
    12    16    15    1
    13    28    27    2
    14    22    41   ar
    15    24    27    1
    16    24    25   ar
    17    40    15    2
    18    40    43    1
    19    15     2    1
    20    41    25   ar
    21    41    43    1
    22    25     4    1
    23     2     8    2
    24    43    39    1
    25    43    42    1
    26     4    29    2
    27     8    39   ar
    28     8     7   ar
    29    39     5   ar
    30    42    29    1
    31    42    32    2
    32    29    30    1
    33     9     7    1
    34     7     6   ar
    35     5     6   ar
    36     5     1    2
    37     6    10    1
    38    32     1    1
    39    32    31    1
    40    30    33    1
    41    30    31    2
    42    38    36   ar
    43    11    12    1
    44    11    10    1
    45    14    12   ar
    46    31    34    1
    47    12    13   ar
    48    36    37   ar
    49    36    35    1
    50    35    34    1
