@<TRIPOS>MOLECULE
4hbf_DXC_A_1.pdb
 28 31 0 0 0
SMALL
GASTEIGER

@<TRIPOS>ATOM
      1  C1        26.0890   32.0660   22.3720 C.3    75  DXC75       0.1520
      2  C2        25.9290   31.4840   20.9300 C.3    75  DXC75       0.0329
      3  C3        27.1730   30.6820   20.5140 C.3    75  DXC75       0.0025
      4  C4        28.4670   31.5500   20.5570 C.3    75  DXC75       0.0002
      5  C5        28.5780   32.1800   21.9660 C.3    75  DXC75       0.0026
      6  C6        27.3260   32.9510   22.3730 C.3    75  DXC75       0.0329
      7  C7        26.9380   30.0350   19.1240 C.3    75  DXC75       0.0001
      8  C8        26.9250   31.0810   18.0120 C.3    75  DXC75       0.0000
      9  C9        28.2120   31.9450   18.0440 C.3    75  DXC75       0.0002
     10  C10       28.4280   32.6020   19.4280 C.3    75  DXC75       0.0025
     11  C11       28.1760   33.0190   16.9400 C.3    75  DXC75       0.0024
     12  C12       29.4700   33.8350   16.8520 C.3    75  DXC75       0.0282
     13  C13       29.6450   34.5350   18.2300 C.3    75  DXC75       0.1519
     14  C14       29.6780   33.5190   19.3950 C.3    75  DXC75       0.0329
     15  C15       27.9390   32.5360   15.4920 C.3    75  DXC75       0.0001
     16  C16       28.4910   33.6520   14.6170 C.3    75  DXC75       0.0001
     17  C17       29.0580   34.6890   15.6080 C.3    75  DXC75       0.0024
     18  C18       29.6880   30.6480   20.3930 C.3    75  DXC75       0.0000
     19  C19       30.1820   35.5230   14.9390 C.3    75  DXC75       0.0006
     20  O1        28.5740   35.4490   18.5010 O.3    75  DXC75      -0.2232
     21  O2        24.9320   32.8580   22.6830 O.3    75  DXC75      -0.2232
     22  C20       30.6970   33.0090   16.5320 C.3    75  DXC75       0.0025
     23  C21       29.7440   36.2030   13.6350 C.3    75  DXC75       0.0118
     24  C22       28.6450   37.2230   13.8160 C.3    75  DXC75       0.1141
     25  C23       29.1880   38.6250   13.9850 C.2    75  DXC75       0.3649
     26  O3        29.7220   39.2080   13.0350 O.co2  75  DXC75      -0.2457
     27  O4        29.0690   39.1740   15.0790 O.co2  75  DXC75      -0.2457
     28  C24       30.7530   36.5410   15.9040 C.3    75  DXC75       0.0000
@<TRIPOS>BOND
     1    26    25   ar
     2    23    24    1
     3    23    19    1
     4    24    25    1
     5    25    27   ar
     6    16    15    1
     7    16    17    1
     8    19    17    1
     9    19    28    1
    10    15    11    1
    11    17    12    1
    12    22    12    1
    13    12    11    1
    14    12    13    1
    15    11     9    1
    16     8     9    1
    17     8     7    1
    18     9    10    1
    19    13    20    1
    20    13    14    1
    21     7     3    1
    22    14    10    1
    23    10     4    1
    24    18     4    1
    25     3     4    1
    26     3     2    1
    27     4     5    1
    28     2     1    1
    29     5     6    1
    30     1     6    1
    31     1    21    1
