@<TRIPOS>MOLECULE
4hbf_HEM_A_1.pdb
 43 50 0 0 0
SMALL
GASTEIGER

@<TRIPOS>ATOM
      1  CHA       34.9400   26.0020   16.8460 C.2    72  HEM72       0.0000
      2  CHB       38.4910   26.8440   13.7070 C.2    72  HEM72       0.0000
      3  CHC       35.2550   28.7930   10.6660 C.2    72  HEM72       0.0000
      4  CHD       32.3080   29.2660   14.4930 C.2    72  HEM72       0.0000
      5  C1A       36.1320   25.9570   16.1730 C.ar   72  HEM72       0.0000
      6  C2A       37.2250   25.0760   16.5120 C.ar   72  HEM72       0.0000
      7  C3A       38.2160   25.3030   15.6580 C.ar   72  HEM72       0.0000
      8  C4A       37.7710   26.3340   14.7410 C.ar   72  HEM72       0.0000
      9  CMA       39.5950   24.5860   15.6590 C.3    72  HEM72       0.0000
     10  CAA       37.1980   23.9930   17.5970 C.3    72  HEM72       0.0000
     11  CBA       36.7220   22.8220   16.6860 C.3    72  HEM72       0.0000
     12  CGA       36.8640   21.4410   17.2620 C.2    72  HEM72       0.0000
     13  O1A       37.7140   21.2380   18.1800 O.co2  72  HEM72       0.0000
     14  O2A       36.1170   20.5310   16.7830 O.co2  72  HEM72       0.0000
     15  C1B       37.9240   27.3750   12.5620 C.2    72  HEM72       0.0000
     16  C2B       38.5950   27.6210   11.2960 C.2    72  HEM72       0.0000
     17  C3B       37.6930   28.1590   10.4470 C.2    72  HEM72       0.0000
     18  C4B       36.4350   28.2730   11.1580 C.2    72  HEM72       0.0000
     19  CMB       40.0900   27.2770   11.0440 C.3    72  HEM72       0.0000
     20  CAB       37.8260   28.6070    8.9700 C.2    72  HEM72       0.0000
     21  CBB       38.1090   27.6740    8.0400 C.2    72  HEM72       0.0000
     22  C1C       34.1940   29.1600   11.4650 C.ar   72  HEM72       0.0000
     23  C2C       33.0920   29.9960   11.0740 C.ar   72  HEM72       0.0000
     24  C3C       32.2980   30.1190   12.1300 C.ar   72  HEM72       0.0000
     25  C4C       32.8590   29.3690   13.2340 C.ar   72  HEM72       0.0000
     26  CMC       32.9230   30.6470    9.6690 C.3    72  HEM72       0.0000
     27  CAC       30.9880   30.9300   12.2200 C.2    72  HEM72       0.0000
     28  CBC       30.0720   30.7620   11.2240 C.2    72  HEM72       0.0000
     29  C1D       32.7050   28.4060   15.4750 C.2    72  HEM72       0.0000
     30  C2D       31.9590   28.0920   16.6770 C.2    72  HEM72       0.0000
     31  C3D       32.7690   27.0640   17.4150 C.2    72  HEM72       0.0000
     32  C4D       33.9380   26.8760   16.5800 C.2    72  HEM72       0.0000
     33  CMD       30.6360   28.6740   17.1320 C.3    72  HEM72       0.0000
     34  CAD       32.4540   26.3710   18.7420 C.3    72  HEM72       0.0000
     35  CBD       31.2390   25.4570   18.6180 C.3    72  HEM72       0.0000
     36  CGD       31.4380   24.3080   17.6680 C.2    72  HEM72       0.0000
     37  O1D       32.5590   23.7570   17.6210 O.co2  72  HEM72       0.0000
     38  O2D       30.4350   23.9500   16.9860 O.co2  72  HEM72       0.0000
     39  NA        36.4830   26.7090   15.0720 N.ar   72  HEM72       0.0000
     40  NB        36.6140   27.7920   12.4380 N.2    72  HEM72       0.0000
     41  NC        34.0240   28.7850   12.8030 N.ar   72  HEM72       0.0000
     42  ND        33.8660   27.6700   15.4530 N.2    72  HEM72       0.0000
     43 FE         35.2320   27.6840   13.9450 Fe     72  HEM72       0.0000
@<TRIPOS>BOND
     1    21    20    2
     2    20    17    1
     3    26    23    1
     4    17    18    1
     5    17    16    2
     6     3    18    2
     7     3    22    1
     8    19    16    1
     9    23    22   ar
    10    23    24   ar
    11    18    40    1
    12    28    27    2
    13    16    15    1
    14    22    41   ar
    15    24    27    1
    16    24    25   ar
    17    40    15    2
    18    40    43    1
    19    15     2    1
    20    41    25   ar
    21    41    43    1
    22    25     4    1
    23     2     8    2
    24    43    39    1
    25    43    42    1
    26     4    29    2
    27     8    39   ar
    28     8     7   ar
    29    39     5   ar
    30    42    29    1
    31    42    32    2
    32    29    30    1
    33     7     9    1
    34     7     6   ar
    35     5     6   ar
    36     5     1    2
    37     6    10    1
    38    32     1    1
    39    32    31    1
    40    30    33    1
    41    30    31    2
    42    11    12    1
    43    11    10    1
    44    14    12   ar
    45    38    36   ar
    46    12    13   ar
    47    31    34    1
    48    37    36   ar
    49    36    35    1
    50    35    34    1
