@<TRIPOS>MOLECULE
4hbh_SPO_M_1.pdb
 35 34 0 0 0
SMALL
GASTEIGER

@<TRIPOS>ATOM
      1  CM1       43.5860   83.1230   55.0180 C.3   406  SPO406      0.1739
      2  O1        43.8670   84.3860   54.3810 O.3   406  SPO406     -0.3555
      3  C1        44.8940   84.6100   53.3720 C.3   406  SPO406      0.0970
      4  C2        46.2260   84.9520   54.0570 C.3   406  SPO406      0.0300
      5  C3        45.0610   83.3870   52.4470 C.3   406  SPO406      0.0300
      6  C4        44.5420   85.8310   52.5070 C.3   406  SPO406      0.0532
      7  C5        43.0650   86.0290   52.1890 C.2   406  SPO406     -0.0240
      8  C6        42.7520   87.0520   51.3820 C.2   406  SPO406     -0.0088
      9  C7        41.3870   87.4240   50.9320 C.2   406  SPO406     -0.0222
     10  C8        40.1650   86.9480   51.6890 C.3   406  SPO406      0.0310
     11  C9        41.2830   88.1810   49.8070 C.2   406  SPO406     -0.0043
     12  C10       40.0430   88.6740   49.1770 C.2   406  SPO406     -0.0006
     13  C11       40.1500   89.4480   48.0870 C.2   406  SPO406     -0.0043
     14  C12       38.9840   90.0480   47.3920 C.2   406  SPO406     -0.0219
     15  C13       37.6920   90.2480   48.1390 C.3   406  SPO406      0.0310
     16  C14       39.0990   90.4620   46.1080 C.2   406  SPO406     -0.0046
     17  C15       37.9960   91.0780   45.3420 C.2   406  SPO406     -0.0046
     18  C16       38.1530   92.0270   44.3880 C.2   406  SPO406     -0.0221
     19  C17       36.9040   92.5060   43.7470 C.3   406  SPO406      0.0437
     20  C18       35.6400   92.0930   44.4370 C.3   406  SPO406      0.0094
     21  C19       36.7900   93.2240   42.6020 C.2   406  SPO406     -0.0263
     22  C20       37.9050   93.7430   41.8490 C.2   406  SPO406     -0.0257
     23  C21       37.8060   94.5590   40.8010 C.3   406  SPO406      0.0513
     24  C22       39.1180   94.9990   40.3150 C.2   406  SPO406     -0.0257
     25  C23       39.4180   95.7440   39.2450 C.2   406  SPO406     -0.0258
     26  C24       38.3100   96.2110   38.3430 C.3   406  SPO406      0.0307
     27  C25       40.8850   96.0590   39.0380 C.2   406  SPO406     -0.0046
     28  C26       41.6030   96.4110   37.9250 C.2   406  SPO406     -0.0010
     29  C27       43.0740   96.6750   38.0430 C.2   406  SPO406     -0.0085
     30  C28       43.9730   97.0460   37.0670 C.2   406  SPO406     -0.0436
     31  C29       43.5310   97.2080   35.6270 C.3   406  SPO406      0.0264
     32  C30       45.4520   97.2650   37.4590 C.3   406  SPO406      0.0267
     33  C31       46.0850   98.6580   37.2110 C.3   406  SPO406      0.0304
     34  C32       47.1150   98.9760   38.3010 C.2   406  SPO406     -0.0258
     35  C33       48.0690   99.9400   38.2260 C.2   406  SPO406     -0.0049
@<TRIPOS>BOND
     1    31    30    1
     2    30    32    1
     3    30    29    2
     4    33    32    1
     5    33    34    1
     6    28    29    1
     7    28    27    2
     8    35    34    2
     9    26    25    1
    10    27    25    1
    11    25    24    2
    12    24    23    1
    13    23    22    1
    14    22    21    2
    15    21    19    1
    16    19    18    1
    17    19    20    1
    18    18    17    2
    19    17    16    1
    20    16    14    2
    21    14    13    1
    22    14    15    1
    23    13    12    2
    24    12    11    1
    25    11     9    2
    26     9     8    1
    27     9    10    1
    28     8     7    2
    29     7     6    1
    30     5     3    1
    31     6     3    1
    32     3     4    1
    33     3     2    1
    34     2     1    1
