@<TRIPOS>MOLECULE
4hbh_U10_L_1.pdb
 26 26 0 0 0
SMALL
GASTEIGER

@<TRIPOS>ATOM
      1  C1        34.6930   75.3640   34.3610 C.3   304  U10304      0.0672
      2  C2        34.7600   74.6820   33.1440 C.2   304  U10304      0.1804
      3  C3        34.5240   75.3280   31.9350 C.3   304  U10304      0.2061
      4  C4        34.1290   76.6660   31.9530 C.3   304  U10304      0.2061
      5  C5        34.0650   77.3590   33.1630 C.2   304  U10304      0.1804
      6  C6        34.3620   76.7420   34.3670 C.3   304  U10304      0.0672
      7  C1M       34.9990   74.5620   35.6100 C.3   304  U10304      0.0083
      8  C3M       35.7920   75.7140   30.0150 C.3   304  U10304      0.1747
      9  C4M       33.3470   77.4470   29.9160 C.3   304  U10304      0.1747
     10  C7        35.1010   77.7170   35.2680 C.3   304  U10304      0.0078
     11  C8        34.1270   78.1870   36.3140 C.3   304  U10304      0.0004
     12  C9        33.9310   77.3340   37.5080 C.3   304  U10304      0.0000
     13  C10       34.8810   77.5360   38.6800 C.3   304  U10304      0.0000
     14  C11       32.8390   76.2490   37.5420 C.3   304  U10304      0.0000
     15  C12       31.4050   76.7800   37.6020 C.3   304  U10304      0.0000
     16  C13       30.7210   76.4620   38.9260 C.3   304  U10304      0.0000
     17  C14       30.6630   77.4710   40.0170 C.3   304  U10304      0.0000
     18  C15       31.9220   77.7810   40.7980 C.3   304  U10304      0.0000
     19  C16       29.3440   78.1630   40.3730 C.3   304  U10304      0.0000
     20  C17       29.4010   79.6980   40.4330 C.3   304  U10304      0.0000
     21  C18       29.3240   80.1740   41.8720 C.3   304  U10304      0.0000
     22  C19       30.5060   80.7160   42.5750 C.3   304  U10304      0.0000
     23  O2        34.8470   73.4550   33.1420 O.2   304  U10304     -0.2934
     24  O3        35.0880   74.8780   30.9180 O.3   304  U10304     -0.3432
     25  O4        33.1720   76.8870   31.2030 O.3   304  U10304     -0.3432
     26  O5        33.3900   78.3880   33.2160 O.2   304  U10304     -0.2934
@<TRIPOS>BOND
     1     9    25    1
     2     8    24    1
     3    24     3    1
     4    25     4    1
     5     3     4    1
     6     3     2    1
     7     4     5    1
     8    23     2    2
     9     2     1    1
    10     5    26    2
    11     5     6    1
    12     1     6    1
    13     1     7    1
    14     6    10    1
    15    10    11    1
    16    11    12    1
    17    12    14    1
    18    12    13    1
    19    14    15    1
    20    15    16    1
    21    16    17    1
    22    17    19    1
    23    17    18    1
    24    19    20    1
    25    20    21    1
    26    21    22    1
