@<TRIPOS>MOLECULE
4hbi_HEM_A_1.pdb
 43 50 0 0 0
SMALL
GASTEIGER

@<TRIPOS>ATOM
      1 FE         17.6570    7.6420   20.2440 Fe    153  HEM153      0.0000
      2  CHA       16.6700    9.5890   17.6190 C.2   153  HEM153      0.0000
      3  CHB       14.6570    8.2770   21.7230 C.2   153  HEM153      0.0000
      4  CHC       18.9020    6.6720   23.2700 C.2   153  HEM153      0.0000
      5  CHD       20.8110    7.5610   18.9890 C.2   153  HEM153      0.0000
      6  NA        15.9820    8.5720   19.7120 N.2   153  HEM153      0.0000
      7  C1A       15.7080    9.2610   18.5510 C.2   153  HEM153      0.0000
      8  C2A       14.3090    9.6690   18.4820 C.2   153  HEM153      0.0000
      9  C3A       13.7480    9.2810   19.6390 C.2   153  HEM153      0.0000
     10  C4A       14.7970    8.6490   20.4090 C.2   153  HEM153      0.0000
     11  CMA       12.2780    9.4140   20.0220 C.3   153  HEM153      0.0000
     12  CAA       13.5590   10.3100   17.3120 C.3   153  HEM153      0.0000
     13  CBA       12.8840    9.2940   16.3720 C.3   153  HEM153      0.0000
     14  CGA       13.8670    8.4250   15.5850 C.2   153  HEM153      0.0000
     15  O1A       14.4760    8.9300   14.6550 O.co2 153  HEM153      0.0000
     16  O2A       14.0520    7.2480   15.8760 O.co2 153  HEM153      0.0000
     17  NB        16.9260    7.4630   22.0780 N.ar  153  HEM153      0.0000
     18  C1B       15.6390    7.7270   22.5110 C.ar  153  HEM153      0.0000
     19  C2B       15.4380    7.3680   23.8980 C.ar  153  HEM153      0.0000
     20  C3B       16.6500    6.9270   24.3510 C.ar  153  HEM153      0.0000
     21  C4B       17.5620    7.0130   23.2160 C.ar  153  HEM153      0.0000
     22  CMB       14.0860    7.4130   24.6150 C.3   153  HEM153      0.0000
     23  CAB       16.9990    6.4120   25.5980 C.3   153  HEM153      0.0000
     24  CBB       16.4770    6.7960   26.8930 C.3   153  HEM153      0.0000
     25  NC        19.4440    7.1260   20.9500 N.2   153  HEM153      0.0000
     26  C1C       19.7870    6.7230   22.2200 C.2   153  HEM153      0.0000
     27  C2C       21.1900    6.3880   22.3280 C.2   153  HEM153      0.0000
     28  C3C       21.7350    6.5980   21.0920 C.2   153  HEM153      0.0000
     29  C4C       20.6400    7.0690   20.2660 C.2   153  HEM153      0.0000
     30  CMC       21.8590    5.9230   23.6210 C.3   153  HEM153      0.0000
     31  CAC       23.0400    6.4370   20.5990 C.3   153  HEM153      0.0000
     32  CBC       24.2890    6.3140   21.3300 C.3   153  HEM153      0.0000
     33  ND        18.5320    8.3840   18.6500 N.ar  153  HEM153      0.0000
     34  C1D       19.8490    8.2250   18.2540 C.ar  153  HEM153      0.0000
     35  C2D       20.1480    8.9890   17.0670 C.ar  153  HEM153      0.0000
     36  C3D       19.0070    9.6290   16.7330 C.ar  153  HEM153      0.0000
     37  C4D       18.0000    9.2200   17.6880 C.ar  153  HEM153      0.0000
     38  CMD       21.4970    9.0470   16.3510 C.3   153  HEM153      0.0000
     39  CAD       18.8160   10.6210   15.6020 C.3   153  HEM153      0.0000
     40  CBD       19.2750   12.0190   15.9520 C.3   153  HEM153      0.0000
     41  CGD       19.1420   12.9600   14.7730 C.2   153  HEM153      0.0000
     42  O1D       19.9760   12.8920   13.8660 O.co2 153  HEM153      0.0000
     43  O2D       18.2050   13.7520   14.7460 O.co2 153  HEM153      0.0000
@<TRIPOS>BOND
     1    42    41   ar
     2    15    14   ar
     3    43    41   ar
     4    41    40    1
     5    14    16   ar
     6    14    13    1
     7    39    40    1
     8    39    36    1
     9    38    35    1
    10    13    12    1
    11    36    35   ar
    12    36    37   ar
    13    35    34   ar
    14    12     8    1
    15     2    37    2
    16     2     7    1
    17    37    33   ar
    18    34    33   ar
    19    34     5    2
    20     8     7    1
    21     8     9    2
    22     7     6    2
    23    33     1    1
    24     5    29    1
    25     9    11    1
    26     9    10    1
    27     6     1    1
    28     6    10    1
    29     1    25    1
    30     1    17    1
    31    29    25    2
    32    29    28    1
    33    10     3    2
    34    31    28    1
    35    31    32    1
    36    25    26    1
    37    28    27    2
    38     3    18    1
    39    17    18   ar
    40    17    21   ar
    41    26    27    1
    42    26     4    2
    43    27    30    1
    44    18    19   ar
    45    21     4    1
    46    21    20   ar
    47    19    20   ar
    48    19    22    1
    49    20    23    1
    50    23    24    1
