@<TRIPOS>MOLECULE
4hbj_U10_L_1.pdb
 18 18 0 0 0
SMALL
GASTEIGER

@<TRIPOS>ATOM
      1  C1        35.4610   74.5080   32.7710 C.3   304  U10304      0.0672
      2  C2        36.1310   73.8320   31.7390 C.2   304  U10304      0.1804
      3  C3        35.8370   74.0250   30.4100 C.3   304  U10304      0.2061
      4  C4        34.8490   74.9190   30.0880 C.3   304  U10304      0.2061
      5  C5        34.1590   75.5790   31.1600 C.2   304  U10304      0.1804
      6  C6        34.4640   75.4410   32.4900 C.3   304  U10304      0.0672
      7  C1M       35.8460   74.2420   34.2080 C.3   304  U10304      0.0083
      8  C3M       35.3490   72.9370   28.4120 C.3   304  U10304      0.1747
      9  C4M       35.1690   75.0060   27.7480 C.3   304  U10304      0.1747
     10  C7        34.6210   76.8600   33.0480 C.3   304  U10304      0.0078
     11  C8        33.5570   77.4170   33.9830 C.3   304  U10304      0.0004
     12  C9        33.8740   77.5700   35.4280 C.3   304  U10304      0.0000
     13  C10       35.2060   78.1540   35.8520 C.3   304  U10304      0.0000
     14  C11       32.8960   77.1220   36.5010 C.3   304  U10304      0.0000
     15  O2        36.5260   72.7150   31.9880 O.2   304  U10304     -0.2934
     16  O3        36.0110   73.0750   29.6570 O.3   304  U10304     -0.3432
     17  O4        34.4050   74.8590   28.9120 O.3   304  U10304     -0.3432
     18  O5        33.3460   76.4980   31.0130 O.2   304  U10304     -0.2934
@<TRIPOS>BOND
     1     9    17    1
     2     8    16    1
     3    17     4    1
     4    16     3    1
     5     4     3    1
     6     4     5    1
     7     3     2    1
     8    18     5    2
     9     5     6    1
    10     2    15    2
    11     2     1    1
    12     6     1    1
    13     6    10    1
    14     1     7    1
    15    10    11    1
    16    11    12    1
    17    12    13    1
    18    12    14    1
