@<TRIPOS>MOLECULE
4hbj_SPO_M_1.pdb
 42 41 0 0 0
SMALL
GASTEIGER

@<TRIPOS>ATOM
      1  CM1       42.7400   83.1140   55.2150 C.3   406  SPO406      0.1739
      2  O1        43.5480   84.2960   54.9970 O.3   406  SPO406     -0.3555
      3  C1        44.6930   84.4370   54.0920 C.3   406  SPO406      0.0970
      4  C2        45.8420   85.1990   54.7770 C.3   406  SPO406      0.0300
      5  C3        45.2430   83.0770   53.6350 C.3   406  SPO406      0.0300
      6  C4        44.3600   85.2500   52.8260 C.3   406  SPO406      0.0532
      7  C5        42.9150   85.6510   52.6210 C.2   406  SPO406     -0.0240
      8  C6        42.6610   86.5720   51.6780 C.2   406  SPO406     -0.0088
      9  C7        41.2970   87.0710   51.3260 C.2   406  SPO406     -0.0222
     10  C8        40.1400   86.7310   52.2210 C.3   406  SPO406      0.0310
     11  C9        41.1440   87.7930   50.1820 C.2   406  SPO406     -0.0043
     12  C10       39.9040   88.3800   49.6240 C.2   406  SPO406     -0.0006
     13  C11       39.9650   89.1310   48.4960 C.2   406  SPO406     -0.0043
     14  C12       38.8030   89.8030   47.8470 C.2   406  SPO406     -0.0219
     15  C13       37.4850   89.8300   48.5870 C.3   406  SPO406      0.0310
     16  C14       38.9460   90.4070   46.6390 C.2   406  SPO406     -0.0046
     17  C15       37.8350   91.0720   45.9260 C.2   406  SPO406     -0.0046
     18  C16       37.9670   91.5890   44.6740 C.2   406  SPO406     -0.0221
     19  C17       36.7860   92.2180   44.0260 C.3   406  SPO406      0.0437
     20  C18       35.4700   91.8850   44.6140 C.3   406  SPO406      0.0094
     21  C19       36.7140   93.0240   42.9480 C.2   406  SPO406     -0.0263
     22  C20       37.8060   93.5840   42.1890 C.2   406  SPO406     -0.0257
     23  C21       37.6570   94.4950   41.2230 C.3   406  SPO406      0.0513
     24  C22       38.9540   94.9420   40.7120 C.2   406  SPO406     -0.0257
     25  C23       39.2650   95.7080   39.6550 C.2   406  SPO406     -0.0258
     26  C24       38.1420   96.1750   38.7820 C.3   406  SPO406      0.0307
     27  C25       40.7430   95.9970   39.4220 C.2   406  SPO406     -0.0046
     28  C26       41.4360   96.2290   38.2760 C.2   406  SPO406     -0.0010
     29  C27       42.9060   96.4810   38.3040 C.2   406  SPO406     -0.0085
     30  C28       43.6540   96.9350   37.2460 C.2   406  SPO406     -0.0436
     31  C29       43.0010   97.1830   35.9100 C.3   406  SPO406      0.0264
     32  C30       45.1700   97.1730   37.3420 C.3   406  SPO406      0.0267
     33  C31       45.5330   98.5800   37.8100 C.3   406  SPO406      0.0297
     34  C32       46.9880   99.0380   37.6810 C.2   406  SPO406     -0.0342
     35  C33       47.5860   99.9020   38.5670 C.2   406  SPO406     -0.0478
     36  C34       46.7810  100.4280   39.7120 C.3   406  SPO406      0.0260
     37  C35       49.0190  100.4560   38.4680 C.3   406  SPO406      0.0263
     38  C36       50.2450   99.5330   38.4570 C.3   406  SPO406      0.0297
     39  C37       50.7760   99.2210   37.0350 C.2   406  SPO406     -0.0342
     40  C38       51.9140   99.6890   36.4050 C.2   406  SPO406     -0.0478
     41  C39       52.2450   99.2190   34.9930 C.3   406  SPO406      0.0260
     42  C40       52.8470  100.6760   37.0800 C.3   406  SPO406      0.0260
@<TRIPOS>BOND
     1    41    40    1
     2    31    30    1
     3    40    39    2
     4    40    42    1
     5    39    38    1
     6    30    32    1
     7    30    29    2
     8    32    33    1
     9    34    33    1
    10    34    35    2
    11    28    29    1
    12    28    27    2
    13    38    37    1
    14    37    35    1
    15    35    36    1
    16    26    25    1
    17    27    25    1
    18    25    24    2
    19    24    23    1
    20    23    22    1
    21    22    21    2
    22    21    19    1
    23    19    20    1
    24    19    18    1
    25    18    17    2
    26    17    16    1
    27    16    14    2
    28    14    13    1
    29    14    15    1
    30    13    12    2
    31    12    11    1
    32    11     9    2
    33     9     8    1
    34     9    10    1
    35     8     7    2
    36     7     6    1
    37     6     3    1
    38     5     3    1
    39     3     4    1
    40     3     2    1
    41     2     1    1
