@<TRIPOS>MOLECULE
4hbm_0Y7_A_1.pdb
 30 32 0 0 0
SMALL
GASTEIGER

@<TRIPOS>ATOM
      1 CL1        15.0760   17.5450   17.4790 Cl    201  0Y7201     -0.0822
      2  C1        16.1130   16.2870   16.8820 C.ar  201  0Y7201      0.0577
      3  C2        17.4940   16.4200   17.0740 C.ar  201  0Y7201      0.0111
      4  C3        18.3480   15.4060   16.6410 C.ar  201  0Y7201     -0.0018
      5  C4        15.5720   15.1560   16.2510 C.ar  201  0Y7201      0.0111
      6  C5        16.4260   14.1430   15.8170 C.ar  201  0Y7201     -0.0018
      7  C6        17.8090   14.2640   16.0170 C.ar  201  0Y7201     -0.0039
      8  C7        18.6830   13.1440   15.6010 C.3   201  0Y7201      0.1018
      9  N1        19.5810   13.5180   14.4850 N.am  201  0Y7201     -0.2761
     10  C8        19.0220   14.3390   13.3610 C.3   201  0Y7201      0.1085
     11  C9        18.7980   13.4630   12.1330 C.3   201  0Y7201      0.2017
     12  O4        17.7450   12.5510   12.3890 O.3   201  0Y7201     -0.2186
     13  C11       20.8810   13.1460   14.4370 C.2   201  0Y7201      0.2259
     14  O1        21.6180   13.4950   13.5270 O.2   201  0Y7201     -0.2749
     15  C12       21.4670   12.2360   15.5760 C.3   201  0Y7201      0.0883
     16  C13       22.4070   13.0380   16.5000 C.3   201  0Y7201      0.1231
     17  C14       23.2300   12.0260   17.3250 C.2   201  0Y7201      0.3654
     18  O2        23.0770   11.7510   18.4880 O.co2 201  0Y7201     -0.2456
     19  O3        24.1740   11.4530   16.5640 O.co2 201  0Y7201     -0.2456
     20  C15       20.4440   11.4740   16.3950 C.3   201  0Y7201      0.0160
     21  C16       19.3450   12.4070   16.8340 C.3   201  0Y7201      0.0453
     22  C17       18.3520   11.7210   17.7430 C.ar  201  0Y7201     -0.0197
     23  C18       17.8270   10.4410   17.4460 C.ar  201  0Y7201     -0.0042
     24  C19       16.8890    9.8570   18.2960 C.ar  201  0Y7201      0.0005
     25  C20       16.4600   10.5230   19.4440 C.ar  201  0Y7201      0.0114
     26  C21       16.9870   11.7870   19.7340 C.ar  201  0Y7201      0.0574
     27 CL2        16.4600   12.6050   21.1180 Cl    201  0Y7201     -0.0823
     28  C22       17.9220   12.3910   18.9060 C.ar  201  0Y7201      0.0072
     29  C10       19.8270   15.5800   12.9560 C.3   201  0Y7201      0.0225
     30  C23       19.4840   16.8960   13.6380 C.3   201  0Y7201      0.0018
@<TRIPOS>BOND
     1    11    12    1
     2    11    10    1
     3    29    10    1
     4    29    30    1
     5    10     9    1
     6    14    13    2
     7    13     9   am
     8    13    15    1
     9     9     8    1
    10    15    20    1
    11    15    16    1
    12     8     7    1
    13     8    21    1
    14     6     7   ar
    15     6     5   ar
    16     7     4   ar
    17     5     2   ar
    18    20    21    1
    19    16    17    1
    20    19    17   ar
    21     4     3   ar
    22    21    22    1
    23     2     3   ar
    24     2     1    1
    25    17    18   ar
    26    23    22   ar
    27    23    24   ar
    28    22    28   ar
    29    24    25   ar
    30    28    26   ar
    31    25    26   ar
    32    26    27    1
