@<TRIPOS>MOLECULE
4hbn_CMP_A_1.pdb
 22 25 0 0 0
SMALL
GASTEIGER

@<TRIPOS>ATOM
      1  P        -26.2400   -4.7880   44.7490 P.3   801  CMP801      0.2141
      2  O1P      -26.3260   -5.3780   46.1410 O.3   801  CMP801     -0.4373
      3  O2P      -24.8340   -4.3430   44.4090 O.2   801  CMP801     -0.5172
      4  O5'      -26.7390   -5.8510   43.6510 O.3   801  CMP801     -0.3114
      5  C5'      -28.1170   -6.0420   43.3580 C.3   801  CMP801      0.1812
      6  C4'      -28.6530   -4.6390   43.1590 C.3   801  CMP801      0.1793
      7  O4'      -30.0320   -4.6220   42.8360 O.3   801  CMP801     -0.3136
      8  C3'      -28.5980   -3.8790   44.4650 C.3   801  CMP801      0.1884
      9  O3'      -27.2450   -3.5320   44.6750 O.3   801  CMP801     -0.3111
     10  C2'      -29.5370   -2.7220   44.2140 C.3   801  CMP801      0.2541
     11  O2'      -28.8350   -1.6760   43.5420 O.3   801  CMP801     -0.2131
     12  C1'      -30.5390   -3.3660   43.2670 C.3   801  CMP801      0.3185
     13  N9       -31.7600   -3.6720   44.0250 N.pl3 801  CMP801     -0.1439
     14  C8       -31.8650   -4.5560   45.0250 C.3   801  CMP801      0.3377
     15  N7       -33.1330   -4.5890   45.5020 N.2   801  CMP801     -0.2095
     16  C5       -33.8590   -3.7110   44.7820 C.2   801  CMP801      0.2526
     17  C6       -35.2700   -3.2470   44.7620 C.2   801  CMP801      0.4393
     18  N6       -36.1780   -3.7590   45.6300 N.pl3 801  CMP801      0.2180
     19  N1       -35.6130   -2.3210   43.8360 N.2   801  CMP801      0.0021
     20  C2       -34.7030   -1.8440   42.9580 C.3   801  CMP801      0.5254
     21  N3       -33.4090   -2.2140   42.9100 N.2   801  CMP801     -0.0055
     22  C4       -32.9420   -3.1200   43.7940 C.2   801  CMP801      0.3518
@<TRIPOS>BOND
     1     7     6    1
     2     7    12    1
     3    21    20    1
     4    21    22    2
     5    20    19    1
     6     6     5    1
     7     6     8    1
     8    12    13    1
     9    12    10    1
    10     5     4    1
    11    11    10    1
    12     4     1    1
    13    22    13    1
    14    22    16    1
    15    19    17    2
    16    13    14    1
    17    10     8    1
    18     3     1    2
    19     8     9    1
    20     9     1    1
    21     1     2    1
    22    17    16    1
    23    17    18    1
    24    16    15    2
    25    14    15    1
