@<TRIPOS>MOLECULE
4hbp_17J_A_1.pdb
 19 21 0 0 0
SMALL
GASTEIGER

@<TRIPOS>ATOM
      1  C2       -26.1470  -44.9310  -42.8750 C.2   600  17J600      0.3030
      2  O1       -25.5420  -44.5910  -43.9180 O.2   600  17J600     -0.2649
      3  N10      -27.3390  -45.5130  -42.9540 N.am  600  17J600     -0.2688
      4  C15      -27.9390  -45.8040  -44.2600 C.3   600  17J600      0.1154
      5  C14      -29.2840  -45.0940  -44.2690 C.3   600  17J600      0.1152
      6  N13      -29.8980  -45.7780  -43.1500 N.pl3 600  17J600     -0.2731
      7  C12      -29.4640  -45.2720  -41.8570 C.3   600  17J600      0.1152
      8  C11      -28.0780  -45.9120  -41.7490 C.3   600  17J600      0.1154
      9  C16      -31.1960  -46.1620  -43.3110 C.2   600  17J600      0.2440
     10  S20      -32.3280  -46.3020  -42.0290 S.3   600  17J600      0.0730
     11  N19      -33.5380  -46.8220  -43.0980 N.2   600  17J600     -0.1420
     12  C18      -33.0420  -46.8830  -44.3750 C.1   600  17J600      0.0961
     13  N17      -31.7250  -46.5160  -44.5000 N.2   600  17J600     -0.3265
     14  C21      -33.8800  -47.2970  -45.5340 C.ar  600  17J600      0.0746
     15  C26      -34.8980  -48.2380  -45.3620 C.ar  600  17J600      0.0110
     16  C25      -35.6880  -48.6090  -46.4530 C.ar  600  17J600      0.0007
     17  C24      -35.4550  -48.0380  -47.7080 C.ar  600  17J600      0.0000
     18  C23      -34.4380  -47.0970  -47.8790 C.ar  600  17J600      0.0007
     19  C22      -33.6520  -46.7250  -46.7890 C.ar  600  17J600      0.0110
@<TRIPOS>BOND
     1    18    17   ar
     2    18    19   ar
     3    17    16   ar
     4    19    14   ar
     5    16    15   ar
     6    14    15   ar
     7    14    12    1
     8    13    12    2
     9    13     9    2
    10    12    11    2
    11     5     4    1
    12     5     6    1
    13     4     3    1
    14     2     1    2
    15     9     6    1
    16     9    10    1
    17     6     7    1
    18    11    10    1
    19     3     1   am
    20     3     8    1
    21     7     8    1
