@<TRIPOS>MOLECULE
4hbv_15E_A_1.pdb
 13 14 0 0 0
SMALL
GASTEIGER

@<TRIPOS>ATOM
      1  OAM       32.2140   18.2990    0.0580 O.2   203  15E203     -0.1930
      2  CAH       31.1030   17.6980    0.0150 C.1   203  15E203      0.2682
      3  NAG       30.9510   16.4600   -0.6940 N.2   203  15E203     -0.3253
      4  CAD       29.6770   15.9760   -1.0640 C.2   203  15E203      0.1285
      5  CAC       29.5280   15.0690   -2.1340 C.2   203  15E203      0.0294
      6  CAB       28.2900   14.6180   -2.5110 C.2   203  15E203      0.0087
      7  CAA       27.1600   15.0390   -1.8350 C.2   203  15E203      0.0308
      8 BR         25.4250   14.3310   -2.3220 Br    203  15E203     -0.0493
      9  CAF       27.2970   15.8890   -0.7340 C.2   203  15E203     -0.0109
     10  CAE       28.5490   16.4040   -0.3640 C.3   203  15E203      0.0963
     11  CAJ       28.7460   17.2740    0.7570 C.3   203  15E203      0.1151
     12  NAI       29.9930   18.1530    0.6470 N.am  203  15E203     -0.2246
     13  CAL       30.0350   19.3400    1.5120 C.3   203  15E203      0.1259
@<TRIPOS>BOND
     1     6     5    2
     2     6     7    1
     3     8     7    1
     4     5     4    1
     5     7     9    2
     6     4     3    2
     7     4    10    1
     8     9    10    1
     9     3     2    2
    10    10    11    1
    11     2     1    2
    12     2    12   am
    13    12    11    1
    14    12    13    1
