@<TRIPOS>MOLECULE
4hbw_14Z_A_1.pdb
 18 19 0 0 0
SMALL
GASTEIGER

@<TRIPOS>ATOM
      1  CAO       26.9350   17.8170   -5.1240 C.3   202  14Z202      0.0224
      2  CAN       26.9900   17.0030   -3.8260 C.3   202  14Z202      0.1155
      3  NAM       27.2240   15.5870   -4.1500 N.3   202  14Z202     -0.0778
      4  SAP       27.3170   14.6020   -2.9210 S.O2  202  14Z202      0.0765
      5  OAQ       27.7270   13.2090   -3.2990 O.2   202  14Z202     -0.1516
      6  OAR       26.4640   14.8550   -1.7890 O.2   202  14Z202     -0.1516
      7  CAA       28.8730   15.1950   -2.2720 C.2   202  14Z202      0.1195
      8  CAF       28.8680   15.9120   -1.0470 C.2   202  14Z202      0.0193
      9  CAE       30.0920   16.3850   -0.5530 C.2   202  14Z202      0.0264
     10  CAJ       30.0320   17.2050    0.7520 C.3   202  14Z202      0.1323
     11  NAI       31.2510   18.0710    0.8450 N.am  202  14Z202     -0.2208
     12  CAL       31.1540   19.1450    1.9100 C.3   202  14Z202      0.1263
     13  CAH       32.4470   17.7690    0.1800 C.1   202  14Z202      0.2685
     14  OAK       33.4400   18.4760    0.3330 O.2   202  14Z202     -0.1930
     15  NAG       32.4940   16.7420   -0.7730 N.2   202  14Z202     -0.3256
     16  CAD       31.2950   16.1520   -1.2020 C.2   202  14Z202      0.1252
     17  CAC       31.2730   15.5220   -2.4410 C.3   202  14Z202      0.0871
     18  CAB       30.0800   15.0130   -2.9360 C.2   202  14Z202      0.0013
@<TRIPOS>BOND
     1     1     2    1
     2     3     2    1
     3     3     4    1
     4     5     4    2
     5    18    17    1
     6    18     7    2
     7     4     7    1
     8     4     6    2
     9    17    16    1
    10     7     8    1
    11    16    15    2
    12    16     9    1
    13     8     9    2
    14    15    13    2
    15     9    10    1
    16    13    14    2
    17    13    11   am
    18    10    11    1
    19    11    12    1
