@<TRIPOS>MOLECULE
4hbx_14X_A_1.pdb
 20 22 0 0 0
SMALL
GASTEIGER

@<TRIPOS>ATOM
      1  C4        50.3320    2.2940   21.5860 C.3   201  14X201      0.1896
      2  C5        50.1300    3.4580   22.3570 C.2   201  14X201      0.0056
      3  C6        50.5800    4.6970   21.9600 C.2   201  14X201      0.0303
      4  C11       53.0150    0.4690   24.3790 C.3   201  14X201      0.0206
      5  C7        51.3020    4.7550   20.7690 C.2   201  14X201      0.1427
      6  C8        52.8870    6.1330   19.3740 C.1   201  14X201      0.2688
      7  C9        52.3450   -0.2860   22.2360 C.3   201  14X201      0.0955
      8  C10       53.2710   -0.6420   23.3610 C.3   201  14X201      0.0206
      9  C12       51.5260    0.5500   24.3800 C.3   201  14X201      0.0955
     10  N1        51.9750    5.9960   20.4340 N.2   201  14X201     -0.3215
     11  N2        51.1570    0.2970   22.9530 N.3   201  14X201     -0.1589
     12  C3        50.9900    2.3900   20.3560 C.2   201  14X201      0.0030
     13  O2        48.8200    1.0770   23.1520 O.2   201  14X201     -0.1567
     14  S         49.8160    0.7520   22.1620 S.O2  201  14X201      0.0499
     15  O1        49.8120   -0.1010   21.0900 O.2   201  14X201     -0.1567
     16  C2        51.4560    3.6350   19.9530 C.2   201  14X201      0.0267
     17  C1        52.0740    3.9020   18.5960 C.3   201  14X201      0.1324
     18  O         53.5650    7.1410   19.4030 O.2   201  14X201     -0.1929
     19  N         53.0590    5.0500   18.6020 N.am  201  14X201     -0.2208
     20  C         54.1920    5.0510   17.6010 C.3   201  14X201      0.1263
@<TRIPOS>BOND
     1    20    19    1
     2    17    19    1
     3    17    16    1
     4    19     6   am
     5     6    18    2
     6     6    10    2
     7    16    12    2
     8    16     5    1
     9    12     1    1
    10    10     5    2
    11     5     3    1
    12    15    14    2
    13     1    14    1
    14     1     2    1
    15     3     2    2
    16    14    11    1
    17    14    13    2
    18     7    11    1
    19     7     8    1
    20    11     9    1
    21     8     4    1
    22     4     9    1
