@<TRIPOS>MOLECULE
4hby_13F_A_1.pdb
 22 24 0 0 0
SMALL
GASTEIGER

@<TRIPOS>ATOM
      1  C4         6.5860    3.9000   22.1210 C.2   201  13F201      0.0016
      2  C14        8.9090    4.0540   18.7230 C.3   201  13F201      0.1323
      3  C5         6.7470    2.7910   21.3750 C.2   201  13F201      0.1230
      4  C6         7.8210    0.5070   23.8310 C.ar  201  13F201      0.0910
      5  C11        8.4260   -0.4220   23.0580 C.ar  201  13F201      0.0180
      6  C7         8.4450    1.0130   24.8300 C.ar  201  13F201      0.0180
      7  C8         9.7370    0.7100   25.0550 C.ar  201  13F201      0.0014
      8  C9        10.3990   -0.1200   24.2780 C.ar  201  13F201      0.0001
      9  C10        9.7380   -0.7360   23.2620 C.ar  201  13F201      0.0014
     10  C12        7.5190    2.8870   20.2310 C.2   201  13F201      0.0196
     11  C13        8.0900    4.0000   19.9190 C.2   201  13F201      0.0264
     12  N1         8.6960    6.1090   20.4580 N.2   201  13F201     -0.3256
     13  N2         6.5920    1.1400   23.4170 N.pl3 201  13F201     -0.0966
     14  C3         7.1810    5.0660   21.7880 C.3   201  13F201      0.0871
     15  O2        10.1650    7.0990   19.5500 O.2   201  13F201     -0.1930
     16  C1         9.5940    6.2170   19.5250 C.1   201  13F201      0.2685
     17  C2         7.9770    5.0620   20.6640 C.2   201  13F201      0.1252
     18  N          9.7720    5.1600   18.7690 N.am  201  13F201     -0.2208
     19  C         10.8860    5.1170   17.8670 C.3   201  13F201      0.1263
     20  S          6.0360    1.4280   21.8720 S.O2  201  13F201      0.0925
     21  O          4.7600    1.7300   22.2040 O.2   201  13F201     -0.1483
     22  O1         6.2900    0.1800   21.0370 O.2   201  13F201     -0.1483
@<TRIPOS>BOND
     1    19    18    1
     2     2    18    1
     3     2    11    1
     4    18    16   am
     5    16    15    2
     6    16    12    2
     7    11    10    2
     8    11    17    1
     9    10     3    1
    10    12    17    2
    11    17    14    1
    12    22    20    2
    13     3    20    1
    14     3     1    2
    15    14     1    1
    16    20    21    2
    17    20    13    1
    18     5     9   ar
    19     5     4   ar
    20     9     8   ar
    21    13     4    1
    22     4     6   ar
    23     8     7   ar
    24     6     7   ar
