@<TRIPOS>MOLECULE
4hc3_HEM_A_1.pdb
 43 50 0 0 0
SMALL
GASTEIGER

@<TRIPOS>ATOM
      1  CHA       35.1880   26.2640   16.8170 C.2    72  HEM72       0.0000
      2  CHB       38.7180   27.0240   13.6200 C.2    72  HEM72       0.0000
      3  CHC       35.5120   29.1290   10.6600 C.2    72  HEM72       0.0000
      4  CHD       32.5700   29.5780   14.4760 C.2    72  HEM72       0.0000
      5  C1A       36.3640   26.1950   16.1150 C.ar   72  HEM72       0.0000
      6  C2A       37.4530   25.3170   16.4570 C.ar   72  HEM72       0.0000
      7  C3A       38.4420   25.5180   15.5930 C.ar   72  HEM72       0.0000
      8  C4A       38.0010   26.5410   14.6660 C.ar   72  HEM72       0.0000
      9  CMA       39.8030   24.7780   15.5800 C.3    72  HEM72       0.0000
     10  CAA       37.4120   24.2700   17.5770 C.3    72  HEM72       0.0000
     11  CBA       36.6470   23.1240   16.8830 C.3    72  HEM72       0.0000
     12  CGA       37.0400   21.7300   17.3140 C.2    72  HEM72       0.0000
     13  O1A       37.8810   21.5400   18.2510 O.co2  72  HEM72       0.0000
     14  O2A       36.4680   20.7800   16.7120 O.co2  72  HEM72       0.0000
     15  C1B       38.1570   27.5950   12.4950 C.2    72  HEM72       0.0000
     16  C2B       38.8390   27.8800   11.2610 C.2    72  HEM72       0.0000
     17  C3B       37.9540   28.4600   10.4320 C.2    72  HEM72       0.0000
     18  C4B       36.6940   28.5700   11.1370 C.2    72  HEM72       0.0000
     19  CMB       40.3240   27.5280   11.0140 C.3    72  HEM72       0.0000
     20  CAB       38.1300   28.9440    8.9800 C.2    72  HEM72       0.0000
     21  CBB       38.5620   28.0470    8.0810 C.2    72  HEM72       0.0000
     22  C1C       34.4580   29.4770   11.4700 C.ar   72  HEM72       0.0000
     23  C2C       33.3310   30.3060   11.0790 C.ar   72  HEM72       0.0000
     24  C3C       32.5080   30.4200   12.1220 C.ar   72  HEM72       0.0000
     25  C4C       33.1000   29.6880   13.2210 C.ar   72  HEM72       0.0000
     26  CMC       33.1450   30.9370    9.6800 C.3    72  HEM72       0.0000
     27  CAC       31.1540   31.2180   12.1660 C.2    72  HEM72       0.0000
     28  CBC       30.2630   31.1070   11.1370 C.2    72  HEM72       0.0000
     29  C1D       32.9530   28.6940   15.4460 C.2    72  HEM72       0.0000
     30  C2D       32.1900   28.3640   16.6220 C.2    72  HEM72       0.0000
     31  C3D       32.9820   27.3120   17.3590 C.2    72  HEM72       0.0000
     32  C4D       34.1710   27.1300   16.5530 C.2    72  HEM72       0.0000
     33  CMD       30.8340   28.9020   17.0610 C.3    72  HEM72       0.0000
     34  CAD       32.5900   26.6260   18.6680 C.3    72  HEM72       0.0000
     35  CBD       31.4200   25.6770   18.4200 C.3    72  HEM72       0.0000
     36  CGD       31.7730   24.4670   17.5880 C.2    72  HEM72       0.0000
     37  O1D       32.8610   23.8660   17.6860 O.co2  72  HEM72       0.0000
     38  O2D       30.8920   24.0750   16.8180 O.co2  72  HEM72       0.0000
     39  NA        36.7200   26.9370   15.0020 N.ar   72  HEM72       0.0000
     40  NB        36.8560   28.0420   12.3810 N.2    72  HEM72       0.0000
     41  NC        34.2800   29.1090   12.8080 N.ar   72  HEM72       0.0000
     42  ND        34.0910   27.9440   15.4360 N.2    72  HEM72       0.0000
     43 FE         35.4650   27.9570   13.8920 Fe     72  HEM72       0.0000
@<TRIPOS>BOND
     1    21    20    2
     2    20    17    1
     3    26    23    1
     4    17    18    1
     5    17    16    2
     6     3    18    2
     7     3    22    1
     8    19    16    1
     9    23    22   ar
    10    23    24   ar
    11    18    40    1
    12    28    27    2
    13    16    15    1
    14    22    41   ar
    15    24    27    1
    16    24    25   ar
    17    40    15    2
    18    40    43    1
    19    15     2    1
    20    41    25   ar
    21    41    43    1
    22    25     4    1
    23     2     8    2
    24    43    39    1
    25    43    42    1
    26     4    29    2
    27     8    39   ar
    28     8     7   ar
    29    39     5   ar
    30    42    29    1
    31    42    32    2
    32    29    30    1
    33     9     7    1
    34     7     6   ar
    35     5     6   ar
    36     5     1    2
    37     6    10    1
    38    32     1    1
    39    32    31    1
    40    30    33    1
    41    30    31    2
    42    14    12   ar
    43    38    36   ar
    44    11    12    1
    45    11    10    1
    46    12    13   ar
    47    31    34    1
    48    36    37   ar
    49    36    35    1
    50    35    34    1
