@<TRIPOS>MOLECULE
4hc3_DXC_A_1.pdb
 28 31 0 0 0
SMALL
GASTEIGER

@<TRIPOS>ATOM
      1  C1        26.1820   32.2390   22.3030 C.3    75  DXC75       0.1520
      2  C2        26.0290   31.6320   20.8850 C.3    75  DXC75       0.0329
      3  C3        27.3450   30.8740   20.4910 C.3    75  DXC75       0.0025
      4  C4        28.5950   31.8020   20.5350 C.3    75  DXC75       0.0002
      5  C5        28.6900   32.4890   21.9100 C.3    75  DXC75       0.0026
      6  C6        27.3970   33.1720   22.3210 C.3    75  DXC75       0.0329
      7  C7        27.1930   30.1960   19.1060 C.3    75  DXC75       0.0001
      8  C8        27.1010   31.2640   17.9820 C.3    75  DXC75       0.0000
      9  C9        28.3520   32.2100   18.0390 C.3    75  DXC75       0.0002
     10  C10       28.5640   32.8400   19.4180 C.3    75  DXC75       0.0025
     11  C11       28.3170   33.2990   16.9730 C.3    75  DXC75       0.0024
     12  C12       29.6230   34.0970   16.8870 C.3    75  DXC75       0.0282
     13  C13       29.8520   34.7720   18.2460 C.3    75  DXC75       0.1519
     14  C14       29.8420   33.7410   19.4070 C.3    75  DXC75       0.0329
     15  C15       28.0800   32.8200   15.5240 C.3    75  DXC75       0.0001
     16  C16       28.6040   33.9940   14.6930 C.3    75  DXC75       0.0001
     17  C17       29.2380   35.0010   15.6740 C.3    75  DXC75       0.0024
     18  C18       29.8370   30.9450   20.4530 C.3    75  DXC75       0.0000
     19  C19       30.3850   35.7530   14.9460 C.3    75  DXC75       0.0006
     20  O1        28.8580   35.7350   18.5200 O.3    75  DXC75      -0.2232
     21  O2        25.0350   33.0400   22.6510 O.3    75  DXC75      -0.2232
     22  C20       30.8230   33.2120   16.5690 C.3    75  DXC75       0.0025
     23  C21       29.9030   36.4290   13.6490 C.3    75  DXC75       0.0118
     24  C22       28.7470   37.4130   13.8860 C.3    75  DXC75       0.1141
     25  C23       29.2800   38.8220   14.1960 C.2    75  DXC75       0.3649
     26  O3        29.9630   39.4340   13.3730 O.co2  75  DXC75      -0.2457
     27  O4        29.0270   39.3670   15.2700 O.co2  75  DXC75      -0.2457
     28  C24       31.0860   36.7700   15.8780 C.3    75  DXC75       0.0000
@<TRIPOS>BOND
     1    26    25   ar
     2    23    24    1
     3    23    19    1
     4    24    25    1
     5    25    27   ar
     6    16    15    1
     7    16    17    1
     8    19    17    1
     9    19    28    1
    10    15    11    1
    11    17    12    1
    12    22    12    1
    13    12    11    1
    14    12    13    1
    15    11     9    1
    16     8     9    1
    17     8     7    1
    18     9    10    1
    19    13    20    1
    20    13    14    1
    21     7     3    1
    22    14    10    1
    23    10     4    1
    24    18     4    1
    25     3     4    1
    26     3     2    1
    27     4     5    1
    28     2     1    1
    29     5     6    1
    30     1     6    1
    31     1    21    1
