@<TRIPOS>MOLECULE
4hc4_SAH_A_1.pdb
 26 28 0 0 0
SMALL
GASTEIGER

@<TRIPOS>ATOM
      1  N         20.3110   58.8760    5.2720 N.3   401  SAH401     -0.1208
      2  CA        18.8550   58.9650    5.6080 C.3   401  SAH401      0.1952
      3  CB        18.0050   58.1940    4.5700 C.3   401  SAH401      0.0422
      4  CG        18.2420   56.6800    4.4680 C.3   401  SAH401      0.0597
      5  SD        17.0720   55.9550    3.3310 S.3   401  SAH401     -0.1375
      6  C         18.6610   58.4630    7.0140 C.2   401  SAH401      0.3819
      7  O         19.5050   57.7030    7.5030 O.co2 401  SAH401     -0.2441
      8  OXT       17.6790   58.7810    7.7050 O.co2 401  SAH401     -0.2441
      9  C5'       18.0150   55.8990    1.8340 C.3   401  SAH401      0.0899
     10  C4'       17.8180   57.1190    0.9300 C.3   401  SAH401      0.1630
     11  O4'       18.6820   56.9880   -0.2010 O.3   401  SAH401     -0.3153
     12  C3'       16.4170   57.2800    0.3460 C.3   401  SAH401      0.2168
     13  O3'       16.0270   58.6300    0.6350 O.3   401  SAH401     -0.2175
     14  C2'       16.5800   57.0690   -1.1600 C.3   401  SAH401      0.2569
     15  O2'       15.8050   57.9600   -1.9590 O.3   401  SAH401     -0.2130
     16  C1'       18.0300   57.4410   -1.3870 C.3   401  SAH401      0.3185
     17  N9        18.6960   56.7500   -2.5100 N.pl3 401  SAH401     -0.1439
     18  C8        18.4920   55.4820   -2.9130 C.3   401  SAH401      0.3377
     19  N7        19.3270   55.1700   -3.9430 N.2   401  SAH401     -0.2095
     20  C5        20.0810   56.2520   -4.1880 C.2   401  SAH401      0.2526
     21  C6        21.1480   56.6130   -5.1410 C.2   401  SAH401      0.4393
     22  N6        21.5870   55.7160   -6.0500 N.pl3 401  SAH401      0.2180
     23  N1        21.6730   57.8530   -5.0600 N.2   401  SAH401      0.0021
     24  C2        21.2460   58.7560   -4.1610 C.3   401  SAH401      0.5254
     25  N3        20.2760   58.4890   -3.2740 N.2   401  SAH401     -0.0055
     26  C4        19.6700   57.2830   -3.2370 C.2   401  SAH401      0.3518
@<TRIPOS>BOND
     1    22    21    1
     2    21    23    2
     3    21    20    1
     4    23    24    1
     5    20    19    2
     6    20    26    1
     7    24    25    1
     8    19    18    1
     9    25    26    2
    10    26    17    1
    11    18    17    1
    12    17    16    1
    13    15    14    1
    14    16    14    1
    15    16    11    1
    16    14    12    1
    17    11    10    1
    18    12    13    1
    19    12    10    1
    20    10     9    1
    21     9     5    1
    22     5     4    1
    23     4     3    1
    24     3     2    1
    25     1     2    1
    26     2     6    1
    27     6     7   ar
    28     6     8   ar
