@<TRIPOS>MOLECULE
4hcl_LLH_A_1.pdb
 13 12 0 0 0
SMALL
GASTEIGER

@<TRIPOS>ATOM
      1  O5A       21.4940   22.0800   16.7510 O.co2 403  LLH403     -0.2427
      2  C5        21.2030   23.2760   17.0120 C.2   403  LLH403      0.3973
      3  O5B       22.0340   24.2250   17.1420 O.co2 403  LLH403     -0.2427
      4  C4        19.7170   23.6110   17.2060 C.3   403  LLH403      0.2868
      5  O4        18.9480   22.4410   16.9400 O.3   403  LLH403     -0.2080
      6  C3        19.2890   24.8000   16.3300 C.3   403  LLH403      0.2296
      7  O3        19.2900   24.4350   14.9270 O.3   403  LLH403     -0.2166
      8  C2        17.8960   25.3890   16.7230 C.3   403  LLH403      0.2297
      9  O2        17.7640   26.6610   16.0670 O.3   403  LLH403     -0.2134
     10  C1        16.6620   24.4980   16.4220 C.2   403  LLH403      0.1201
     11  O1        16.7460   23.4210   15.8150 O.2   403  LLH403     -0.5373
     12  N         15.4870   24.9930   16.8880 N.am  403  LLH403     -0.2003
     13  ON        14.2920   24.3140   16.7260 O.3   403  LLH403     -0.4026
@<TRIPOS>BOND
     1     7     6    1
     2    11    10    2
     3     9     8    1
     4     6     8    1
     5     6     4    1
     6    10     8    1
     7    10    12   am
     8    13    12    1
     9     1     2   ar
    10     5     4    1
    11     2     3   ar
    12     2     4    1
