@<TRIPOS>MOLECULE
4hco_IMW_A_1.pdb
 12 12 0 0 0
SMALL
GASTEIGER

@<TRIPOS>ATOM
      1  CAA       -3.0530  -12.8610   -2.1730 C.2   702  IMW702      0.0202
      2  CAB       -4.1960  -12.4230   -2.6760 C.2   702  IMW702      0.0406
      3  CAC       -4.2320  -11.9330   -3.9060 C.2   702  IMW702      0.1916
      4  CAD       -3.0280  -11.8110   -4.6920 C.2   702  IMW702      0.0196
      5  CAE       -1.8650  -12.2230   -4.1930 C.2   702  IMW702      0.0406
      6  CAF       -1.8270  -12.7490   -2.9700 C.2   702  IMW702      0.1916
      7  CAG       -3.1400  -13.4360   -0.7900 C.3   702  IMW702      0.0345
      8  CAH       -2.9760  -11.2670   -6.0180 C.3   702  IMW702      0.0256
      9  CAI       -3.3110   -9.8040   -5.9610 C.3   702  IMW702      0.0048
     10  OAJ       -0.7110  -13.0980   -2.5630 O.2   702  IMW702     -0.2869
     11  OAK       -5.3120  -11.5790   -4.3070 O.2   702  IMW702     -0.2869
     12  CAL       -3.9330  -12.0680   -6.8210 C.3   702  IMW702      0.0048
@<TRIPOS>BOND
     1    12     8    1
     2     8     9    1
     3     8     4    1
     4     4     5    2
     5     4     3    1
     6    11     3    2
     7     5     6    1
     8     3     2    1
     9     6    10    2
    10     6     1    1
    11     2     1    2
    12     1     7    1
