@<TRIPOS>MOLECULE
4hct_18R_A_1.pdb
 39 43 0 0 0
SMALL
GASTEIGER

@<TRIPOS>ATOM
      1  C1         1.5640   10.0490   18.3050 C.2   701  18R701      0.2690
      2  N1         1.2040   10.4710   17.0690 N.am  701  18R701     -0.1755
      3  O1         1.8890   10.8260   19.1990 O.2   701  18R701     -0.2680
      4  N2         8.1800    5.1210   21.8490 N.am  701  18R701     -0.2719
      5  C2         8.8560    4.0280   22.2600 C.2   701  18R701      0.2493
      6  O2         8.2570    3.0420   22.7080 O.2   701  18R701     -0.2699
      7  C3         6.0760    5.9730   22.5970 C.3   701  18R701      0.2070
      8  C4         6.6020    7.4120   22.5920 C.3   701  18R701      0.0526
      9  C5         8.1340    7.4470   22.6120 C.3   701  18R701      0.0258
     10  C6         8.7090    6.4660   21.5870 C.3   701  18R701      0.0940
     11  C7         6.7480    5.1060   21.5570 C.3   701  18R701      0.1425
     12  N3         1.6560    3.6670   23.7580 N.2   701  18R701     -0.0027
     13  C8         2.8920    3.5690   24.2650 C.3   701  18R701      0.5248
     14  N4         3.9830    4.2620   23.9220 N.2   701  18R701     -0.0088
     15  C9         1.4410    4.5330   22.7430 C.2   701  18R701      0.4081
     16  N5         4.6340    5.9180   22.2700 N.pl3 701  18R701     -0.0821
     17  N6         4.1020    6.6440   21.2400 N.2   701  18R701     -0.0913
     18  C10        2.7890    6.2630   21.1950 C.2   701  18R701      0.1226
     19  C11        2.5300    5.3270   22.2300 C.3   701  18R701      0.2639
     20  C12        3.7460    5.1100   22.9070 C.2   701  18R701      0.3405
     21  N7         0.1970    4.6510   22.2500 N.pl3 701  18R701      0.2118
     22  C13        1.8870    6.7900   20.1340 C.ar  701  18R701      0.0183
     23  C14        1.9960    8.1250   19.7630 C.ar  701  18R701      0.0059
     24  C15        1.3790    8.5990   18.6080 C.ar  701  18R701      0.0554
     25  C16        0.5260    7.7530   17.9010 C.ar  701  18R701      0.0046
     26  C17        0.3260    6.4460   18.3280 C.ar  701  18R701      0.0002
     27  C18        1.0360    5.9480   19.4140 C.ar  701  18R701      0.0013
     28  C19       10.3410    4.0570   22.2370 C.2   701  18R701      0.0580
     29  C20       11.0070    3.6020   21.1970 C.2   701  18R701      0.0048
     30  C21        1.8390   13.5460   15.0090 C.ar  701  18R701     -0.0215
     31  C22        1.9080   12.2240   15.4630 C.ar  701  18R701      0.0123
     32  C23        1.0480   14.4500   15.7160 C.ar  701  18R701     -0.0042
     33  C24        2.5870   14.0110   13.7470 C.3   701  18R701      0.0190
     34  C25        1.2020   11.8160   16.5960 C.ar  701  18R701      0.0734
     35  C26        0.3410   14.0480   16.8420 C.ar  701  18R701      0.0010
     36  C27        3.7260   14.9750   14.1100 C.3   701  18R701      0.0044
     37  C28        3.1960   12.8440   12.9650 C.3   701  18R701      0.0044
     38  C29        1.6380   14.7640   12.7890 C.3   701  18R701      0.0044
     39  C30        0.4180   12.7350   17.2850 C.ar  701  18R701      0.0166
@<TRIPOS>BOND
     1    38    33    1
     2    37    33    1
     3    33    36    1
     4    33    30    1
     5    30    31   ar
     6    30    32   ar
     7    31    34   ar
     8    32    35   ar
     9    34     2    1
    10    34    39   ar
    11    35    39   ar
    12     2     1   am
    13    25    26   ar
    14    25    24   ar
    15     1    24    1
    16     1     3    2
    17    26    27   ar
    18    24    23   ar
    19    27    22   ar
    20    23    22   ar
    21    22    18    1
    22    18    17    2
    23    18    19    1
    24    29    28    2
    25    17    16    1
    26    11     4    1
    27    11     7    1
    28    10     4    1
    29    10     9    1
    30     4     5   am
    31    19    15    1
    32    19    20    1
    33    28     5    1
    34    21    15    1
    35     5     6    2
    36    16     7    1
    37    16    20    1
    38     8     7    1
    39     8     9    1
    40    15    12    2
    41    20    14    2
    42    12    13    1
    43    14    13    1
