@<TRIPOS>MOLECULE
4hcu_13L_A_1.pdb
 38 42 0 0 0
SMALL
GASTEIGER

@<TRIPOS>ATOM
      1  C4         2.5820   12.7000   14.5140 C.ar  701  13L701     -0.0029
      2  C7         1.1250   12.6940   16.8370 C.ar  701  13L701      0.0163
      3  C6         2.3680   11.5080   15.1830 C.ar  701  13L701      0.0163
      4  C9         2.9790    3.6170   24.3990 C.3   701  13L701      0.5248
      5  C13        2.0650   13.8890   14.9860 C.ar  701  13L701     -0.0224
      6  C20        8.2330    7.4920   22.5780 C.3   701  13L701      0.0258
      7  C21        6.6990    7.4800   22.5790 C.3   701  13L701      0.0526
      8  C8         2.1510    8.1210   19.8590 C.ar  701  13L701      0.0059
      9  C18        1.6180   10.0100   18.3510 C.2   701  13L701      0.2690
     10  C16        3.8290    5.1350   23.0170 C.2   701  13L701      0.3405
     11  C19        8.9070    4.1390   22.3990 C.2   701  13L701      0.2257
     12  C26        2.5360   16.3920   14.9790 C.3   701  13L701      0.0047
     13  C1         0.3590    6.4760   18.5380 C.ar  701  13L701      0.0002
     14  C2         1.1050    5.9950   19.6010 C.ar  701  13L701      0.0013
     15  C3         0.5240    7.7810   18.1090 C.ar  701  13L701      0.0046
     16  C5         1.3330   13.8820   16.1580 C.ar  701  13L701     -0.0029
     17  C10        2.6080    5.3440   22.3970 C.3   701  13L701      0.2639
     18  C11        1.9990    6.8140   20.2930 C.ar  701  13L701      0.0183
     19  C12        1.4130    8.6100   18.7890 C.ar  701  13L701      0.0554
     20  C14        1.6380   11.5080   16.3540 C.ar  701  13L701      0.0737
     21  C15        2.8580    6.2970   21.3630 C.2   701  13L701      0.1226
     22  C17        1.5300    4.5970   22.8880 C.2   701  13L701      0.4081
     23  C22        8.7700    6.5140   21.5360 C.3   701  13L701      0.0937
     24  C23        6.7930    5.1050   21.6630 C.3   701  13L701      0.1422
     25  C24        6.1440    6.0600   22.6670 C.3   701  13L701      0.2070
     26  C25       10.9520    3.6560   21.0660 C.3   701  13L701      0.0101
     27  C27        1.3150   15.3300   13.0660 C.3   701  13L701      0.0047
     28  C28       10.4080    4.2280   22.3560 C.3   701  13L701      0.0853
     29  C29        2.3480   15.1300   14.1720 C.3   701  13L701      0.0224
     30  N30        4.0760    4.3110   24.0410 N.2   701  13L701     -0.0088
     31  N31        1.7360    3.7340   23.8980 N.2   701  13L701     -0.0027
     32  N32        4.1440    6.6910   21.3960 N.2   701  13L701     -0.0913
     33  N33        4.7040    5.9980   22.4160 N.pl3 701  13L701     -0.0821
     34  N34        8.2330    5.1820   21.7840 N.am  701  13L701     -0.2754
     35  N35        0.2480    4.7100   22.3490 N.pl3 701  13L701      0.2118
     36  N36        1.4170   10.2640   17.0190 N.am  701  13L701     -0.1754
     37  O37        1.9650   10.8780   19.1400 O.2   701  13L701     -0.2680
     38  O38        8.3780    3.1790   22.9650 O.2   701  13L701     -0.2749
@<TRIPOS>BOND
     1    27    29    1
     2    29    12    1
     3    29     5    1
     4     1     5   ar
     5     1     3   ar
     6     5    16   ar
     7     3    20   ar
     8    16     2   ar
     9    20     2   ar
    10    20    36    1
    11    36     9   am
    12    15    13   ar
    13    15    19   ar
    14     9    19    1
    15     9    37    2
    16    13    14   ar
    17    19     8   ar
    18    14    18   ar
    19     8    18   ar
    20    18    21    1
    21    26    28    1
    22    21    32    2
    23    21    17    1
    24    32    33    1
    25    23    34    1
    26    23     6    1
    27    24    34    1
    28    24    25    1
    29    34    11   am
    30    35    22    1
    31    28    11    1
    32    17    22    1
    33    17    10    1
    34    11    38    2
    35    33    25    1
    36    33    10    1
    37     6     7    1
    38     7    25    1
    39    22    31    2
    40    10    30    2
    41    31     4    1
    42    30     4    1
