@<TRIPOS>MOLECULE
4hcv_13J_A_1.pdb
 38 42 0 0 0
SMALL
GASTEIGER

@<TRIPOS>ATOM
      1  C4         1.4130   13.3960   15.8870 C.ar  701  13J701     -0.0029
      2  C7         2.6330   11.1520   14.8420 C.ar  701  13J701      0.0163
      3  C6         1.2940   12.1960   16.5490 C.ar  701  13J701      0.0163
      4  C9         4.3160    3.5200   24.0750 C.3   701  13J701      0.5248
      5  C13        2.1220   13.4840   14.7090 C.ar  701  13J701     -0.0224
      6  C20        9.1760    6.5190   23.3530 C.3   701  13J701      0.0258
      7  C21        7.6620    6.3900   23.3190 C.3   701  13J701      0.0526
      8  C8         2.8670    7.8350   19.5020 C.ar  701  13J701      0.0059
      9  C18        2.1310    9.6470   18.0060 C.2   701  13J701      0.2690
     10  C16        4.9300    5.0080   22.5590 C.2   701  13J701      0.3405
     11  C19       10.2790    5.4980   20.4080 C.2   701  13J701      0.2257
     12  C26        1.4850   14.8310   12.6790 C.3   701  13J701      0.0047
     13  C1         1.0250    6.1000   18.3830 C.ar  701  13J701      0.0002
     14  C2         1.8970    5.6660   19.3660 C.ar  701  13J701      0.0013
     15  C3         1.0950    7.4010   17.9170 C.ar  701  13J701      0.0046
     16  C5         2.7330   12.3610   14.1700 C.ar  701  13J701     -0.0029
     17  C10        3.6570    5.1100   22.0280 C.3   701  13J701      0.2639
     18  C11        2.8220    6.5170   19.9510 C.ar  701  13J701      0.0183
     19  C12        2.0120    8.2680   18.4960 C.ar  701  13J701      0.0554
     20  C14        1.9200   11.0780   16.0250 C.ar  701  13J701      0.0737
     21  C15        3.7650    6.0390   20.9490 C.2   701  13J701      0.1226
     22  C17        2.6870    4.3130   22.6240 C.2   701  13J701      0.4081
     23  C22        9.8270    5.2880   22.7580 C.3   701  13J701      0.0937
     24  C23        7.9340    4.9380   21.2440 C.3   701  13J701      0.1422
     25  C24        7.1560    6.0800   21.9110 C.3   701  13J701      0.2070
     26  C25       10.8060    4.2690   18.4420 C.3   701  13J701      0.0101
     27  C27        3.3510   15.6550   14.1860 C.3   701  13J701      0.0047
     28  C28        9.8170    5.2880   19.0050 C.3   701  13J701      0.0853
     29  C29        2.1020   14.8330   14.0620 C.3   701  13J701      0.0224
     30  N30        5.3350    4.2210   23.5710 N.2   701  13J701     -0.0088
     31  N31        3.0380    3.5230   23.6600 N.2   701  13J701     -0.0027
     32  N32        5.0280    6.4630   20.8630 N.2   701  13J701     -0.0913
     33  N33        5.7220    5.8540   21.8370 N.pl3 701  13J701     -0.0821
     34  N34        9.3770    5.1410   21.3980 N.am  701  13J701     -0.2754
     35  N35        1.3510    4.3400   22.2320 N.pl3 701  13J701      0.2118
     36  N36        1.7860    9.8410   16.6920 N.am  701  13J701     -0.1754
     37  O37        2.5370   10.5290   18.7500 O.2   701  13J701     -0.2680
     38  O38       11.4210    5.9110   20.6140 O.2   701  13J701     -0.2749
@<TRIPOS>BOND
     1    12    29    1
     2    29    27    1
     3    29     5    1
     4    16     5   ar
     5    16     2   ar
     6     5     1   ar
     7     2    20   ar
     8     1     3   ar
     9    20     3   ar
    10    20    36    1
    11    36     9   am
    12    15    13   ar
    13    15    19   ar
    14     9    19    1
    15     9    37    2
    16    13    14   ar
    17    26    28    1
    18    19     8   ar
    19    28    11    1
    20    14    18   ar
    21     8    18   ar
    22    18    21    1
    23    11    38    2
    24    11    34   am
    25    32    21    2
    26    32    33    1
    27    21    17    1
    28    24    34    1
    29    24    25    1
    30    34    23    1
    31    33    25    1
    32    33    10    1
    33    25     7    1
    34    17    10    1
    35    17    22    1
    36    35    22    1
    37    10    30    2
    38    22    31    2
    39    23     6    1
    40     7     6    1
    41    30     4    1
    42    31     4    1
