@<TRIPOS>MOLECULE
4hcx_NAP_A_1.pdb
 48 52 0 0 0
SMALL
GASTEIGER

@<TRIPOS>ATOM
      1  PA       -17.8830  -25.5960    3.9990 P.3   502  NAP502      0.2189
      2  O1A      -17.3030  -26.0450    5.3510 O.3   502  NAP502     -0.4371
      3  O2A      -16.8360  -25.9250    2.9180 O.2   502  NAP502     -0.5170
      4  O5B      -18.3050  -24.0690    4.1100 O.3   502  NAP502     -0.3112
      5  C5B      -19.6140  -23.8580    4.5700 C.3   502  NAP502      0.1813
      6  C4B      -19.8320  -22.3720    4.7470 C.3   502  NAP502      0.1820
      7  O4B      -18.9350  -21.9380    5.7750 O.3   502  NAP502     -0.3136
      8  C3B      -19.5800  -21.6350    3.4640 C.3   502  NAP502      0.2157
      9  O3B      -20.6370  -21.6780    2.6070 O.3   502  NAP502     -0.2175
     10  C2B      -19.1490  -20.2710    4.0530 C.3   502  NAP502      0.2314
     11  O2B      -20.1580  -19.3080    4.5100 O.3   502  NAP502     -0.2630
     12  C1B      -18.3170  -20.7580    5.2710 C.3   502  NAP502      0.3158
     13  N9A      -16.9300  -20.9350    4.9750 N.pl3 502  NAP502     -0.1439
     14  C8A      -16.2370  -22.0780    5.1020 C.3   502  NAP502      0.3377
     15  N7A      -14.9690  -21.8920    4.7640 N.2   502  NAP502     -0.2095
     16  C5A      -14.8150  -20.6210    4.4090 C.2   502  NAP502      0.2526
     17  C6A      -13.7420  -19.8840    3.9860 C.2   502  NAP502      0.4393
     18  N6A      -12.4830  -20.5180    3.8190 N.pl3 502  NAP502      0.2180
     19  N1A      -13.8840  -18.5790    3.7530 N.2   502  NAP502      0.0021
     20  C2A      -15.0920  -17.9670    3.8400 C.3   502  NAP502      0.5254
     21  N3A      -16.1710  -18.6650    4.2580 N.2   502  NAP502     -0.0055
     22  C4A      -16.0580  -19.9730    4.5420 C.2   502  NAP502      0.3518
     23  O3       -19.2080  -26.1760    3.4150 O.3   502  NAP502     -0.2703
     24  PN       -19.7250  -27.6180    3.4580 P.3   502  NAP502      0.2189
     25  O1N      -19.5990  -27.9850    4.9320 O.3   502  NAP502     -0.4371
     26  O2N      -21.1570  -27.6290    2.9990 O.2   502  NAP502     -0.5170
     27  O5D      -18.7850  -28.5520    2.5300 O.3   502  NAP502     -0.3112
     28  C5D      -18.9320  -28.7390    1.1380 C.3   502  NAP502      0.1813
     29  C4D      -18.1430  -29.9900    0.7720 C.3   502  NAP502      0.1799
     30  O4D      -16.8760  -29.9510    1.4110 O.3   502  NAP502     -0.3327
     31  C3D      -18.8520  -31.3190    1.0590 C.3   502  NAP502      0.2158
     32  O3D      -18.7940  -32.1390   -0.0870 O.3   502  NAP502     -0.2175
     33  C2D      -18.0990  -31.9930    2.1250 C.3   502  NAP502      0.2309
     34  O2D      -17.9020  -33.3190    1.8790 O.3   502  NAP502     -0.2158
     35  C1D      -16.7130  -31.2840    2.0210 C.3   502  NAP502      0.2263
     36  N1N      -15.8650  -31.2340    3.2840 N.pl3 502  NAP502     -0.2787
     37  C2N      -14.5340  -31.5230    3.0910 C.3   502  NAP502      0.1244
     38  C3N      -13.6820  -31.4600    4.2050 C.2   502  NAP502      0.0544
     39  C7N      -12.2070  -31.7980    3.9540 C.2   502  NAP502      0.2818
     40  O7N      -11.4310  -31.5580    4.8800 O.2   502  NAP502     -0.2670
     41  N7N      -11.7200  -32.3210    2.6820 N.am  502  NAP502     -0.0839
     42  C4N      -14.1680  -31.0870    5.4850 C.2   502  NAP502      0.0033
     43  C5N      -15.5170  -30.7520    5.6580 C.2   502  NAP502      0.0157
     44  C6N      -16.3700  -30.8340    4.5180 C.2   502  NAP502      0.0633
     45  P2B      -21.2520  -18.6180    3.6210 P.3   502  NAP502      0.5328
     46  O1X      -22.2370  -18.0250    4.6260 O.3   502  NAP502     -0.1145
     47  O2X      -20.4940  -17.6390    2.7650 O.3   502  NAP502     -0.1145
     48  O3X      -22.0460  -19.5360    2.7330 O.2   502  NAP502     -0.2224
@<TRIPOS>BOND
     1    32    31    1
     2    29    31    1
     3    29    28    1
     4    29    30    1
     5    31    33    1
     6    28    27    1
     7    30    35    1
     8    34    33    1
     9    35    33    1
    10    35    36    1
    11    27    24    1
    12     9     8    1
    13    41    39   am
    14    48    45    2
    15    47    45    1
    16     3     1    2
    17    26    24    2
    18    37    36    1
    19    37    38    1
    20    36    44    1
    21    23    24    1
    22    23     1    1
    23    24    25    1
    24     8    10    1
    25     8     6    1
    26    45    11    1
    27    45    46    1
    28    19    20    1
    29    19    17    2
    30    18    17    1
    31    20    21    1
    32    39    38    1
    33    39    40    2
    34    17    16    1
    35     1     4    1
    36     1     2    1
    37    10    11    1
    38    10    12    1
    39     4     5    1
    40    38    42    2
    41    21    22    2
    42    16    22    1
    43    16    15    2
    44    44    43    2
    45    22    13    1
    46     5     6    1
    47     6     7    1
    48    15    14    1
    49    13    14    1
    50    13    12    1
    51    12     7    1
    52    42    43    1
