@<TRIPOS>MOLECULE
4hd8_PIT_A_1.pdb
 18 19 0 0 0
SMALL
GASTEIGER

@<TRIPOS>ATOM
      1  C1        21.1160   24.9970   23.9950 C.ar  402  PIT402      0.1986
      2  C2        20.1020   25.5720   24.7770 C.ar  402  PIT402      0.0840
      3  C3        19.5320   26.8310   24.5000 C.ar  402  PIT402      0.1986
      4  C4        20.0190   27.5300   23.3880 C.ar  402  PIT402      0.0380
      5  C5        21.0150   26.9620   22.5900 C.ar  402  PIT402     -0.0155
      6  C6        21.5740   25.7140   22.8910 C.ar  402  PIT402      0.0380
      7  C7        21.5440   27.6500   21.3880 C.3   402  PIT402      0.0312
      8  C8        22.5260   26.9820   20.7720 C.3   402  PIT402      0.0311
      9  C9        23.0910   27.6000   19.5720 C.ar  402  PIT402     -0.0185
     10  C10       24.1580   26.9860   18.9160 C.ar  402  PIT402      0.0411
     11  C11       24.6610   27.6000   17.7640 C.ar  402  PIT402      0.2339
     12  C12       24.0080   28.8690   17.2820 C.ar  402  PIT402      0.2342
     13  C13       22.9290   29.4110   17.9690 C.ar  402  PIT402      0.0451
     14  C14       22.4820   28.7760   19.1160 C.ar  402  PIT402     -0.0008
     15  O1        24.4550   29.5250   16.1680 O.3   402  PIT402     -0.2831
     16  O2        18.5130   27.3570   25.2870 O.3   402  PIT402     -0.2865
     17  O3        21.6640   23.7710   24.2870 O.3   402  PIT402     -0.2865
     18  OAD       25.7260   27.0340   17.0980 O.3   402  PIT402     -0.2832
@<TRIPOS>BOND
     1    15    12    1
     2    18    11    1
     3    12    11   ar
     4    12    13   ar
     5    11    10   ar
     6    13    14   ar
     7    10     9   ar
     8    14     9   ar
     9     9     8    1
    10     8     7    1
    11     7     5    1
    12     5     6   ar
    13     5     4   ar
    14     6     1   ar
    15     4     3   ar
    16     1    17    1
    17     1     2   ar
    18     3     2   ar
    19     3    16    1
