@<TRIPOS>MOLECULE
4hda_STL_B_1.pdb
 17 18 0 0 0
SMALL
GASTEIGER

@<TRIPOS>ATOM
      1  C1         1.7180   26.2360   15.8510 C.ar  402  STL402      0.1989
      2  C2         1.2460   26.5510   17.1180 C.ar  402  STL402      0.0840
      3  C3         0.3200   25.7230   17.7430 C.ar  402  STL402      0.1989
      4  C4        -0.1310   24.5770   17.0960 C.ar  402  STL402      0.0422
      5  C5         0.4150   24.2360   15.8540 C.ar  402  STL402      0.0064
      6  C6         1.2200   25.1310   15.1890 C.ar  402  STL402      0.0422
      7  C7        -0.0700   23.1480   15.1560 C.2   402  STL402      0.0002
      8  C8        -0.0800   23.1100   13.6350 C.2   402  STL402      0.0000
      9  C9        -0.5680   21.9460   13.0840 C.ar  402  STL402      0.0002
     10  C10       -1.4310   22.0510   12.0290 C.ar  402  STL402      0.0033
     11  C11       -1.9670   20.9400   11.4200 C.ar  402  STL402      0.0420
     12  C12       -1.3880   19.7090   11.6650 C.ar  402  STL402      0.1957
     13  C13       -0.3460   19.5980   12.5810 C.ar  402  STL402      0.0420
     14  C14        0.1040   20.7320   13.2580 C.ar  402  STL402      0.0033
     15  O1        -1.8440   18.6230   10.9920 O.3   402  STL402     -0.2866
     16  O2        -0.1350   26.0370   18.9870 O.3   402  STL402     -0.2865
     17  O3         2.6200   27.0400   15.2290 O.3   402  STL402     -0.2865
@<TRIPOS>BOND
     1    15    12    1
     2    11    12   ar
     3    11    10   ar
     4    12    13   ar
     5    10     9   ar
     6    13    14   ar
     7     9    14   ar
     8     9     8    1
     9     8     7    2
    10     7     5    1
    11     6     1   ar
    12     6     5   ar
    13    17     1    1
    14     1     2   ar
    15     5     4   ar
    16     4     3   ar
    17     2     3   ar
    18     3    16    1
