@<TRIPOS>MOLECULE
4hda_III_F_1.pdb
 44 46 0 0 0
SMALL
GASTEIGER

@<TRIPOS>ATOM
      1  N         11.9590   16.2070    3.4560 N.3     2  HIS2       -0.1227
      2  CA        11.0890   15.2380    2.7970 C.3     2  HIS2        0.1749
      3  C          9.6410   15.3850    3.2160 C.2     2  HIS2        0.2596
      4  O          9.1180   14.4310    3.7380 O.2     2  HIS2       -0.2718
      5  CB        11.5230   13.8130    3.1590 C.3     2  HIS2        0.0718
      6  CG        10.7430   12.7260    2.4740 C.2     2  HIS2        0.0650
      7  ND1       11.3430   11.8100    1.6410 N.2     2  HIS2       -0.2310
      8  CD2        9.4320   12.3860    2.5200 C.3     2  HIS2        0.1683
      9  CE1       10.4340   10.9680    1.1820 C.2     2  HIS2        0.1939
     10  NE2        9.2670   11.2940    1.6990 N.2     2  HIS2       -0.2440
     11  N          8.9980   16.5360    3.0010 N.am    3  LYS3       -0.1966
     12  CA         7.5830   16.7290    3.3790 C.3     3  LYS3        0.1728
     13  C          7.3760   18.1240    3.9590 C.2     3  LYS3        0.2616
     14  O          8.1990   18.9950    3.7150 O.2     3  LYS3       -0.2715
     15  CB         7.1270   15.6910    4.3920 C.3     3  LYS3        0.0311
     16  CG         5.7480   15.1700    4.1590 C.3     3  LYS3        0.0038
     17  CD         5.0100   16.0760    3.2230 C.3     3  LYS3        0.0206
     18  CE         3.5900   16.3040    3.6640 C.3     3  LYS3        0.1093
     19  NZ         2.6230   15.5410    2.8370 N.3     3  LYS3       -0.1314
     20  CAL        3.4420   22.9310   12.5490 C.3     4  LYS4        0.0313
     21  CAD        3.7500   21.5880   12.3500 C.ar    4  LYS4       -0.0125
     22  CAC        3.5750   20.6790   13.3840 C.ar    4  LYS4        0.0781
     23  CAB        3.8820   19.3340   13.1910 C.ar    4  LYS4        0.3456
     24  OAK        3.6680   18.5520   14.1170 O.2     4  LYS4       -0.2445
     25  OAA        4.3570   18.9010   11.9990 O.2     4  LYS4       -0.4210
     26  CAF        4.5310   19.7720   10.9770 C.ar    4  LYS4        0.1497
     27  CAG        5.0520   19.2770    9.8010 C.ar    4  LYS4        0.0542
     28  CAE        4.2290   21.1240   11.1300 C.ar    4  LYS4        0.0310
     29  CAH        4.4310   21.9660   10.0380 C.ar    4  LYS4        0.0041
     30  CAI        4.8990   21.4280    8.8300 C.ar    4  LYS4        0.0168
     31  CAJ        5.0940   20.0460    8.6640 C.ar    4  LYS4        0.0765
     32  NAM        5.6740   19.4970    7.5890 N.am    4  LYS4       -0.1777
     33  C          5.6840   20.2610    6.5250 C.2     4  LYS4        0.2654
     34  O          4.8400   21.1520    6.4650 O.2     4  LYS4       -0.2711
     35  CA         6.3160   19.7900    5.1870 C.3     4  LYS4        0.1731
     36  N          6.3150   18.3980    4.7350 N.am    4  LYS4       -0.1963
     37  CB         5.6400   20.6440    4.1600 C.3     4  LYS4        0.0312
     38  CAS        5.9720   22.0000    4.7090 C.3     4  LYS4        0.0041
     39  CAT        5.2340   23.0270    3.9290 C.3     4  LYS4        0.0235
     40  CAU        5.5020   24.3310    4.6330 C.3     4  LYS4        0.1151
     41  NAV        4.7620   25.3570    3.9180 N.am    4  LYS4       -0.2054
     42  CAW        5.1880   26.6100    3.9460 C.2     4  LYS4        0.2419
     43  OAY        6.1840   26.9630    4.5730 O.2     4  LYS4       -0.2733
     44  CAX        4.3340   27.5990    3.1600 C.3     4  LYS4        0.0964
@<TRIPOS>BOND
     1     9     7    1
     2     9    10    2
     3     7     6    2
     4    10     8    1
     5     6     8    1
     6     6     5    1
     7     2     5    1
     8     2     3    1
     9     2     1    1
    10    19    18    1
    11    11     3   am
    12    11    12    1
    13    44    42    1
    14     3     4    2
    15    17    18    1
    16    17    16    1
    17    12    13    1
    18    12    15    1
    19    14    13    2
    20    41    42   am
    21    41    40    1
    22    39    40    1
    23    39    38    1
    24    42    43    2
    25    13    36   am
    26    16    15    1
    27    37    38    1
    28    37    35    1
    29    36    35    1
    30    35    33    1
    31    34    33    2
    32    33    32   am
    33    32    31    1
    34    31    30   ar
    35    31    27   ar
    36    30    29   ar
    37    27    26   ar
    38    29    28   ar
    39    26    28   ar
    40    26    25   ar
    41    28    21   ar
    42    25    23   ar
    43    21    20    1
    44    21    22   ar
    45    23    22   ar
    46    23    24    2
