@<TRIPOS>MOLECULE
4hdc_13Y_A_1.pdb
 37 40 0 0 0
SMALL
GASTEIGER

@<TRIPOS>ATOM
      1  C2        18.6210   -0.5640    2.4550 C.ar  301  13Y301      0.0607
      2  C4        16.8940   -1.8970    3.4450 C.ar  301  13Y301      0.0040
      3  C5        16.7960   -0.9630    4.4750 C.ar  301  13Y301      0.0375
      4  C6        17.6020    0.1850    4.4920 C.ar  301  13Y301      0.1461
      5 CL1        19.6990   -0.2680    1.1600 Cl    301  13Y301     -0.0821
      6  C3        17.8290   -1.7120    2.4440 C.ar  301  13Y301      0.0116
      7  C7        18.5180    0.3980    3.4600 C.ar  301  13Y301      0.0489
      8  O8        17.5220    1.1250    5.5080 O.3   301  13Y301     -0.4533
      9  C9        16.3780    1.3980    6.1830 C.ar  301  13Y301      0.1513
     10  C10       16.2260    1.0600    7.5540 C.ar  301  13Y301      0.1142
     11  C11       15.0730    1.4670    8.2460 C.ar  301  13Y301      0.0094
     12  C12       14.0790    2.1610    7.5770 C.ar  301  13Y301     -0.0026
     13  C13       14.2160    2.4820    6.2220 C.ar  301  13Y301     -0.0047
     14  C14       15.3720    2.1060    5.5410 C.ar  301  13Y301      0.0347
     15  C15       13.1050    3.2740    5.5430 C.3   301  13Y301      0.0802
     16  C16       13.4970    4.4440    4.6110 C.3   301  13Y301      0.0205
     17  C17       14.5670    5.3970    5.1620 C.3   301  13Y301      0.0017
     18  C18       13.9860    6.3030    6.2570 C.3   301  13Y301      0.0001
     19  C19       15.1320    6.2240    3.9930 C.3   301  13Y301      0.0001
     20  N20       12.0210    2.4720    4.9330 N.3   301  13Y301     -0.2689
     21  C22       11.2720    1.6530    5.9370 C.3   301  13Y301      0.0724
     22  C23       10.0150    1.0550    5.3230 C.3   301  13Y301      0.0191
     23  C24       10.4220    0.1580    4.1430 C.3   301  13Y301      0.0238
     24  C25       11.2310    0.9840    3.1180 C.3   301  13Y301      0.1058
     25  C26       12.4520    1.5940    3.8110 C.3   301  13Y301      0.0935
     26  N27       11.6560    0.2370    1.9100 N.am  301  13Y301     -0.2040
     27  C28       12.1810   -1.0400    2.0600 C.2   301  13Y301      0.0853
     28  C29       12.6480   -1.7610    1.0180 C.2   301  13Y301      0.0890
     29  C30       12.5800   -1.1770   -0.2990 C.1   301  13Y301      0.2134
     30  O31       12.9330   -1.7420   -1.3510 O.2   301  13Y301     -0.2088
     31  N32       12.0320    0.0910   -0.3460 N.2   301  13Y301     -0.2456
     32  C34       11.5820    0.8330    0.6800 C.1   301  13Y301      0.2825
     33  O35       11.1430    1.9600    0.5090 O.2   301  13Y301     -0.1919
     34  C36       13.2110   -3.1470    1.1740 C.3   301  13Y301      0.0462
     35  C37       17.2580    0.2840    8.2620 C.2   301  13Y301      0.3907
     36  O38       17.7370    0.6880    9.3270 O.co2 301  13Y301     -0.2404
     37  O39       17.6370   -0.8650    7.7320 O.co2 301  13Y301     -0.2404
@<TRIPOS>BOND
     1    30    29    2
     2    31    29    2
     3    31    32    2
     4    29    28    1
     5    33    32    2
     6    32    26   am
     7    28    34    1
     8    28    27    2
     9     5     1    1
    10    26    27    1
    11    26    24    1
    12     6     1   ar
    13     6     2   ar
    14     1     7   ar
    15    24    25    1
    16    24    23    1
    17     2     3   ar
    18     7     4   ar
    19    25    20    1
    20    19    17    1
    21    23    22    1
    22     3     4   ar
    23     4     8    1
    24    16    17    1
    25    16    15    1
    26    20    15    1
    27    20    21    1
    28    17    18    1
    29    22    21    1
    30     8     9    1
    31    14     9   ar
    32    14    13   ar
    33    15    13    1
    34     9    10   ar
    35    13    12   ar
    36    10    11   ar
    37    10    35    1
    38    12    11   ar
    39    37    35   ar
    40    35    36   ar
