@<TRIPOS>MOLECULE
4hdl_DXC_A_1.pdb
 28 31 0 0 0
SMALL
GASTEIGER

@<TRIPOS>ATOM
      1  C1        26.0120   32.1440   22.3900 C.3    75  DXC75       0.1520
      2  C2        25.8250   31.5030   20.9920 C.3    75  DXC75       0.0329
      3  C3        27.0950   30.7470   20.5510 C.3    75  DXC75       0.0025
      4  C4        28.3890   31.6110   20.6060 C.3    75  DXC75       0.0002
      5  C5        28.5010   32.2780   21.9860 C.3    75  DXC75       0.0026
      6  C6        27.2430   33.0590   22.3570 C.3    75  DXC75       0.0329
      7  C7        26.8750   30.0930   19.1650 C.3    75  DXC75       0.0001
      8  C8        26.9240   31.1210   18.0250 C.3    75  DXC75       0.0000
      9  C9        28.1870   32.0070   18.0900 C.3    75  DXC75       0.0002
     10  C10       28.4080   32.6420   19.4750 C.3    75  DXC75       0.0025
     11  C11       28.1110   33.1490   17.0660 C.3    75  DXC75       0.0024
     12  C12       29.4160   33.9290   16.9910 C.3    75  DXC75       0.0282
     13  C13       29.6620   34.6160   18.3540 C.3    75  DXC75       0.1519
     14  C14       29.6800   33.5680   19.4830 C.3    75  DXC75       0.0329
     15  C15       27.8870   32.7180   15.6130 C.3    75  DXC75       0.0001
     16  C16       28.4320   33.9020   14.7930 C.3    75  DXC75       0.0001
     17  C17       29.0450   34.8720   15.8160 C.3    75  DXC75       0.0024
     18  C18       29.5820   30.6520   20.4900 C.3    75  DXC75       0.0000
     19  C19       30.2110   35.6760   15.1670 C.3    75  DXC75       0.0006
     20  O1        28.6520   35.5920   18.6760 O.3    75  DXC75      -0.2232
     21  O2        24.8630   32.9360   22.6970 O.3    75  DXC75      -0.2232
     22  C20       30.5990   33.0060   16.6440 C.3    75  DXC75       0.0025
     23  C21       29.7690   36.3540   13.8590 C.3    75  DXC75       0.0118
     24  C22       28.6200   37.3350   14.0490 C.3    75  DXC75       0.1141
     25  C23       29.1240   38.7550   14.2440 C.2    75  DXC75       0.3649
     26  O3        29.8130   39.2930   13.3690 O.co2  75  DXC75      -0.2457
     27  O4        28.8350   39.3650   15.2750 O.co2  75  DXC75      -0.2457
     28  C24       30.8140   36.6990   16.1300 C.3    75  DXC75       0.0000
@<TRIPOS>BOND
     1    26    25   ar
     2    23    24    1
     3    23    19    1
     4    24    25    1
     5    25    27   ar
     6    16    15    1
     7    16    17    1
     8    19    17    1
     9    19    28    1
    10    15    11    1
    11    17    12    1
    12    22    12    1
    13    12    11    1
    14    12    13    1
    15    11     9    1
    16     8     9    1
    17     8     7    1
    18     9    10    1
    19    13    20    1
    20    13    14    1
    21     7     3    1
    22    10    14    1
    23    10     4    1
    24    18     4    1
    25     3     4    1
    26     3     2    1
    27     4     5    1
    28     2     1    1
    29     5     6    1
    30     6     1    1
    31     1    21    1
