@<TRIPOS>MOLECULE
4hdl_HEM_A_1.pdb
 43 50 0 0 0
SMALL
GASTEIGER

@<TRIPOS>ATOM
      1  CHA       35.1110   25.9050   16.9340 C.2    72  HEM72       0.0000
      2  CHB       38.5280   26.8620   13.6340 C.2    72  HEM72       0.0000
      3  CHC       35.1540   28.8560   10.7660 C.2    72  HEM72       0.0000
      4  CHD       32.3060   29.1900   14.6710 C.2    72  HEM72       0.0000
      5  C1A       36.2840   25.8790   16.2100 C.ar   72  HEM72       0.0000
      6  C2A       37.4310   25.0500   16.5050 C.ar   72  HEM72       0.0000
      7  C3A       38.3740   25.3020   15.6010 C.ar   72  HEM72       0.0000
      8  C4A       37.8630   26.3170   14.7050 C.ar   72  HEM72       0.0000
      9  CMA       39.7710   24.6200   15.5430 C.3    72  HEM72       0.0000
     10  CAA       37.5110   23.9870   17.6140 C.3    72  HEM72       0.0000
     11  CBA       37.0290   22.7260   16.8650 C.3    72  HEM72       0.0000
     12  CGA       37.1430   21.4210   17.6090 C.2    72  HEM72       0.0000
     13  O1A       37.9290   21.3160   18.5910 O.co2  72  HEM72       0.0000
     14  O2A       36.4330   20.4480   17.1880 O.co2  72  HEM72       0.0000
     15  C1B       37.9150   27.4290   12.5330 C.2    72  HEM72       0.0000
     16  C2B       38.5300   27.6960   11.2510 C.2    72  HEM72       0.0000
     17  C3B       37.5990   28.2520   10.4500 C.2    72  HEM72       0.0000
     18  C4B       36.3640   28.3400   11.2040 C.2    72  HEM72       0.0000
     19  CMB       40.0040   27.3660   10.9430 C.3    72  HEM72       0.0000
     20  CAB       37.7030   28.7210    8.9770 C.2    72  HEM72       0.0000
     21  CBB       38.0230   27.8230    8.0270 C.2    72  HEM72       0.0000
     22  C1C       34.1050   29.1860   11.5950 C.ar   72  HEM72       0.0000
     23  C2C       32.9550   29.9930   11.2570 C.ar   72  HEM72       0.0000
     24  C3C       32.1820   30.0760   12.3390 C.ar   72  HEM72       0.0000
     25  C4C       32.8100   29.3230   13.4030 C.ar   72  HEM72       0.0000
     26  CMC       32.7140   30.6540    9.8790 C.3    72  HEM72       0.0000
     27  CAC       30.8410   30.8400   12.5200 C.2    72  HEM72       0.0000
     28  CBC       29.8030   30.6440   11.6620 C.2    72  HEM72       0.0000
     29  C1D       32.7790   28.3170   15.6140 C.2    72  HEM72       0.0000
     30  C2D       32.0680   27.9550   16.8110 C.2    72  HEM72       0.0000
     31  C3D       32.9170   26.9420   17.5320 C.2    72  HEM72       0.0000
     32  C4D       34.0770   26.7820   16.6900 C.2    72  HEM72       0.0000
     33  CMD       30.7400   28.5210   17.2850 C.3    72  HEM72       0.0000
     34  CAD       32.6130   26.2420   18.8680 C.3    72  HEM72       0.0000
     35  CBD       31.5580   25.1690   18.6510 C.3    72  HEM72       0.0000
     36  CGD       32.0780   24.0480   17.8160 C.2    72  HEM72       0.0000
     37  O1D       33.1850   23.5790   18.1160 O.co2  72  HEM72       0.0000
     38  O2D       31.3680   23.6280   16.8710 O.co2  72  HEM72       0.0000
     39  NA        36.5720   26.6600   15.1070 N.ar   72  HEM72       0.0000
     40  NB        36.5990   27.8380   12.4610 N.2    72  HEM72       0.0000
     41  NC        33.9840   28.7870   12.9280 N.ar   72  HEM72       0.0000
     42  ND        33.9380   27.5840   15.5640 N.2    72  HEM72       0.0000
     43 FE         35.2410   27.6820   14.0020 Fe     72  HEM72       0.0000
@<TRIPOS>BOND
     1    21    20    2
     2    20    17    1
     3    26    23    1
     4    17    18    1
     5    17    16    2
     6     3    18    2
     7     3    22    1
     8    19    16    1
     9    18    40    1
    10    16    15    1
    11    23    22   ar
    12    23    24   ar
    13    22    41   ar
    14    28    27    2
    15    24    27    1
    16    24    25   ar
    17    40    15    2
    18    40    43    1
    19    15     2    1
    20    41    25   ar
    21    41    43    1
    22    25     4    1
    23     2     8    2
    24    43    39    1
    25    43    42    1
    26     4    29    2
    27     8    39   ar
    28     8     7   ar
    29    39     5   ar
    30     9     7    1
    31    42    29    1
    32    42    32    2
    33     7     6   ar
    34    29    30    1
    35     5     6   ar
    36     5     1    2
    37     6    10    1
    38    32     1    1
    39    32    31    1
    40    30    33    1
    41    30    31    2
    42    11    12    1
    43    11    10    1
    44    38    36   ar
    45    14    12   ar
    46    31    34    1
    47    12    13   ar
    48    36    37   ar
    49    36    35    1
    50    35    34    1
