@<TRIPOS>MOLECULE
4hea_FMN_1_1.pdb
 31 33 0 0 0
SMALL
GASTEIGER

@<TRIPOS>ATOM
      1  N1        -2.7440  -22.1790  125.7000 N.2   502  FMN502     -0.2887
      2  C2        -2.0840  -22.6200  126.8340 C.1   502  FMN502      0.3669
      3  O2        -2.7180  -22.8000  127.8740 O.2   502  FMN502     -0.1744
      4  N3        -0.7270  -22.8730  126.8040 N.2   502  FMN502     -0.2300
      5  C4        -0.0290  -22.6740  125.6320 C.1   502  FMN502      0.2513
      6  O4         1.1820  -22.8930  125.5980 O.2   502  FMN502     -0.2057
      7  C4A       -0.6950  -22.2280  124.4920 C.2   502  FMN502      0.2706
      8  N5         0.0290  -22.0390  123.3390 N.2   502  FMN502     -0.3841
      9  C5A       -0.6020  -21.5970  122.2000 C.2   502  FMN502      0.1452
     10  C6         0.1340  -21.4090  121.0380 C.2   502  FMN502      0.0252
     11  C7        -0.4980  -20.9660  119.8850 C.2   502  FMN502     -0.0375
     12  C7M        0.3020  -20.7670  118.6350 C.3   502  FMN502      0.0268
     13  C8        -1.8630  -20.7070  119.8870 C.3   502  FMN502      0.0417
     14  C8M       -2.5390  -20.2240  118.6370 C.3   502  FMN502      0.0091
     15  C9        -2.5980  -20.8960  121.0510 C.2   502  FMN502     -0.0049
     16  C9A       -1.9680  -21.3430  122.2090 C.2   502  FMN502      0.0795
     17  N10       -2.7120  -21.5230  123.3580 N.pl3 502  FMN502     -0.2545
     18  C10       -2.0700  -21.9800  124.5110 C.2   502  FMN502      0.2449
     19  C1'       -4.1860  -21.2060  123.2340 C.3   502  FMN502      0.1336
     20  C2'       -5.1840  -22.3000  123.6080 C.3   502  FMN502      0.2048
     21  O2'       -6.2190  -22.2990  122.6470 O.3   502  FMN502     -0.2185
     22  C3'       -5.8020  -22.1000  124.9910 C.3   502  FMN502      0.2165
     23  O3'       -5.0000  -22.7200  125.9770 O.3   502  FMN502     -0.2175
     24  C4'       -7.2190  -22.6570  125.0710 C.3   502  FMN502      0.2147
     25  O4'       -8.0950  -21.7940  124.3730 O.3   502  FMN502     -0.2176
     26  C5'       -7.6140  -22.8140  126.5380 C.3   502  FMN502      0.1892
     27  O5'       -9.0090  -22.8790  126.7030 O.3   502  FMN502     -0.2674
     28  P         -9.6740  -21.7770  127.6590 P.3   502  FMN502      0.5327
     29  O1P       -9.4830  -20.4300  126.9980 O.2   502  FMN502     -0.2224
     30  O2P      -11.1490  -22.0360  127.8370 O.3   502  FMN502     -0.1145
     31  O3P       -8.9730  -21.8140  128.9930 O.3   502  FMN502     -0.1145
@<TRIPOS>BOND
     1    12    11    1
     2    14    13    1
     3    11    13    1
     4    11    10    2
     5    13    15    1
     6    10     9    1
     7    15    16    2
     8     9    16    1
     9     9     8    2
    10    16    17    1
    11    21    20    1
    12    19    17    1
    13    19    20    1
    14     8     7    2
    15    17    18    1
    16    20    22    1
    17    25    24    1
    18     7    18    1
    19     7     5    1
    20    18     1    2
    21    22    24    1
    22    22    23    1
    23    24    26    1
    24     6     5    2
    25     5     4    2
    26     1     2    2
    27    26    27    1
    28    27    28    1
    29     4     2    2
    30     2     3    2
    31    29    28    2
    32    28    30    1
    33    28    31    1
