@<TRIPOS>MOLECULE
4hej_14D_A_1.pdb
 33 36 0 0 0
SMALL
GASTEIGER

@<TRIPOS>ATOM
      1  C1        12.0210   -3.6210    1.0730 C.3   301  14D301      0.0462
      2  C2        11.4890   -2.2390    0.9260 C.2   301  14D301      0.0890
      3  C3        11.0490   -1.5350    1.9670 C.2   301  14D301      0.0853
      4  N1        10.5530   -0.2600    1.8270 N.am  301  14D301     -0.2040
      5  C4        10.5260    0.3780    0.5950 C.1   301  14D301      0.2825
      6  O1        10.1830    1.5530    0.4900 O.2   301  14D301     -0.1919
      7  N2        10.9020   -0.3320   -0.4830 N.2   301  14D301     -0.2456
      8  C5        11.4090   -1.5830   -0.4140 C.1   301  14D301      0.2134
      9  O2        11.8020   -2.1860   -1.4120 O.2   301  14D301     -0.2088
     10  C6        10.0680    0.4530    3.0050 C.3   301  14D301      0.1058
     11  C7         9.1670   -0.3900    3.9170 C.3   301  14D301      0.0238
     12  C8         8.6640    0.4130    5.1000 C.3   301  14D301      0.0191
     13  C9         9.8360    0.9590    5.8930 C.3   301  14D301      0.0725
     14  N3        10.6450    1.8310    4.9800 N.3   301  14D301     -0.2675
     15  C10       11.1830    1.1650    3.7490 C.3   301  14D301      0.0935
     16  C11       11.6260    2.7310    5.6730 C.3   301  14D301      0.0993
     17  C12       12.8470    2.0370    6.1960 C.ar  301  14D301     -0.0031
     18  C13       12.8810    1.5860    7.5050 C.ar  301  14D301     -0.0027
     19  C14       13.9880    0.9260    7.9930 C.ar  301  14D301      0.0029
     20  C15       15.0850    0.7290    7.1740 C.ar  301  14D301      0.0375
     21  C16       15.0440    1.1660    5.8640 C.ar  301  14D301      0.1450
     22  C17       13.9390    1.8300    5.3730 C.ar  301  14D301      0.0346
     23  O3        16.1520    0.9850    5.0490 O.3   301  14D301     -0.4535
     24  C18       16.2060   -0.1230    4.2200 C.ar  301  14D301      0.1452
     25  C19       15.3830   -1.2350    4.3050 C.ar  301  14D301      0.0375
     26  C20       15.5570   -2.2880    3.4220 C.ar  301  14D301      0.0031
     27  C21       16.5470   -2.2310    2.4610 C.ar  301  14D301      0.0041
     28  C22       17.3530   -1.1050    2.3780 C.ar  301  14D301      0.0744
     29  C23       17.1860   -0.0580    3.2580 C.ar  301  14D301      0.0413
     30  C24       18.4270   -1.0130    1.3580 C.3   301  14D301      0.4187
     31  F1        17.9990   -1.3290    0.1160 F     301  14D301     -0.1659
     32  F2        19.4430   -1.8510    1.6600 F     301  14D301     -0.1659
     33  F3        18.9860    0.2180    1.2090 F     301  14D301     -0.1659
@<TRIPOS>BOND
     1     9     8    2
     2     7     8    2
     3     7     5    2
     4     8     2    1
     5    31    30    1
     6     6     5    2
     7     5     4   am
     8     2     1    1
     9     2     3    2
    10    33    30    1
    11    30    32    1
    12    30    28    1
    13     4     3    1
    14     4    10    1
    15    28    27   ar
    16    28    29   ar
    17    27    26   ar
    18    10    15    1
    19    10    11    1
    20    29    24   ar
    21    26    25   ar
    22    15    14    1
    23    11    12    1
    24    24    25   ar
    25    24    23    1
    26    14    16    1
    27    14    13    1
    28    23    21    1
    29    12    13    1
    30    22    21   ar
    31    22    17   ar
    32    16    17    1
    33    21    20   ar
    34    17    18   ar
    35    20    19   ar
    36    18    19   ar
