@<TRIPOS>MOLECULE
4heq_FMN_A_1.pdb
 31 33 0 0 0
SMALL
GASTEIGER

@<TRIPOS>ATOM
      1  N1        45.4820   -4.6850   17.6480 N.2   201  FMN201     -0.2887
      2  C2        44.1970   -4.9900   17.5340 C.1   201  FMN201      0.3669
      3  O2        43.3730   -4.7020   18.4190 O.2   201  FMN201     -0.1744
      4  N3        43.7730   -5.6120   16.3720 N.2   201  FMN201     -0.2300
      5  C4        44.5370   -5.9570   15.3600 C.1   201  FMN201      0.2513
      6  O4        44.0570   -6.5540   14.3400 O.2   201  FMN201     -0.2057
      7  C4A       45.9220   -5.6060   15.4940 C.2   201  FMN201      0.2706
      8  N5        46.7830   -5.8910   14.4760 N.2   201  FMN201     -0.3841
      9  C5A       48.0960   -5.5640   14.6090 C.2   201  FMN201      0.1452
     10  C6        49.0370   -5.8480   13.5770 C.2   201  FMN201      0.0252
     11  C7        50.3390   -5.4240   13.6690 C.2   201  FMN201     -0.0375
     12  C7M       51.3510   -5.7250   12.5600 C.3   201  FMN201      0.0268
     13  C8        50.8020   -4.7540   14.8630 C.3   201  FMN201      0.0417
     14  C8M       52.2710   -4.3290   14.9640 C.3   201  FMN201      0.0091
     15  C9        49.8920   -4.5210   15.8750 C.2   201  FMN201     -0.0049
     16  C9A       48.5510   -4.8780   15.7840 C.2   201  FMN201      0.0795
     17  N10       47.6670   -4.6800   16.8440 N.pl3 201  FMN201     -0.2545
     18  C10       46.3250   -4.9820   16.7010 C.2   201  FMN201      0.2449
     19  C1'       48.0780   -3.9930   18.0620 C.3   201  FMN201      0.1336
     20  C2'       48.9100   -4.9340   18.9750 C.3   201  FMN201      0.2048
     21  O2'       47.9900   -5.9130   19.5480 O.3   201  FMN201     -0.2185
     22  C3'       49.3990   -4.1430   20.1390 C.3   201  FMN201      0.2165
     23  O3'       50.5790   -3.4710   19.5970 O.3   201  FMN201     -0.2175
     24  C4'       49.7790   -4.8890   21.3750 C.3   201  FMN201      0.2147
     25  O4'       50.2410   -3.9810   22.4150 O.3   201  FMN201     -0.2176
     26  C5'       50.8330   -5.9420   21.2510 C.3   201  FMN201      0.1892
     27  O5'       50.8900   -6.7040   22.4730 O.3   201  FMN201     -0.2674
     28  P         52.0500   -7.7260   22.7700 P.3   201  FMN201      0.5327
     29  O1P       52.1810   -8.6960   21.6680 O.2   201  FMN201     -0.2224
     30  O2P       51.5970   -8.3340   24.0710 O.3   201  FMN201     -0.1145
     31  O3P       53.3400   -6.8780   22.9820 O.3   201  FMN201     -0.1145
@<TRIPOS>BOND
     1    12    11    1
     2    10    11    2
     3    10     9    1
     4    11    13    1
     5     6     5    2
     6     8     9    2
     7     8     7    2
     8     9    16    1
     9    13    14    1
    10    13    15    1
    11     5     7    1
    12     5     4    2
    13     7    18    1
    14    16    15    2
    15    16    17    1
    16     4     2    2
    17    18    17    1
    18    18     1    2
    19    17    19    1
    20     2     1    2
    21     2     3    2
    22    19    20    1
    23    20    21    1
    24    20    22    1
    25    23    22    1
    26    22    24    1
    27    26    24    1
    28    26    27    1
    29    24    25    1
    30    29    28    2
    31    27    28    1
    32    28    31    1
    33    28    30    1
