@<TRIPOS>MOLECULE
4heu_15J_A_1.pdb
 31 35 0 0 0
SMALL
GASTEIGER

@<TRIPOS>ATOM
      1  O2        15.0720   84.5850   33.9290 O.3   1009  15J1009    -0.2204
      2  C24       14.6680   85.9170   33.5850 C.3   1009  15J1009     0.1821
      3  C21       13.4430   86.3640   34.3940 C.3   1009  15J1009     0.0364
      4  C22       13.7500   86.3400   35.8990 C.3   1009  15J1009     0.0241
      5  C23       12.5340   86.7960   36.7190 C.3   1009  15J1009     0.0923
      6  C20       13.0880   87.7980   33.9680 C.3   1009  15J1009     0.0241
      7  C19       11.9320   88.4100   34.7750 C.3   1009  15J1009     0.0923
      8  N2        12.0050   88.1120   36.2330 N.pl3 1009  15J1009    -0.2908
      9  C4        11.4140   89.0080   37.1510 C.ar  1009  15J1009     0.1665
     10  N1        10.1770   89.4790   36.8830 N.ar  1009  15J1009    -0.2260
     11  C3         9.5440   90.3120   37.7000 C.ar  1009  15J1009     0.1005
     12  C2        10.1440   90.7350   38.8840 C.ar  1009  15J1009     0.0239
     13  C1        11.4210   90.2730   39.1980 C.ar  1009  15J1009     0.0420
     14  C5        12.0660   89.3910   38.3280 C.ar  1009  15J1009     0.1766
     15  O1        13.3280   88.9150   38.5750 O.3   1009  15J1009    -0.4507
     16  C6        13.7940   88.7100   39.8450 C.ar  1009  15J1009     0.1455
     17  C11       15.0560   89.1930   40.1940 C.ar  1009  15J1009     0.0389
     18  C10       15.5620   88.9840   41.4800 C.ar  1009  15J1009     0.0205
     19  C7        13.0510   87.9940   40.7830 C.ar  1009  15J1009     0.0389
     20  C8        13.5580   87.7890   42.0650 C.ar  1009  15J1009     0.0205
     21  C9        14.8140   88.2720   42.4270 C.ar  1009  15J1009     0.0837
     22  N3        15.2300   88.0270   43.6820 N.pl3 1009  15J1009    -0.1254
     23  C12       16.4680   88.1670   44.1810 C.1   1009  15J1009     0.2247
     24  N5        17.6030   88.2900   43.4920 N.2   1009  15J1009    -0.3241
     25  C14       18.5950   88.4070   44.3760 C.ar  1009  15J1009     0.1754
     26  C18       19.9740   88.5690   44.2330 C.ar  1009  15J1009     0.0357
     27  C17       20.7870   88.6600   45.3660 C.ar  1009  15J1009     0.0028
     28  C16       20.2170   88.5920   46.6420 C.ar  1009  15J1009     0.0028
     29  C15       18.8370   88.4350   46.7830 C.ar  1009  15J1009     0.0357
     30  C13       18.0280   88.3430   45.6480 C.ar  1009  15J1009     0.1754
     31  N4        16.7150   88.1920   45.4900 N.2   1009  15J1009    -0.3241
@<TRIPOS>BOND
     1     2     1    1
     2     2     3    1
     3     6     3    1
     4     6     7    1
     5     3     4    1
     6     7     8    1
     7     4     5    1
     8     8     5    1
     9     8     9    1
    10    10     9   ar
    11    10    11   ar
    12     9    14   ar
    13    11    12   ar
    14    14    15    1
    15    14    13   ar
    16    15    16    1
    17    12    13   ar
    18    16    17   ar
    19    16    19   ar
    20    17    18   ar
    21    19    20   ar
    22    18    21   ar
    23    20    21   ar
    24    21    22    1
    25    24    23    2
    26    24    25    2
    27    22    23    1
    28    23    31    2
    29    26    25   ar
    30    26    27   ar
    31    25    30   ar
    32    27    28   ar
    33    31    30    2
    34    30    29   ar
    35    28    29   ar
