@<TRIPOS>MOLECULE
4hev_AXM_A_1.pdb
 15 17 0 0 0
SMALL
GASTEIGER

@<TRIPOS>ATOM
      1  O28       -4.7640   -4.4020   21.8480 O.2   502  AXM502     -0.5396
      2  C27       -4.5100   -5.1650   22.7670 C.2   502  AXM502      0.0868
      3  N29       -3.9400   -4.7570   23.8960 N.am  502  AXM502     -0.2030
      4  O30       -3.8220   -3.3930   24.1520 O.3   502  AXM502     -0.4026
      5  C26       -4.8460   -6.6350   22.6570 C.3   502  AXM502      0.0512
      6  C5        -3.9580   -7.3250   21.6240 C.3   502  AXM502      0.0060
      7  C4        -2.5790   -6.6760   21.5820 C.3   502  AXM502      0.0004
      8  C3        -1.7140   -7.3700   20.5360 C.3   502  AXM502      0.0000
      9  C9        -3.8030   -8.7920   22.0010 C.3   502  AXM502      0.0004
     10  C1        -2.9420   -9.5080   20.9630 C.3   502  AXM502      0.0000
     11  C8        -3.6020   -9.3930   19.5940 C.3   502  AXM502      0.0000
     12  C2        -1.5700   -8.8430   20.9030 C.3   502  AXM502      0.0000
     13  C6        -4.6320   -7.2370   20.2620 C.3   502  AXM502      0.0004
     14  C7        -3.7680   -7.9250   19.2120 C.3   502  AXM502      0.0000
     15  C10       -2.3980   -7.2530   19.1780 C.3   502  AXM502      0.0000
@<TRIPOS>BOND
     1    15    14    1
     2    15     8    1
     3    14    11    1
     4    14    13    1
     5    11    10    1
     6    13     6    1
     7     8    12    1
     8     8     7    1
     9    12    10    1
    10    10     9    1
    11     7     6    1
    12     6     9    1
    13     6     5    1
    14     1     2    2
    15     5     2    1
    16     2     3   am
    17     3     4    1
