@<TRIPOS>MOLECULE
4hf4_15H_A_1.pdb
 32 36 0 0 0
SMALL
GASTEIGER

@<TRIPOS>ATOM
      1  N4        17.7530   88.0950   43.9750 N.2   1012  15H1012    -0.3822
      2  C13       18.8410   88.3170   44.7490 C.2   1012  15H1012     0.1255
      3  C17       20.1620   88.5320   44.3500 C.2   1012  15H1012     0.0288
      4  C16       21.1710   88.7460   45.2900 C.2   1012  15H1012     0.0020
      5  C15       20.8700   88.7520   46.6520 C.2   1012  15H1012    -0.0032
      6  C14       19.5590   88.5400   47.0720 C.2   1012  15H1012    -0.0082
      7  C12       18.5540   88.3250   46.1280 C.3   1012  15H1012     0.1296
      8  S1        16.9040   88.0450   46.2850 S.3   1012  15H1012    -0.0545
      9  C11       16.6010   87.9290   44.6400 C.2   1012  15H1012     0.2309
     10  N3        15.3920   87.6860   44.1210 N.pl3 1012  15H1012    -0.1782
     11  C8        14.9290   88.0840   42.9270 C.ar  1012  15H1012     0.0738
     12  C9        13.5550   87.9970   42.7000 C.ar  1012  15H1012     0.0197
     13  C10       13.0130   88.3900   41.4770 C.ar  1012  15H1012     0.0389
     14  C7        15.7590   88.5670   41.9110 C.ar  1012  15H1012     0.0197
     15  C6        15.2210   88.9620   40.6870 C.ar  1012  15H1012     0.0389
     16  C5        13.8450   88.8700   40.4670 C.ar  1012  15H1012     0.1474
     17  O1        13.3140   89.2570   39.2700 O.3   1012  15H1012    -0.4340
     18  C3        13.1090   88.2280   38.3940 C.ar  1012  15H1012     0.2622
     19  N2        13.9580   87.1820   38.3630 N.ar  1012  15H1012    -0.2058
     20  C2        13.7740   86.1800   37.5190 C.ar  1012  15H1012     0.1228
     21  C1        12.6910   86.2030   36.6450 C.ar  1012  15H1012     0.1212
     22  N1        11.8480   87.2220   36.6620 N.ar  1012  15H1012    -0.2230
     23  C4        12.0200   88.2450   37.5160 C.ar  1012  15H1012     0.1862
     24  N5        11.0960   89.3050   37.4830 N.pl3 1012  15H1012    -0.2895
     25  C22       10.1670   89.5360   38.6390 C.3   1012  15H1012     0.0924
     26  C21        9.6980   91.0030   38.7520 C.3   1012  15H1012     0.0240
     27  C18       11.0350   90.1120   36.2280 C.3   1012  15H1012     0.0924
     28  C19       10.6360   91.5630   36.5080 C.3   1012  15H1012     0.0240
     29  C20        9.3710   91.6050   37.3710 C.3   1012  15H1012     0.0338
     30  C23        8.7550   93.0210   37.4210 C.3   1012  15H1012     0.1521
     31  C24        9.3740   93.9210   38.5000 C.3   1012  15H1012     0.0355
     32  O2         7.3330   92.9180   37.5850 O.3   1012  15H1012    -0.2231
@<TRIPOS>BOND
     1    27    28    1
     2    27    24    1
     3    28    29    1
     4    21    22   ar
     5    21    20   ar
     6    22    23   ar
     7    29    30    1
     8    29    26    1
     9    30    32    1
    10    30    31    1
    11    24    23    1
    12    24    25    1
    13    23    18   ar
    14    20    19   ar
    15    19    18   ar
    16    18    17    1
    17    25    26    1
    18    17    16    1
    19    16    15   ar
    20    16    13   ar
    21    15    14   ar
    22    13    12   ar
    23    14    11   ar
    24    12    11   ar
    25    11    10    1
    26     1     9    2
    27     1     2    2
    28    10     9    1
    29     3     2    1
    30     3     4    2
    31     9     8    1
    32     2     7    1
    33     4     5    1
    34     7     8    1
    35     7     6    1
    36     5     6    2
