@<TRIPOS>MOLECULE
4hfm_NAP_A_1.pdb
 48 52 0 0 0
SMALL
GASTEIGER

@<TRIPOS>ATOM
      1  PA         8.3160   21.3720   15.7450 P.3   400  NAP400      0.2189
      2  O1A        8.8940   22.6730   16.2450 O.3   400  NAP400     -0.4371
      3  O2A        8.8720   20.6740   14.5380 O.2   400  NAP400     -0.5170
      4  O5B        6.7410   21.6270   15.4990 O.3   400  NAP400     -0.3112
      5  C5B        5.9710   20.5180   15.1220 C.3   400  NAP400      0.1813
      6  C4B        5.9320   20.4680   13.5720 C.3   400  NAP400      0.1820
      7  O4B        5.3900   19.2050   13.1580 O.3   400  NAP400     -0.3136
      8  C3B        4.9870   21.4400   12.8600 C.3   400  NAP400      0.2157
      9  O3B        5.5200   22.7850   12.7190 O.3   400  NAP400     -0.2175
     10  C2B        5.0000   20.7370   11.4880 C.3   400  NAP400      0.2314
     11  O2B        5.8500   21.3240   10.5390 O.3   400  NAP400     -0.2630
     12  C1B        5.0590   19.2620   11.7590 C.3   400  NAP400      0.3158
     13  N9A        3.7880   18.5240   11.6130 N.pl3 400  NAP400     -0.1439
     14  C8A        2.6710   18.6740   12.3380 C.3   400  NAP400      0.3377
     15  N7A        1.7480   17.7650   11.8990 N.2   400  NAP400     -0.2095
     16  C5A        2.3180   17.0310   10.9000 C.2   400  NAP400      0.2526
     17  C6A        1.9000   15.9830   10.0570 C.2   400  NAP400      0.4393
     18  N6A        0.6490   15.4380   10.1240 N.pl3 400  NAP400      0.2180
     19  N1A        2.7690   15.4890    9.1500 N.2   400  NAP400      0.0021
     20  C2A        4.0180   15.9820    9.0400 C.3   400  NAP400      0.5254
     21  N3A        4.4400   16.9810    9.8110 N.2   400  NAP400     -0.0055
     22  C4A        3.6150   17.5220   10.7450 C.2   400  NAP400      0.3518
     23  O3         8.3770   20.2720   16.9360 O.3   400  NAP400     -0.2703
     24  PN         9.7480   19.8370   17.7240 P.3   400  NAP400      0.2189
     25  O1N       10.8830   20.1410   16.8050 O.2   400  NAP400     -0.5170
     26  O2N        9.6160   20.3640   19.1330 O.3   400  NAP400     -0.4371
     27  O5D        9.5620   18.2280   17.8260 O.3   400  NAP400     -0.3112
     28  C5D        9.7890   17.4100   16.6470 C.3   400  NAP400      0.1813
     29  C4D        9.4750   15.9440   16.9470 C.3   400  NAP400      0.1799
     30  O4D       10.3400   15.4460   17.9680 O.3   400  NAP400     -0.3327
     31  C3D        8.0830   15.8020   17.5600 C.3   400  NAP400      0.2158
     32  O3D        7.5720   14.5880   17.0520 O.3   400  NAP400     -0.2175
     33  C2D        8.3340   15.6940   19.0580 C.3   400  NAP400      0.2309
     34  O2D        7.3060   14.9590   19.6870 O.3   400  NAP400     -0.2158
     35  C1D        9.6290   14.9130   19.0920 C.3   400  NAP400      0.2263
     36  N1N       10.4260   15.0920   20.3180 N.pl3 400  NAP400     -0.2787
     37  C2N       10.9570   13.9970   20.8720 C.3   400  NAP400      0.1244
     38  C3N       11.7560   14.0470   22.0210 C.2   400  NAP400      0.0544
     39  C7N       12.4050   12.8080   22.5690 C.2   400  NAP400      0.2818
     40  O7N       12.9890   12.8340   23.6530 O.2   400  NAP400     -0.2670
     41  N7N       12.4460   11.7050   21.7990 N.am  400  NAP400     -0.0839
     42  C4N       12.0300   15.3100   22.5930 C.2   400  NAP400      0.0033
     43  C5N       11.5000   16.4410   21.9700 C.2   400  NAP400      0.0157
     44  C6N       10.7010   16.3180   20.8100 C.2   400  NAP400      0.0633
     45  P2B        5.4340   21.4050    8.9630 P.3   400  NAP400      0.5328
     46  O1X        4.9220   22.7850    8.7810 O.3   400  NAP400     -0.1145
     47  O2X        6.7770   21.1540    8.3770 O.2   400  NAP400     -0.2224
     48  O3X        4.4430   20.3040    8.6960 O.3   400  NAP400     -0.1145
@<TRIPOS>BOND
     1    47    45    2
     2    48    45    1
     3    46    45    1
     4    45    11    1
     5    20    19    1
     6    20    21    1
     7    19    17    2
     8    21    22    2
     9    17    18    1
    10    17    16    1
    11    11    10    1
    12    22    16    1
    13    22    13    1
    14    16    15    2
    15    10    12    1
    16    10     8    1
    17    13    12    1
    18    13    14    1
    19    12     7    1
    20    15    14    1
    21     9     8    1
    22     8     6    1
    23     7     6    1
    24     6     5    1
    25     3     1    2
    26     5     4    1
    27     4     1    1
    28     1     2    1
    29     1    23    1
    30    28    29    1
    31    28    27    1
    32    25    24    2
    33    23    24    1
    34    29    31    1
    35    29    30    1
    36    32    31    1
    37    31    33    1
    38    24    27    1
    39    24    26    1
    40    30    35    1
    41    33    35    1
    42    33    34    1
    43    35    36    1
    44    36    44    1
    45    36    37    1
    46    44    43    2
    47    37    38    1
    48    41    39   am
    49    43    42    1
    50    38    39    1
    51    38    42    2
    52    39    40    2
