@<TRIPOS>MOLECULE
4hfn_CIY_A_1.pdb
 13 13 0 0 0
SMALL
GASTEIGER

@<TRIPOS>ATOM
      1  C1       -22.6350   11.5640    5.6470 C.ar  401  CIY401     -0.0189
      2  C2       -23.3530   12.7170    5.2400 C.ar  401  CIY401      0.0360
      3  C3       -23.4560   13.8230    6.0860 C.ar  401  CIY401      0.1771
      4  O3       -24.1250   15.0190    5.7850 O.3   401  CIY401     -0.4682
      5  C4       -22.8070   13.7490    7.3380 C.ar  401  CIY401      0.2293
      6  O4       -22.8510   14.8420    8.1100 O.3   401  CIY401     -0.2833
      7  C5       -22.0900   12.6330    7.7440 C.ar  401  CIY401      0.0449
      8  C6       -22.0040   11.5280    6.9040 C.ar  401  CIY401     -0.0008
      9  C7       -22.5180   10.4120    4.8640 C.3   401  CIY401      0.0291
     10  C8       -22.3790   10.5370    3.3340 C.3   401  CIY401      0.0402
     11  C9       -22.1910    9.1790    2.6040 C.3   401  CIY401      0.1825
     12  O9       -22.6200    9.2240    1.2300 O.3   401  CIY401     -0.2204
     13  C3M      -24.6400   15.2450    4.4310 C.3   401  CIY401      0.2526
@<TRIPOS>BOND
     1    12    11    1
     2    11    10    1
     3    10     9    1
     4    13     4    1
     5     9     1    1
     6     2     1   ar
     7     2     3   ar
     8     1     8   ar
     9     4     3    1
    10     3     5   ar
    11     8     7   ar
    12     5     7   ar
    13     5     6    1
