@<TRIPOS>MOLECULE
4hfn_NAP_A_1.pdb
 48 52 0 0 0
SMALL
GASTEIGER

@<TRIPOS>ATOM
      1  PA       -22.9560   21.8780   14.1910 P.3   400  NAP400      0.2189
      2  O1A      -23.5770   21.1990   15.3690 O.3   400  NAP400     -0.4371
      3  O2A      -23.5350   23.1940   13.6760 O.2   400  NAP400     -0.5170
      4  O5B      -21.3760   22.0810   14.4820 O.3   400  NAP400     -0.3112
      5  C5B      -20.5190   21.0280   14.8970 C.3   400  NAP400      0.1813
      6  C4B      -20.5070   20.9330   16.4180 C.3   400  NAP400      0.1820
      7  O4B      -20.0880   19.6270   16.8620 O.3   400  NAP400     -0.3136
      8  C3B      -19.5880   21.9350   17.1470 C.3   400  NAP400      0.2157
      9  O3B      -20.2820   23.1660   17.2190 O.3   400  NAP400     -0.2175
     10  C2B      -19.6220   21.2620   18.4910 C.3   400  NAP400      0.2314
     11  O2B      -20.5440   21.7650   19.4610 O.3   400  NAP400     -0.2630
     12  C1B      -19.6390   19.7380   18.2100 C.3   400  NAP400      0.3158
     13  N9A      -18.4030   18.9360   18.3910 N.pl3 400  NAP400     -0.1439
     14  C8A      -17.2300   19.0420   17.6850 C.3   400  NAP400      0.3377
     15  N7A      -16.3380   18.1400   18.1400 N.2   400  NAP400     -0.2095
     16  C5A      -16.9220   17.4370   19.1310 C.2   400  NAP400      0.2526
     17  C6A      -16.4790   16.3750   19.9610 C.2   400  NAP400      0.4393
     18  N6A      -15.2190   15.8560   19.8570 N.pl3 400  NAP400      0.2180
     19  N1A      -17.3510   15.8760   20.8630 N.2   400  NAP400      0.0021
     20  C2A      -18.5930   16.3840   20.9940 C.3   400  NAP400      0.5254
     21  N3A      -19.0460   17.3730   20.2160 N.2   400  NAP400     -0.0055
     22  C4A      -18.2300   17.9410   19.2870 C.2   400  NAP400      0.3518
     23  O3       -22.9070   20.7650   13.0460 O.3   400  NAP400     -0.2703
     24  PN       -24.2420   20.2600   12.2760 P.3   400  NAP400      0.2189
     25  O1N      -25.4100   20.5870   13.1600 O.3   400  NAP400     -0.4371
     26  O2N      -24.2580   20.7170   10.8250 O.2   400  NAP400     -0.5170
     27  O5D      -24.0300   18.6490   12.2610 O.3   400  NAP400     -0.3112
     28  C5D      -24.2770   17.8680   13.4370 C.3   400  NAP400      0.1813
     29  C4D      -24.0800   16.3580   13.1500 C.3   400  NAP400      0.1799
     30  O4D      -24.9820   15.8230   12.1600 O.3   400  NAP400     -0.3327
     31  C3D      -22.6910   15.9740   12.6410 C.3   400  NAP400      0.2158
     32  O3D      -22.2600   14.7820   13.3250 O.3   400  NAP400     -0.2175
     33  C2D      -22.8740   15.7950   11.1290 C.3   400  NAP400      0.2309
     34  O2D      -21.8640   14.9690   10.5740 O.3   400  NAP400     -0.2158
     35  C1D      -24.2730   15.1880   11.0610 C.3   400  NAP400      0.2263
     36  N1N      -25.0540   15.4110    9.8160 N.pl3 400  NAP400     -0.2787
     37  C2N      -25.6120   14.3520    9.2200 C.3   400  NAP400      0.1244
     38  C3N      -26.3980   14.4740    8.0700 C.2   400  NAP400      0.0544
     39  C7N      -27.0490   13.2310    7.4740 C.2   400  NAP400      0.2818
     40  O7N      -27.6990   13.2680    6.3940 O.2   400  NAP400     -0.2670
     41  N7N      -26.9520   12.1110    8.2190 N.am  400  NAP400     -0.0839
     42  C4N      -26.6240   15.7530    7.5250 C.2   400  NAP400      0.0033
     43  C5N      -26.0440   16.8300    8.1570 C.2   400  NAP400      0.0157
     44  C6N      -25.2650   16.6580    9.3240 C.2   400  NAP400      0.0633
     45  P2B      -20.1800   21.7760   21.0400 P.3   400  NAP400      0.5328
     46  O1X      -19.5890   23.1840   21.1790 O.2   400  NAP400     -0.2224
     47  O2X      -21.5620   21.6620   21.6120 O.3   400  NAP400     -0.1145
     48  O3X      -19.2660   20.5890   21.3700 O.3   400  NAP400     -0.1145
@<TRIPOS>BOND
     1    40    39    2
     2    39    38    1
     3    39    41   am
     4    42    38    2
     5    42    43    1
     6    38    37    1
     7    43    44    2
     8    37    36    1
     9    44    36    1
    10    36    35    1
    11    34    33    1
    12    26    24    2
    13    35    33    1
    14    35    30    1
    15    33    31    1
    16    30    29    1
    17    27    24    1
    18    27    28    1
    19    24    23    1
    20    24    25    1
    21    31    29    1
    22    31    32    1
    23    23     1    1
    24    29    28    1
    25     3     1    2
    26     1     4    1
    27     1     2    1
    28     4     5    1
    29     5     6    1
    30     6     7    1
    31     6     8    1
    32     7    12    1
    33     8     9    1
    34     8    10    1
    35    14    15    1
    36    14    13    1
    37    15    16    2
    38    12    13    1
    39    12    10    1
    40    13    22    1
    41    10    11    1
    42    16    22    1
    43    16    17    1
    44    22    21    2
    45    11    45    1
    46    18    17    1
    47    17    19    2
    48    21    20    1
    49    19    20    1
    50    45    46    2
    51    45    48    1
    52    45    47    1
