@<TRIPOS>MOLECULE
4hfr_NAP_A_1.pdb
 48 52 0 0 0
SMALL
GASTEIGER

@<TRIPOS>ATOM
      1  PA        -4.3150   68.6080   16.4360 P.3   301  NAP301      0.2189
      2  O1A       -2.9140   68.0910   16.4370 O.3   301  NAP301     -0.4371
      3  O2A       -4.6540   69.4060   15.1480 O.2   301  NAP301     -0.5170
      4  O5B       -4.5870   69.4980   17.7250 O.3   301  NAP301     -0.3112
      5  C5B       -3.9340   69.2360   18.9850 C.3   301  NAP301      0.1813
      6  C4B       -3.8990   70.5310   19.7640 C.3   301  NAP301      0.1820
      7  O4B       -3.1630   70.3610   21.0020 O.3   301  NAP301     -0.3136
      8  C3B       -3.2740   71.7320   19.0530 C.3   301  NAP301      0.2157
      9  O3B       -3.9750   72.9460   19.3220 O.3   301  NAP301     -0.2175
     10  C2B       -1.8580   71.7260   19.6170 C.3   301  NAP301      0.2314
     11  O2B       -1.2730   73.0350   19.4560 O.3   301  NAP301     -0.2630
     12  C1B       -2.1230   71.3150   21.0670 C.3   301  NAP301      0.3158
     13  N9A       -1.0200   70.7640   21.8560 N.pl3 301  NAP301     -0.1439
     14  C8A       -0.0080   69.9460   21.4240 C.3   301  NAP301      0.3377
     15  N7A        0.8620   69.6320   22.3550 N.2   301  NAP301     -0.2095
     16  C5A        0.3910   70.2930   23.4810 C.2   301  NAP301      0.2526
     17  C6A        0.8680   70.3710   24.8080 C.2   301  NAP301      0.4393
     18  N6A        1.9240   69.6790   25.2580 N.pl3 301  NAP301      0.2180
     19  N1A        0.1760   71.1420   25.6830 N.2   301  NAP301      0.0021
     20  C2A       -0.9220   71.7790   25.2550 C.3   301  NAP301      0.5254
     21  N3A       -1.4780   71.7670   24.0360 N.2   301  NAP301     -0.0055
     22  C4A       -0.7670   70.9980   23.1880 C.2   301  NAP301      0.3518
     23  O3        -5.3200   67.3600   16.5150 O.3   301  NAP301     -0.2703
     24  PN        -6.8990   67.1630   16.3120 P.3   301  NAP301      0.2189
     25  O1N       -7.0060   66.2950   15.1190 O.2   301  NAP301     -0.5170
     26  O2N       -7.6540   68.4390   16.3740 O.3   301  NAP301     -0.4371
     27  O5D       -7.2300   66.3700   17.6500 O.3   301  NAP301     -0.3112
     28  C5D       -8.2170   66.8920   18.5810 C.3   301  NAP301      0.1813
     29  C4D       -8.7300   65.8140   19.5110 C.3   301  NAP301      0.1799
     30  O4D       -9.5280   64.8560   18.7730 O.3   301  NAP301     -0.3327
     31  C3D       -7.6600   64.9960   20.2320 C.3   301  NAP301      0.2158
     32  O3D       -8.0450   64.7070   21.5710 O.3   301  NAP301     -0.2175
     33  C2D       -7.6060   63.7200   19.4000 C.3   301  NAP301      0.2309
     34  O2D       -7.1320   62.6540   20.2070 O.3   301  NAP301     -0.2158
     35  C1D       -9.0970   63.5460   19.0370 C.3   301  NAP301      0.2263
     36  N1N       -9.3310   62.7110   17.7910 N.pl3 301  NAP301     -0.2787
     37  C2N       -8.8960   63.1600   16.5080 C.3   301  NAP301      0.1244
     38  C3N       -9.0370   62.3370   15.4030 C.2   301  NAP301      0.0544
     39  C7N       -8.6290   62.7740   14.0230 C.2   301  NAP301      0.2818
     40  O7N       -8.5670   61.9330   13.1070 O.2   301  NAP301     -0.2670
     41  N7N       -8.2640   64.0290   13.8550 N.am  301  NAP301     -0.0839
     42  C4N       -9.6340   61.0880   15.5690 C.2   301  NAP301      0.0033
     43  C5N      -10.0960   60.6860   16.8110 C.2   301  NAP301      0.0157
     44  C6N       -9.9290   61.5110   17.9160 C.2   301  NAP301      0.0633
     45  P2B        0.1550   73.5450   19.9650 P.3   301  NAP301      0.5328
     46  O1X        0.6320   73.3370   21.3720 O.3   301  NAP301     -0.1145
     47  O2X        1.0610   72.8420   18.9290 O.2   301  NAP301     -0.2224
     48  O3X       -0.1270   75.0190   19.5910 O.3   301  NAP301     -0.1145
@<TRIPOS>BOND
     1    40    39    2
     2    41    39   am
     3    39    38    1
     4    25    24    2
     5     3     1    2
     6    38    42    2
     7    38    37    1
     8    42    43    1
     9    24    26    1
    10    24    23    1
    11    24    27    1
    12     1     2    1
    13     1    23    1
    14     1     4    1
    15    37    36    1
    16    43    44    2
    17    27    28    1
    18     4     5    1
    19    36    44    1
    20    36    35    1
    21    28    29    1
    22    30    35    1
    23    30    29    1
    24    47    45    2
    25     5     6    1
    26    35    33    1
    27     8     9    1
    28     8    10    1
    29     8     6    1
    30    33    34    1
    31    33    31    1
    32    11    10    1
    33    11    45    1
    34    29    31    1
    35    48    45    1
    36    10    12    1
    37     6     7    1
    38    45    46    1
    39    31    32    1
    40     7    12    1
    41    12    13    1
    42    14    13    1
    43    14    15    1
    44    13    22    1
    45    15    16    2
    46    22    16    1
    47    22    21    2
    48    16    17    1
    49    21    20    1
    50    17    18    1
    51    17    19    2
    52    20    19    1
