@<TRIPOS>MOLECULE
4hfr_14M_A_1.pdb
 29 31 0 0 0
SMALL
GASTEIGER

@<TRIPOS>ATOM
      1  C1       -12.9740   55.6040   10.8690 C.2   302  14M302      0.3649
      2  C2       -12.0660   54.6730   10.1500 C.3   302  14M302      0.1157
      3  C3       -10.7530   54.5530   10.8510 C.3   302  14M302      0.0311
      4  C7        -9.8350   53.5880   10.1110 C.3   302  14M302      0.0040
      5  C8        -9.0320   55.1730   13.5710 C.2   302  14M302      0.1650
      6  C9        -7.1610   56.1200   14.5120 C.2   302  14M302      0.1622
      7  C10       -7.9230   57.1850   14.9750 C.2   302  14M302      0.0868
      8  C11       -9.2850   57.2290   14.7490 C.2   302  14M302     -0.0096
      9  C12       -9.8430   56.2030   14.0280 C.3   302  14M302      0.1010
     10  C13       -7.3130   58.3000   15.7110 C.2   302  14M302      0.2674
     11  C14       -5.2890   59.6580   15.7690 C.3   302  14M302      0.0956
     12  C15       -3.8230   59.2430   15.6750 C.3   302  14M302      0.0217
     13  C16       -2.9290   60.2820   16.3270 C.3   302  14M302      0.0018
     14  C19       -5.5940   61.0540   15.2300 C.3   302  14M302      0.0217
     15  C20       -5.0440   54.2770   14.2970 C.3   302  14M302      0.0647
     16  C21       -4.7780   54.2070   12.8080 C.3   302  14M302      0.0121
     17  C22       -4.1930   52.8520   12.4600 C.3   302  14M302      0.0009
     18  S1        -5.3900   55.9980   14.7150 S.3   302  14M302     -0.0822
     19  O1       -12.8460   56.8080   11.0190 O.co2 302  14M302     -0.2457
     20  O2       -14.0300   54.8980   11.2970 O.co2 302  14M302     -0.2457
     21  O3        -7.8570   58.7930   16.6960 O.2   302  14M302     -0.2683
     22  N1        -9.5540   54.1050   12.8070 N.pl3 302  14M302     -0.2867
     23  N2        -7.7270   55.1130   13.8430 N.2   302  14M302     -0.3848
     24  N3        -6.1320   58.6900   15.1370 N.am  302  14M302     -0.2034
     25  C4       -10.9090   54.2360   12.3150 C.3   302  14M302      0.0933
     26  C5        -8.6270   53.1210   12.2340 C.3   302  14M302      0.0928
     27  C6        -8.4730   53.4320   10.7490 C.3   302  14M302      0.0216
     28  C17       -3.2310   61.6690   15.7760 C.3   302  14M302      0.0001
     29  C18       -4.7040   62.0600   15.9270 C.3   302  14M302      0.0018
@<TRIPOS>BOND
     1     4    27    1
     2     4     3    1
     3     2     3    1
     4     2     1    1
     5    27    26    1
     6     3    25    1
     7     1    19   ar
     8     1    20   ar
     9    26    22    1
    10    25    22    1
    11    17    16    1
    12    22     5    1
    13    16    15    1
    14     5    23    2
    15     5     9    1
    16    23     6    2
    17     9     8    1
    18    15    18    1
    19     6    18    1
    20     6     7    1
    21     8     7    2
    22     7    10    1
    23    24    10   am
    24    24    11    1
    25    14    11    1
    26    14    29    1
    27    12    11    1
    28    12    13    1
    29    10    21    2
    30    28    29    1
    31    28    13    1
