@<TRIPOS>MOLECULE
4hg0_AMP_A_1.pdb
 23 25 0 0 0
SMALL
GASTEIGER

@<TRIPOS>ATOM
      1  P          2.8490   14.6050   58.1550 P.3   301  AMP301      0.5327
      2  O1P        1.9040   14.1680   59.2530 O.3   301  AMP301     -0.1145
      3  O2P        4.2670   14.1260   58.3460 O.3   301  AMP301     -0.1145
      4  O3P        2.3340   14.4250   56.7420 O.2   301  AMP301     -0.2224
      5  O5'        2.9080   16.1870   58.3740 O.3   301  AMP301     -0.2675
      6  C5'        3.5080   17.0500   57.4080 C.3   301  AMP301      0.1860
      7  C4'        2.6460   18.2530   57.0810 C.3   301  AMP301      0.1823
      8  O4'        1.3690   17.7990   56.5680 O.3   301  AMP301     -0.3135
      9  C3'        2.3280   19.1570   58.2620 C.3   301  AMP301      0.2184
     10  O3'        3.2760   20.2240   58.2950 O.3   301  AMP301     -0.2174
     11  C2'        0.9550   19.7250   57.9070 C.3   301  AMP301      0.2570
     12  O2'        1.0060   20.9260   57.1650 O.3   301  AMP301     -0.2130
     13  C1'        0.3130   18.5850   57.1020 C.3   301  AMP301      0.3186
     14  N9        -0.6130   17.7110   57.8390 N.pl3 301  AMP301     -0.1439
     15  C8        -0.2680   16.6840   58.6380 C.3   301  AMP301      0.3377
     16  N7        -1.3590   16.0510   59.1470 N.2   301  AMP301     -0.2095
     17  C5        -2.4470   16.6780   58.6530 C.2   301  AMP301      0.2526
     18  C6        -3.9220   16.5350   58.7830 C.2   301  AMP301      0.4393
     19  N6        -4.4740   15.5710   59.5550 N.pl3 301  AMP301      0.2180
     20  N1        -4.7030   17.3990   58.1010 N.2   301  AMP301      0.0021
     21  C2        -4.1860   18.3690   57.3230 C.3   301  AMP301      0.5254
     22  N3        -2.8620   18.5480   57.1670 N.2   301  AMP301     -0.0055
     23  C4        -1.9490   17.7600   57.7910 C.2   301  AMP301      0.3518
@<TRIPOS>BOND
     1     8     7    1
     2     8    13    1
     3     4     1    2
     4     7     6    1
     5     7     9    1
     6    13    14    1
     7    13    11    1
     8    12    11    1
     9    22    21    1
    10    22    23    2
    11    21    20    1
    12     6     5    1
    13    23    14    1
    14    23    17    1
    15    14    15    1
    16    11     9    1
    17    20    18    2
    18     1     3    1
    19     1     5    1
    20     1     2    1
    21     9    10    1
    22    15    16    1
    23    17    18    1
    24    17    16    2
    25    18    19    1
