@<TRIPOS>MOLECULE
4hg9_G3P_A_1.pdb
 10 9 0 0 0
SMALL
GASTEIGER

@<TRIPOS>ATOM
      1  O1         1.6270    1.1420   20.9590 O.3   204  G3P204     -0.2175
      2  C1         2.1400   -0.1930   21.0430 C.3   204  G3P204      0.2174
      3  C2         2.0210   -0.8720   19.6790 C.3   204  G3P204      0.2147
      4  O2         3.0120   -1.8880   19.4970 O.3   204  G3P204     -0.2176
      5  C3         0.6340   -1.4640   19.5240 C.3   204  G3P204      0.1892
      6  O1P        0.5210   -2.0670   18.2380 O.3   204  G3P204     -0.2674
      7  O4P       -1.6490   -0.7940   18.1000 O.3   204  G3P204     -0.1145
      8  O2P        0.1770   -0.4360   16.3830 O.2   204  G3P204     -0.2224
      9  O3P       -1.2100   -2.6420   16.4940 O.3   204  G3P204     -0.1145
     10  P         -0.5340   -1.4910   17.1840 P.3   204  G3P204      0.5327
@<TRIPOS>BOND
     1     8    10    2
     2     9    10    1
     3    10     7    1
     4    10     6    1
     5     6     5    1
     6     4     3    1
     7     5     3    1
     8     3     2    1
     9     1     2    1
