@<TRIPOS>MOLECULE
4hge_15V_A_1.pdb
 25 28 0 0 0
SMALL
GASTEIGER

@<TRIPOS>ATOM
      1  C4        62.7690   11.1470    3.2480 C.2   1201  15V1201     0.2041
      2  C14       57.4910    9.1960    1.0750 C.ar  1201  15V1201     0.0044
      3  C5        60.2430   11.2620    5.5780 C.3   1201  15V1201     0.2571
      4  C6        61.1730   12.0930    6.1860 C.2   1201  15V1201     0.1404
      5  C11       56.5310    8.6890    3.2510 C.ar  1201  15V1201     0.1661
      6  C7        58.8530   10.9100    5.9850 C.2   1201  15V1201     0.3689
      7  C8        54.7420    9.4020    6.0750 C.2   1201  15V1201     0.0899
      8  C9        55.9540   10.0020    6.4430 C.3   1201  15V1201     0.1625
      9  C10       56.7970    9.7500    5.3610 C.2   1201  15V1201     0.3274
     10  C12       53.5650    9.4620    7.0270 C.3   1201  15V1201     0.0517
     11  C13       57.0750    9.5820    2.3370 C.ar  1201  15V1201     0.0427
     12  N1        60.2410   10.0360    3.3840 N.2   1201  15V1201    -0.0609
     13  N2        61.9640   11.3650    4.2950 N.pl3 1201  15V1201    -0.0554
     14  C3        60.7560   10.8300    4.3550 C.2   1201  15V1201     0.3398
     15  N3        62.2850   12.1450    5.4140 N.2   1201  15V1201    -0.0850
     16 CL1        56.6330    5.2330    1.0290 Cl    1201  15V1201    -0.0821
     17  C16       56.8060    6.9470    1.5600 C.ar  1201  15V1201     0.0611
     18  C15       57.3680    7.8720    0.6900 C.ar  1201  15V1201     0.0116
     19  C17       56.3940    7.3610    2.8260 C.ar  1201  15V1201     0.0540
     20  N5        56.1200    9.0950    4.4470 N.pl3 1201  15V1201    -0.0607
     21  N4        54.8180    8.8490    4.8580 N.2   1201  15V1201    -0.0915
     22  N6        58.0960   10.1340    5.1780 N.am  1201  15V1201     0.0256
     23  O1        58.4750   11.4250    7.0300 O.2   1201  15V1201    -0.2418
     24  C2        61.0120    9.7780    2.3080 C.3   1201  15V1201     0.2930
     25  C1        62.3040   10.3320    2.2160 C.2   1201  15V1201     0.0772
@<TRIPOS>BOND
     1    18     2   ar
     2    18    17   ar
     3    16    17    1
     4     2    11   ar
     5    17    19   ar
     6    25    24    1
     7    25     1    2
     8    24    12    1
     9    11     5   ar
    10    19     5   ar
    11     1    13    1
    12     5    20    1
    13    12    14    2
    14    13    14    1
    15    13    15    1
    16    14     3    1
    17    20    21    1
    18    20     9    1
    19    21     7    2
    20    22     9    2
    21    22     6    1
    22     9     8    1
    23    15     4    2
    24     3     6    1
    25     3     4    1
    26     6    23    2
    27     7     8    1
    28     7    10    1
