@<TRIPOS>MOLECULE
4hgl_0YO_A_1.pdb
 28 32 0 0 0
SMALL
GASTEIGER

@<TRIPOS>ATOM
      1  C1        36.7820  -15.1190   28.3330 C.1   401  0YO401      0.0892
      2  C2        37.1110  -13.0370   29.2410 C.2   401  0YO401      0.1500
      3  C3        37.5800  -12.5030   27.9730 C.2   401  0YO401      0.1913
      4  C7        36.4720  -17.4800   27.5100 C.ar  401  0YO401      0.0141
      5  C8        35.9350  -18.7630   27.7280 C.ar  401  0YO401      0.0184
      6  C9        35.1930  -19.0000   29.0830 C.ar  401  0YO401      0.0814
      7  C10       34.6450  -20.2200   29.3340 C.ar  401  0YO401      0.0191
      8  C11       34.7490  -21.3670   28.3460 C.ar  401  0YO401      0.0015
      9  C12       35.4860  -21.1510   27.0590 C.ar  401  0YO401      0.0001
     10  C13       36.0810  -19.7990   26.7530 C.ar  401  0YO401      0.0015
     11  C14       38.1000  -13.0730   25.4250 C.2   401  0YO401      0.1656
     12  C15       38.5610  -11.8900   24.9850 C.2   401  0YO401      0.0490
     13  C16       38.5160  -13.4630   23.4580 C.2   401  0YO401      0.1440
     14  C19       39.2930  -13.2200   21.0360 C.2   401  0YO401      0.1137
     15  C20       38.6990  -14.1720   22.1290 C.2   401  0YO401      0.0543
     16  C21       37.6200  -10.3410   28.8580 C.3   401  0YO401      0.2527
     17  C17       38.8380  -12.1340   23.6810 C.2   401  0YO401      0.1152
     18  C18       39.3220  -11.3200   22.6690 C.1   401  0YO401      0.1571
     19  O1        39.5790  -10.1260   22.8500 O.2   401  0YO401     -0.2218
     20  N5        39.4900  -11.8730   21.4920 N.2   401  0YO401     -0.1745
     21  N4        38.0440  -14.0790   24.5320 N.2   401  0YO401     -0.3984
     22  C4        37.6240  -13.4180   26.8400 C.2   401  0YO401      0.2073
     23  N2        37.1990  -14.7820   27.0450 N.2   401  0YO401     -0.3446
     24  N1        36.7320  -14.2280   29.4580 N.2   401  0YO401     -0.1790
     25  C5        36.3550  -16.4610   28.5310 C.ar  401  0YO401      0.0931
     26  N3        35.1390  -17.9680   30.0350 N.ar  401  0YO401     -0.2431
     27  C6        35.6960  -16.7520   29.7840 C.ar  401  0YO401      0.1098
     28  O2        37.9540  -11.2280   27.9380 O.2   401  0YO401     -0.4671
@<TRIPOS>BOND
     1    14    20    1
     2    14    15    2
     3    20    18    2
     4    15    13    1
     5    18    19    2
     6    18    17    1
     7    13    17    1
     8    13    21    2
     9    17    12    2
    10    21    11    2
    11    12    11    1
    12    11    22    1
    13    10     9   ar
    14    10     5   ar
    15    22    23    2
    16    22     3    1
    17    23     1    2
    18     9     8   ar
    19     4     5   ar
    20     4    25   ar
    21     5     6   ar
    22    28     3    1
    23    28    16    1
    24     3     2    2
    25     1    25    1
    26     1    24    2
    27     8     7   ar
    28    25    27   ar
    29     6     7   ar
    30     6    26   ar
    31     2    24    1
    32    27    26   ar
