@<TRIPOS>MOLECULE
4hgs_15G_A_1.pdb
 28 31 0 0 0
SMALL
GASTEIGER

@<TRIPOS>ATOM
      1  C1        34.1660  -21.0210   28.1160 C.ar  401  15G401      0.1676
      2  C2        35.4500  -20.9500   27.4130 C.ar  401  15G401      0.0351
      3  C3        36.1820  -19.6970   27.5760 C.ar  401  15G401      0.0394
      4  C7        37.6410  -10.3210   27.9430 C.3   401  15G401      0.2525
      5  C8        38.3890  -12.2310   24.7490 C.2   401  15G401      0.0460
      6  C9        38.5870  -12.5050   23.3940 C.2   401  15G401      0.1107
      7  C10       39.1700  -11.6900   22.4480 C.1   401  15G401      0.1523
      8  C11       38.3700  -13.2660   20.7700 C.3   401  15G401      0.1453
      9  C12       38.1230  -14.3950   21.7660 C.3   401  15G401      0.0869
     10  C13       38.0790  -13.7710   23.1420 C.2   401  15G401      0.1219
     11  C14       37.7630  -13.3850   25.2070 C.2   401  15G401      0.1348
     12  C15       37.3400  -13.6150   26.6320 C.ar  401  15G401      0.0664
     13  C16       36.6440  -14.8680   26.9530 C.ar  401  15G401      0.0240
     14  C19       36.2970  -15.0460   28.3180 C.ar  401  15G401      0.1029
     15  C20       35.5510  -16.2660   28.6430 C.3   401  15G401      0.2508
     16  O1        39.6840  -10.6100   22.7060 O.2   401  15G401     -0.2222
     17  N2        39.1570  -12.1270   21.2490 N.2   401  15G401     -0.2020
     18  N3        37.5720  -14.3120   24.2540 N.2   401  15G401     -0.4053
     19  C17       37.6100  -12.6880   27.7260 C.ar  401  15G401      0.1602
     20  C18       37.2010  -13.0030   29.1040 C.ar  401  15G401      0.1354
     21  N1        36.5670  -14.1620   29.3620 N.ar  401  15G401     -0.2413
     22  O2        38.2750  -11.4370   27.6040 O.3   401  15G401     -0.4698
     23  O3        36.3100  -17.4170   28.5540 O.3   401  15G401     -0.4689
     24  C4        35.6000  -18.6190   28.4090 C.ar  401  15G401      0.1415
     25  C5        34.3130  -18.7310   29.1000 C.ar  401  15G401      0.0688
     26  C6        33.6150  -19.9420   28.9340 C.ar  401  15G401      0.1704
     27  F1        33.4620  -22.1380   28.0060 F     401  15G401     -0.2018
     28  F2        32.4690  -20.1030   29.4970 F     401  15G401     -0.2017
@<TRIPOS>BOND
     1     8    17    1
     2     8     9    1
     3    17     7    2
     4     9    10    1
     5     7    16    2
     6     7     6    1
     7    10     6    1
     8    10    18    2
     9     6     5    2
    10    18    11    2
    11     5    11    1
    12    11    12    1
    13    12    13   ar
    14    12    19   ar
    15    13    14   ar
    16     2     3   ar
    17     2     1   ar
    18     3    24   ar
    19    22    19    1
    20    22     4    1
    21    19    20   ar
    22    27     1    1
    23     1    26   ar
    24    14    15    1
    25    14    21   ar
    26    24    23    1
    27    24    25   ar
    28    23    15    1
    29    26    25   ar
    30    26    28    1
    31    20    21   ar
