@<TRIPOS>MOLECULE
4hgt_15G_A_1.pdb
 28 31 0 0 0
SMALL
GASTEIGER

@<TRIPOS>ATOM
      1  C1        -0.9820    8.1040   12.8520 C.ar  301  15G301      0.1676
      2  C2        -0.7780    6.8250   12.2190 C.ar  301  15G301      0.0351
      3  C3        -0.2370    5.8090   13.0790 C.ar  301  15G301      0.0394
      4  C7         4.1620   -0.3890   18.6340 C.3   301  15G301      0.2525
      5  C8         4.4810    3.5220   20.3760 C.2   301  15G301      0.0460
      6  C9         4.4740    4.4930   21.3860 C.2   301  15G301      0.1107
      7  C10        5.2770    4.5580   22.5200 C.1   301  15G301      0.1523
      8  C11        3.6680    6.2930   23.3900 C.3   301  15G301      0.1453
      9  C12        3.1720    6.6180   21.9760 C.3   301  15G301      0.0869
     10  C13        3.4990    5.4470   21.0870 C.2   301  15G301      0.1219
     11  C14        3.4670    3.9620   19.4830 C.2   301  15G301      0.1348
     12  C15        3.0220    3.2370   18.2230 C.ar  301  15G301      0.0664
     13  C16        2.2450    4.0070   17.2670 C.ar  301  15G301      0.0240
     14  C19        1.8020    3.2910   16.0940 C.ar  301  15G301      0.1029
     15  C20        0.9770    3.9590   15.0410 C.3   301  15G301      0.2508
     16  O1         6.2290    3.7960   22.6910 O.2   301  15G301     -0.2222
     17  N2         4.9390    5.5250   23.3950 N.2   301  15G301     -0.2020
     18  N3         2.8810    5.1360   19.9220 N.2   301  15G301     -0.4053
     19  C17        3.2810    1.8240   17.8960 C.ar  301  15G301      0.1602
     20  C18        2.7880    1.2040   16.6740 C.ar  301  15G301      0.1354
     21  N1         2.0630    1.9850   15.8310 N.ar  301  15G301     -0.2413
     22  O2         4.0220    1.0410   18.7930 O.3   301  15G301     -0.4698
     23  O3         0.6120    5.2680   15.4450 O.3   301  15G301     -0.4689
     24  C4         0.0650    6.1110   14.4730 C.ar  301  15G301      0.1415
     25  C5        -0.1470    7.3810   15.0680 C.ar  301  15G301      0.0688
     26  C6        -0.6760    8.3670   14.2250 C.ar  301  15G301      0.1704
     27  F1        -1.4920    9.1720   12.1990 F     301  15G301     -0.2018
     28  F2        -0.8840    9.5770   14.7340 F     301  15G301     -0.2017
@<TRIPOS>BOND
     1    27     1    1
     2     2     1   ar
     3     2     3   ar
     4     1    26   ar
     5     3    24   ar
     6    26    28    1
     7    26    25   ar
     8    24    25   ar
     9    24    23    1
    10    15    23    1
    11    15    14    1
    12    21    14   ar
    13    21    20   ar
    14    14    13   ar
    15    20    19   ar
    16    13    12   ar
    17    19    12   ar
    18    19    22    1
    19    12    11    1
    20     4    22    1
    21    11    18    2
    22    11     5    1
    23    18    10    2
    24     5     6    2
    25    10     6    1
    26    10     9    1
    27     6     7    1
    28     9     8    1
    29     7    16    2
    30     7    17    2
    31     8    17    1
