@<TRIPOS>MOLECULE
4hgw_KTU_B_1.pdb
 17 17 0 0 0
SMALL
GASTEIGER

@<TRIPOS>ATOM
      1  C11      -12.5540    0.6770    3.1430 C.3   301  KTU301      0.0341
      2  C10      -12.7160    1.4840    4.4230 C.2   301  KTU301      0.0143
      3  C9       -11.5950    1.9840    5.0580 C.2   301  KTU301      0.1708
      4  O2       -10.3510    1.7900    4.3960 O.2   301  KTU301     -0.4462
      5  C2        -9.1070    2.2610    4.8740 C.3   301  KTU301      0.3242
      6  C1        -9.2440    3.5040    5.6690 C.2   301  KTU301      0.4274
      7  O1A      -10.0360    4.4210    5.3320 O.co2 301  KTU301     -0.2389
      8  O1B       -8.5390    3.6350    6.7270 O.co2 301  KTU301     -0.2389
      9  C3        -8.2580    2.4120    3.6770 C.3   301  KTU301      0.0820
     10  O6        -8.5080    1.2130    5.7350 O.3   301  KTU301     -0.3167
     11  C6        -8.5240   -0.0720    5.0730 C.3   301  KTU301      0.1520
     12  C7        -7.7580   -1.0460    5.9460 C.3   301  KTU301      0.2117
     13  O7        -7.3200   -2.1400    5.2070 O.3   301  KTU301     -0.2177
     14  C8        -8.6270   -1.5410    7.0560 C.3   301  KTU301      0.2173
     15  O8        -9.8460   -0.8760    7.3140 O.3   301  KTU301     -0.2175
     16  C5        -7.9390   -0.0160    3.7120 C.3   301  KTU301      0.0326
     17  C4        -8.3040    1.1760    2.8830 C.3   301  KTU301      0.0095
@<TRIPOS>BOND
     1    17     9    1
     2    17    16    1
     3     1     2    1
     4     9     5    1
     5    16    11    1
     6     4     5    1
     7     4     3    1
     8     2     3    2
     9     5     6    1
    10     5    10    1
    11    11    10    1
    12    11    12    1
    13    13    12    1
    14     7     6   ar
    15     6     8   ar
    16    12    14    1
    17    14    15    1
