@<TRIPOS>MOLECULE
4hgw_KDO_B_1.pdb
 16 16 0 0 0
SMALL
GASTEIGER

@<TRIPOS>ATOM
      1  C1        -9.2460    0.8150    0.2580 C.2   302  KDO302      0.4179
      2  O1A      -10.3450    1.3530   -0.1430 O.co2 302  KDO302     -0.2401
      3  O1B       -9.2040   -0.4360    0.3900 O.co2 302  KDO302     -0.2401
      4  C2        -8.0580    1.6140    0.5170 C.3   302  KDO302      0.3156
      5  O2        -7.3910    1.2160    1.7570 O.3   302  KDO302     -0.1830
      6  C3        -7.1020    1.4000   -0.6260 C.3   302  KDO302      0.1064
      7  C4        -5.9740    2.3300   -0.5750 C.3   302  KDO302      0.1902
      8  O4        -5.1140    2.1180   -1.7240 O.3   302  KDO302     -0.2201
      9  C5        -6.4130    3.7390   -0.5090 C.3   302  KDO302      0.2118
     10  O5        -7.1570    4.0420   -1.6700 O.3   302  KDO302     -0.2177
     11  C6        -7.3180    3.9200    0.6870 C.3   302  KDO302      0.1838
     12  O6        -8.4390    3.0250    0.6450 O.3   302  KDO302     -0.3212
     13  C7        -7.9320    5.2830    0.7080 C.3   302  KDO302      0.2143
     14  O7        -6.9930    6.2790    0.4540 O.3   302  KDO302     -0.2176
     15  C8        -8.4800    5.5170    2.0930 C.3   302  KDO302      0.2174
     16  O8        -7.5290    5.6700    3.1180 O.3   302  KDO302     -0.2175
@<TRIPOS>BOND
     1     8     7    1
     2    10     9    1
     3     6     7    1
     4     6     4    1
     5     7     9    1
     6     9    11    1
     7     2     1   ar
     8     1     3   ar
     9     1     4    1
    10    14    13    1
    11     4    12    1
    12     4     5    1
    13    12    11    1
    14    11    13    1
    15    13    15    1
    16    15    16    1
