@<TRIPOS>MOLECULE
4hhb_HEM_A_1.pdb
 43 49 0 0 0
SMALL
GASTEIGER

@<TRIPOS>ATOM
      1  CHA        8.5850    7.9020  -18.2820 C.2   142  HEM142      0.0000
      2  CHB       10.3550    9.8050  -14.2080 C.2   142  HEM142      0.0000
      3  CHC        8.3410    6.3630  -11.5890 C.2   142  HEM142      0.0000
      4  CHD        6.9880    4.0880  -15.7440 C.2   142  HEM142      0.0000
      5  C1A        9.1410    8.7250  -17.5040 C.2   142  HEM142      0.0000
      6  C2A       10.0980    9.9520  -17.8870 C.2   142  HEM142      0.0000
      7  C3A       10.6360   10.4990  -16.7960 C.2   142  HEM142      0.0000
      8  C4A       10.1370    9.6790  -15.6110 C.2   142  HEM142      0.0000
      9  CMA       11.6130   11.5900  -16.7320 C.3   142  HEM142      0.0000
     10  CAA       10.4030   10.3670  -19.3120 C.3   142  HEM142      0.0000
     11  CBA        9.5520   11.2700  -19.6590 C.3   142  HEM142      0.0000
     12  CGA       10.7930   12.2860  -21.3420 C.3   142  HEM142      0.0000
     13  O1A        9.8870   11.3450  -21.9430 O.3   142  HEM142      0.0000
     14  O2A        9.3080   12.6980  -21.4870 O.3   142  HEM142      0.0000
     15  C1B        9.9380    9.2710  -13.1450 C.ar  142  HEM142      0.0000
     16  C2B       10.3180    9.3800  -11.8380 C.ar  142  HEM142      0.0000
     17  C3B        9.6600    8.3410  -11.0520 C.ar  142  HEM142      0.0000
     18  C4B        9.0280    7.4670  -11.9750 C.ar  142  HEM142      0.0000
     19  CMB       11.0480   10.6340  -11.3890 C.3   142  HEM142      0.0000
     20  CAB        9.5670    8.3360   -9.6340 C.2   142  HEM142      0.0000
     21  CBB       10.5760    8.4410   -8.7850 C.2   142  HEM142      0.0000
     22  C1C        7.6800    5.4980  -12.4990 C.2   142  HEM142      0.0000
     23  C2C        7.2700    4.1980  -12.1700 C.2   142  HEM142      0.0000
     24  C3C        6.9750    3.4410  -13.3040 C.2   142  HEM142      0.0000
     25  C4C        7.2070    4.4450  -14.5170 C.2   142  HEM142      0.0000
     26  CMC        7.0980    3.6180  -10.8450 C.3   142  HEM142      0.0000
     27  CAC        6.3420    2.1840  -13.5250 C.2   142  HEM142      0.0000
     28  CBC        6.7220    1.1530  -12.7660 C.2   142  HEM142      0.0000
     29  C1D        7.3020    4.9890  -16.7330 C.ar  142  HEM142      0.0000
     30  C2D        7.1410    4.6440  -18.2400 C.ar  142  HEM142      0.0000
     31  C3D        7.5400    5.7180  -18.8870 C.ar  142  HEM142      0.0000
     32  C4D        8.1720    6.5820  -18.1580 C.ar  142  HEM142      0.0000
     33  CMD        6.3540    3.3850  -18.8170 C.3   142  HEM142      0.0000
     34  CAD        7.6210    5.7400  -20.4080 C.3   142  HEM142      0.0000
     35  CBD        8.7640    5.3540  -20.7670 C.3   142  HEM142      0.0000
     36  CGD        9.1380    5.0490  -22.7980 C.2   142  HEM142      0.0000
     37  O1D        9.9980    5.8360  -22.7030 O.co2 142  HEM142      0.0000
     38  O2D        8.3490    4.9200  -23.1440 O.co2 142  HEM142      0.0000
     39  NA         9.3970    8.6860  -16.2110 N.2   142  HEM142      0.0000
     40  NB         9.3430    8.0120  -13.2980 N.ar  142  HEM142      0.0000
     41  NC         7.6040    5.5330  -13.9490 N.2   142  HEM142      0.0000
     42  ND         7.7150    6.2020  -16.7880 N.ar  142  HEM142      0.0000
     43 FE          8.1160    7.4030  -15.0450 Fe    142  HEM142      0.0000
@<TRIPOS>BOND
     1    38    36   ar
     2    36    37   ar
     3    13    14    1
     4    13    12    1
     5    14    12    1
     6    35    34    1
     7    34    31    1
     8    11    10    1
     9    10     6    1
    10    31    30   ar
    11    31    32   ar
    12    33    30    1
    13     1    32    2
    14     1     5    1
    15    30    29   ar
    16    32    42   ar
    17     6     5    1
    18     6     7    2
    19     5    39    2
    20     7     9    1
    21     7     8    1
    22    42    29   ar
    23    42    43    1
    24    29     4    2
    25    39     8    1
    26    39    43    1
    27     4    25    1
    28     8     2    2
    29    43    41    1
    30    43    40    1
    31    25    41    2
    32    25    24    1
    33     2    15    1
    34    41    22    1
    35    27    24    1
    36    27    28    2
    37    24    23    2
    38    40    15   ar
    39    40    18   ar
    40    15    16   ar
    41    22    23    1
    42    22     3    2
    43    23    26    1
    44    18     3    1
    45    18    17   ar
    46    16    19    1
    47    16    17   ar
    48    17    20    1
    49    20    21    2
