@<TRIPOS>MOLECULE
4hhg_DRU_A_1.pdb
 30 37 0 0 0
SMALL
GASTEIGER

@<TRIPOS>ATOM
      1 RU         10.1340  -19.7210  -14.6220 Ru    202  DRU202      0.0000
      2  N2        11.1170  -18.2940  -14.0840 N.pl3 202  DRU202      0.0000
      3  C3        10.9080  -17.0370  -14.5940 C.3   202  DRU202      0.0000
      4  C4        11.6870  -15.9740  -14.1910 C.2   202  DRU202      0.0000
      5  C5        12.7440  -16.2200  -13.2960 C.2   202  DRU202      0.0000
      6  C6        12.9090  -17.5220  -12.8250 C.2   202  DRU202      0.0000
      7  C7        12.1040  -18.5910  -13.2820 C.2   202  DRU202      0.0000
      8  C8        12.0610  -20.0880  -12.9290 C.3   202  DRU202      0.0000
      9  C9        12.9170  -20.8180  -12.0770 C.2   202  DRU202      0.0000
     10  C10       12.7150  -22.1920  -11.9240 C.2   202  DRU202      0.0000
     11  C11       11.7070  -22.8360  -12.5780 C.2   202  DRU202      0.0000
     12  C12       10.8910  -22.1080  -13.4140 C.2   202  DRU202      0.0000
     13  N13       11.0780  -20.8160  -13.5430 N.pl3 202  DRU202      0.0000
     14  N26       11.1880  -20.1090  -16.0620 N.pl3 202  DRU202      0.0000
     15  C27       12.2290  -19.3860  -16.3990 C.3   202  DRU202      0.0000
     16  C28       12.9780  -19.7300  -17.5340 C.2   202  DRU202      0.0000
     17  C29       12.6130  -20.8120  -18.3310 C.2   202  DRU202      0.0000
     18  C30       11.4870  -21.5690  -17.9660 C.2   202  DRU202      0.0000
     19  C31       10.8150  -21.1850  -16.7910 C.2   202  DRU202      0.0000
     20  C32        9.5990  -21.8140  -16.2230 C.3   202  DRU202      0.0000
     21  C33        8.9680  -22.9160  -16.8220 C.2   202  DRU202      0.0000
     22  C34        7.8790  -23.4470  -16.1880 C.2   202  DRU202      0.0000
     23  C35        7.4460  -22.8590  -15.0360 C.2   202  DRU202      0.0000
     24  C36        8.1040  -21.7540  -14.4850 C.2   202  DRU202      0.0000
     25  N37        9.1300  -21.1860  -15.1280 N.pl3 202  DRU202      0.0000
     26  CG         7.8910  -18.4320  -16.1690 C.ar  202  DRU202      0.0000
     27  CD2        7.6650  -17.0880  -16.4660 C.ar  202  DRU202      0.0000
     28  ND1        9.2430  -18.4590  -15.6380 N.ar  202  DRU202      0.0000
     29  CE1        9.6970  -17.0610  -15.4970 C.ar  202  DRU202      0.0000
     30  NE2        8.7230  -16.2820  -16.0750 N.ar  202  DRU202      0.0000
@<TRIPOS>BOND
     1    17    18    1
     2    17    16    2
     3    18    19    2
     4    16    15    1
     5    21    20    1
     6    21    22    2
     7    19    20    1
     8    19    14    1
     9    27    26   ar
    10    27    30   ar
    11    15    14    1
    12    20    25    1
    13    22    23    1
    14    26    28   ar
    15    30    29   ar
    16    14     1    1
    17    28    29   ar
    18    28     1    1
    19    29     3    1
    20    25     1    1
    21    25    24    1
    22    23    24    2
    23     1     2    1
    24     1    13    1
    25     3     4    1
    26     3     2    1
    27     4     5    2
    28     2     7    1
    29    13    12    1
    30    13     8    1
    31    12    11    2
    32     5     6    1
    33     7     8    1
    34     7     6    2
    35     8     9    1
    36    11    10    1
    37     9    10    2
