@<TRIPOS>MOLECULE
4hhh_RUB_A_1.pdb
 18 17 0 0 0
SMALL
GASTEIGER

@<TRIPOS>ATOM
      1  C1       -29.7620  -53.5820  -20.9080 C.3   501  RUB501      0.2203
      2  C2       -28.8000  -54.0680  -19.8930 C.2   501  RUB501      0.2137
      3  C3       -27.6830  -53.0840  -19.5800 C.3   501  RUB501      0.2438
      4  C4       -27.5380  -52.8440  -18.0790 C.3   501  RUB501      0.2194
      5  C5       -27.6890  -51.3350  -17.7760 C.3   501  RUB501      0.1896
      6  O1       -29.2880  -54.1770  -22.1200 O.3   501  RUB501     -0.2621
      7  O2       -28.9530  -55.2160  -19.4720 O.2   501  RUB501     -0.2906
      8  O3       -26.4190  -53.4430  -20.2380 O.3   501  RUB501     -0.2122
      9  O4       -28.5150  -53.6740  -17.4300 O.3   501  RUB501     -0.2172
     10  O5       -27.4480  -50.8710  -16.4240 O.3   501  RUB501     -0.2674
     11  P1       -29.6690  -53.5750  -23.5540 P.3   501  RUB501      0.5330
     12  P2       -26.3220  -49.7160  -16.0860 P.3   501  RUB501      0.5327
     13  O1P      -30.6280  -54.6510  -24.0670 O.3   501  RUB501     -0.1145
     14  O2P      -28.3310  -53.7060  -24.2330 O.2   501  RUB501     -0.2224
     15  O3P      -30.1680  -52.1610  -23.2870 O.3   501  RUB501     -0.1145
     16  O4P      -26.8270  -48.2600  -16.0920 O.3   501  RUB501     -0.1145
     17  O5P      -25.2780  -50.0210  -17.1790 O.2   501  RUB501     -0.2224
     18  O6P      -25.8380  -50.0990  -14.6880 O.3   501  RUB501     -0.1145
@<TRIPOS>BOND
     1    14    11    2
     2    13    11    1
     3    11    15    1
     4    11     6    1
     5     6     1    1
     6     1     2    1
     7     8     3    1
     8     2     3    1
     9     2     7    2
    10     3     4    1
    11     4     5    1
    12     4     9    1
    13     5    10    1
    14    17    12    2
    15    10    12    1
    16    16    12    1
    17    12    18    1
