@<TRIPOS>MOLECULE
4hhr_HEM_A_1.pdb
 43 50 0 0 0
SMALL
GASTEIGER

@<TRIPOS>ATOM
      1  CHA       20.8110   70.2400    3.7640 C.2   701  HEM701      0.0000
      2  CHB       22.1200   65.7670    2.3880 C.2   701  HEM701      0.0000
      3  CHC       23.4630   64.7530    6.9380 C.2   701  HEM701      0.0000
      4  CHD       22.7360   69.3930    8.2110 C.2   701  HEM701      0.0000
      5  C1A       21.0170   69.1260    3.0010 C.ar  701  HEM701      0.0000
      6  C2A       20.6830   68.9780    1.6170 C.ar  701  HEM701      0.0000
      7  C3A       21.0620   67.7410    1.2420 C.ar  701  HEM701      0.0000
      8  C4A       21.6300   67.0700    2.3800 C.ar  701  HEM701      0.0000
      9  CMA       20.9040   67.0950   -0.1580 C.3   701  HEM701      0.0000
     10  CAA       19.9800   70.0500    0.7750 C.3   701  HEM701      0.0000
     11  CBA       20.9160   70.8640   -0.1170 C.3   701  HEM701      0.0000
     12  CGA       20.0480   71.9170   -0.7770 C.2   701  HEM701      0.0000
     13  O1A       19.3020   71.6410   -1.7610 O.co2 701  HEM701      0.0000
     14  O2A       20.0490   73.0800   -0.3140 O.co2 701  HEM701      0.0000
     15  C1B       22.5030   65.0910    3.5240 C.2   701  HEM701      0.0000
     16  C2B       22.7490   63.6820    3.6180 C.2   701  HEM701      0.0000
     17  C3B       23.1030   63.4230    4.8850 C.2   701  HEM701      0.0000
     18  C4B       23.0900   64.6380    5.6310 C.2   701  HEM701      0.0000
     19  CMB       22.5940   62.7220    2.4130 C.3   701  HEM701      0.0000
     20  CAB       23.4780   62.0870    5.5840 C.2   701  HEM701      0.0000
     21  CBB       23.5810   60.9190    4.9490 C.2   701  HEM701      0.0000
     22  C1C       23.4950   65.9290    7.6620 C.ar  701  HEM701      0.0000
     23  C2C       24.1460   66.1590    8.9220 C.ar  701  HEM701      0.0000
     24  C3C       23.9320   67.4210    9.3020 C.ar  701  HEM701      0.0000
     25  C4C       23.1570   68.0710    8.2280 C.ar  701  HEM701      0.0000
     26  CMC       24.9240   65.0800    9.7260 C.3   701  HEM701      0.0000
     27  CAC       24.4650   68.0620   10.5800 C.2   701  HEM701      0.0000
     28  CBC       23.8430   69.0150   11.2940 C.2   701  HEM701      0.0000
     29  C1D       22.0940   69.9960    7.1560 C.2   701  HEM701      0.0000
     30  C2D       21.5540   71.3290    7.1850 C.2   701  HEM701      0.0000
     31  C3D       20.9470   71.5630    5.8640 C.2   701  HEM701      0.0000
     32  C4D       21.1770   70.3710    5.0850 C.2   701  HEM701      0.0000
     33  CMD       21.5780   72.3130    8.3540 C.3   701  HEM701      0.0000
     34  CAD       20.2820   72.8810    5.4250 C.3   701  HEM701      0.0000
     35  CBD       18.7620   72.7220    5.4350 C.3   701  HEM701      0.0000
     36  CGD       18.1260   73.9400    4.7970 C.2   701  HEM701      0.0000
     37  O1D       18.6100   74.4700    3.7670 O.co2 701  HEM701      0.0000
     38  O2D       17.1180   74.3750    5.3610 O.co2 701  HEM701      0.0000
     39  NA        21.6000   67.9650    3.4450 N.ar  701  HEM701      0.0000
     40  NB        22.7200   65.6650    4.7810 N.2   701  HEM701      0.0000
     41  NC        22.9490   67.1230    7.2310 N.ar  701  HEM701      0.0000
     42  ND        21.8400   69.4320    5.8950 N.2   701  HEM701      0.0000
     43 FE         22.3180   67.5570    5.3380 Fe    701  HEM701      0.0000
@<TRIPOS>BOND
     1    13    12   ar
     2    12    14   ar
     3    12    11    1
     4     9     7    1
     5    11    10    1
     6    10     6    1
     7     7     6   ar
     8     7     8   ar
     9     6     5   ar
    10     8     2    2
    11     8    39   ar
    12     2    15    1
    13    19    16    1
    14     5    39   ar
    15     5     1    2
    16    39    43    1
    17    15    16    1
    18    15    40    2
    19    16    17    2
    20     1    32    1
    21    37    36   ar
    22    40    43    1
    23    40    18    1
    24    36    38   ar
    25    36    35    1
    26    17    20    1
    27    17    18    1
    28    21    20    2
    29    32    31    1
    30    32    42    2
    31    43    42    1
    32    43    41    1
    33    34    35    1
    34    34    31    1
    35    18     3    2
    36    31    30    2
    37    42    29    1
    38     3    22    1
    39    29    30    1
    40    29     4    2
    41    30    33    1
    42    41    22   ar
    43    41    25   ar
    44    22    23   ar
    45     4    25    1
    46    25    24   ar
    47    23    24   ar
    48    23    26    1
    49    24    27    1
    50    27    28    2
