@<TRIPOS>MOLECULE
4hhs_HEM_A_1.pdb
 43 50 0 0 0
SMALL
GASTEIGER

@<TRIPOS>ATOM
      1  CHA       20.8370   70.4290    3.8330 C.2   701  HEM701      0.0000
      2  CHB       22.1020   65.9690    2.4050 C.2   701  HEM701      0.0000
      3  CHC       23.5410   64.9480    6.9070 C.2   701  HEM701      0.0000
      4  CHD       22.8170   69.5570    8.2510 C.2   701  HEM701      0.0000
      5  C1A       21.0420   69.3210    3.0410 C.ar  701  HEM701      0.0000
      6  C2A       20.6970   69.1870    1.6500 C.ar  701  HEM701      0.0000
      7  C3A       21.0610   67.9550    1.2490 C.ar  701  HEM701      0.0000
      8  C4A       21.6460   67.2770    2.3860 C.ar  701  HEM701      0.0000
      9  CMA       20.8790   67.3490   -0.1690 C.3   701  HEM701      0.0000
     10  CAA       20.0100   70.2890    0.8040 C.3   701  HEM701      0.0000
     11  CBA       20.9540   71.0700   -0.1000 C.3   701  HEM701      0.0000
     12  CGA       20.1240   72.1580   -0.7480 C.2   701  HEM701      0.0000
     13  O1A       19.3710   71.8650   -1.7090 O.co2 701  HEM701      0.0000
     14  O2A       20.1780   73.3230   -0.2870 O.co2 701  HEM701      0.0000
     15  C1B       22.5000   65.2750    3.5250 C.2   701  HEM701      0.0000
     16  C2B       22.7600   63.8430    3.6040 C.2   701  HEM701      0.0000
     17  C3B       23.1360   63.5700    4.8660 C.2   701  HEM701      0.0000
     18  C4B       23.1610   64.8140    5.5950 C.2   701  HEM701      0.0000
     19  CMB       22.5710   62.8630    2.4200 C.3   701  HEM701      0.0000
     20  CAB       23.5410   62.2480    5.5700 C.2   701  HEM701      0.0000
     21  CBB       23.7020   61.0860    4.9350 C.2   701  HEM701      0.0000
     22  C1C       23.5730   66.1220    7.6340 C.ar  701  HEM701      0.0000
     23  C2C       24.2110   66.3100    8.9300 C.ar  701  HEM701      0.0000
     24  C3C       24.0290   67.5830    9.2990 C.ar  701  HEM701      0.0000
     25  C4C       23.2450   68.2450    8.2590 C.ar  701  HEM701      0.0000
     26  CMC       25.0080   65.2380    9.7370 C.3   701  HEM701      0.0000
     27  CAC       24.5510   68.1800   10.6190 C.2   701  HEM701      0.0000
     28  CBC       23.9460   69.1620   11.3040 C.2   701  HEM701      0.0000
     29  C1D       22.1650   70.1800    7.2120 C.2   701  HEM701      0.0000
     30  C2D       21.6660   71.5340    7.2560 C.2   701  HEM701      0.0000
     31  C3D       21.0560   71.7870    5.8980 C.2   701  HEM701      0.0000
     32  C4D       21.2450   70.5730    5.1370 C.2   701  HEM701      0.0000
     33  CMD       21.7260   72.5440    8.4270 C.3   701  HEM701      0.0000
     34  CAD       20.3920   73.0960    5.4280 C.3   701  HEM701      0.0000
     35  CBD       18.8730   72.9770    5.5700 C.3   701  HEM701      0.0000
     36  CGD       18.2100   74.1730    4.9130 C.2   701  HEM701      0.0000
     37  O1D       18.7260   74.7460    3.9110 O.co2 701  HEM701      0.0000
     38  O2D       17.1520   74.5770    5.4250 O.co2 701  HEM701      0.0000
     39  NA        21.6290   68.1480    3.4710 N.ar  701  HEM701      0.0000
     40  NB        22.7690   65.8400    4.7570 N.2   701  HEM701      0.0000
     41  NC        23.0130   67.3350    7.2450 N.ar  701  HEM701      0.0000
     42  ND        21.9120   69.6520    5.9530 N.2   701  HEM701      0.0000
     43 FE         22.3870   67.7680    5.3540 Fe    701  HEM701      0.0000
@<TRIPOS>BOND
     1    13    12   ar
     2    12    14   ar
     3    12    11    1
     4     9     7    1
     5    11    10    1
     6    10     6    1
     7     7     6   ar
     8     7     8   ar
     9     6     5   ar
    10     8     2    2
    11     8    39   ar
    12     2    15    1
    13    19    16    1
    14     5    39   ar
    15     5     1    2
    16    39    43    1
    17    15    16    1
    18    15    40    2
    19    16    17    2
    20     1    32    1
    21    37    36   ar
    22    40    43    1
    23    40    18    1
    24    17    20    1
    25    17    18    1
    26    36    38   ar
    27    36    35    1
    28    21    20    2
    29    32    31    1
    30    32    42    2
    31    43    42    1
    32    43    41    1
    33    34    35    1
    34    34    31    1
    35    18     3    2
    36    31    30    2
    37    42    29    1
    38     3    22    1
    39    29    30    1
    40    29     4    2
    41    41    22   ar
    42    41    25   ar
    43    30    33    1
    44    22    23   ar
    45     4    25    1
    46    25    24   ar
    47    23    24   ar
    48    23    26    1
    49    24    27    1
    50    27    28    2
