@<TRIPOS>MOLECULE
4hi7_GSH_A_1.pdb
 20 19 0 0 0
SMALL
GASTEIGER

@<TRIPOS>ATOM
      1  N1        21.9160   19.3540   20.9860 N.3   301  GSH301     -0.1208
      2  CA1       21.8310   20.3170   19.8930 C.3   301  GSH301      0.1948
      3  C1        20.9970   19.8010   18.7520 C.2   301  GSH301      0.3819
      4  O11       20.8430   18.5500   18.5620 O.co2 301  GSH301     -0.2441
      5  O12       20.4300   20.6480   18.0120 O.co2 301  GSH301     -0.2441
      6  CB1       23.1960   20.7480   19.4060 C.3   301  GSH301      0.0402
      7  CG1       23.1560   22.1800   18.8610 C.3   301  GSH301      0.0889
      8  CD1       24.5920   22.6270   18.5810 C.2   301  GSH301      0.2418
      9  OE1       25.5520   22.4310   19.3180 O.2   301  GSH301     -0.2733
     10  N2        24.7940   23.2990   17.3270 N.am  301  GSH301     -0.1968
     11  CA2       26.0860   23.8030   16.9170 C.3   301  GSH301      0.1843
     12  C2        26.0480   25.2830   17.1240 C.2   301  GSH301      0.2627
     13  O2        25.0140   25.9450   17.0080 O.2   301  GSH301     -0.2714
     14  CB2       26.3640   23.5540   15.4600 C.3   301  GSH301      0.0997
     15  SG2       26.8350   21.8640   15.0940 S.3   301  GSH301     -0.0797
     16  N3        27.2670   25.9450   17.4810 N.am  301  GSH301     -0.1917
     17  CA3       27.2620   27.3770   17.6640 C.3   301  GSH301      0.2285
     18  C3        27.5240   27.7560   19.0890 C.2   301  GSH301      0.3865
     19  O31       27.4810   26.8910   20.0220 O.co2 301  GSH301     -0.2437
     20  O32       27.7820   28.9810   19.3290 O.co2 301  GSH301     -0.2437
@<TRIPOS>BOND
     1    15    14    1
     2    14    11    1
     3    11    12    1
     4    11    10    1
     5    13    12    2
     6    12    16   am
     7    10     8   am
     8    16    17    1
     9    17    18    1
    10     5     3   ar
    11     4     3   ar
    12     8     7    1
    13     8     9    2
    14     3     2    1
    15     7     6    1
    16    18    20   ar
    17    18    19   ar
    18     6     2    1
    19     2     1    1
