@<TRIPOS>MOLECULE
4hia_FMN_A_1.pdb
 31 33 0 0 0
SMALL
GASTEIGER

@<TRIPOS>ATOM
      1  N1        10.0620   -5.0090   31.7240 N.2   201  FMN201     -0.2887
      2  C2        10.3100   -6.2560   31.1860 C.1   201  FMN201      0.3669
      3  O2        11.4540   -6.5340   30.8210 O.2   201  FMN201     -0.1744
      4  N3         9.2960   -7.1800   31.0460 N.2   201  FMN201     -0.2300
      5  C4         8.0100   -6.8590   31.4480 C.1   201  FMN201      0.2513
      6  O4         7.0990   -7.6750   31.3250 O.2   201  FMN201     -0.2057
      7  C4A        7.7490   -5.6110   31.9990 C.2   201  FMN201      0.2706
      8  N5         6.4800   -5.2880   32.4130 N.2   201  FMN201     -0.3841
      9  C5A        6.2420   -4.0420   32.9480 C.2   201  FMN201      0.1452
     10  C6         4.9540   -3.7180   33.3680 C.2   201  FMN201      0.0252
     11  C7         4.7040   -2.4580   33.9140 C.2   201  FMN201     -0.0375
     12  C7M        3.3090   -2.1080   34.3600 C.3   201  FMN201      0.0268
     13  C8         5.7420   -1.5370   34.0410 C.3   201  FMN201      0.0417
     14  C8M        5.4610   -0.1770   34.6240 C.3   201  FMN201      0.0091
     15  C9         7.0330   -1.8580   33.6190 C.2   201  FMN201     -0.0049
     16  C9A        7.2840   -3.1150   33.0710 C.2   201  FMN201      0.0795
     17  N10        8.5620   -3.4560   32.6790 N.pl3 201  FMN201     -0.2545
     18  C10        8.7840   -4.6890   32.1300 C.2   201  FMN201      0.2449
     19  C1'        9.7080   -2.4700   32.7150 C.3   201  FMN201      0.1336
     20  C2'       10.6620   -2.4010   33.8690 C.3   201  FMN201      0.2048
     21  O2'        9.8620   -2.4800   35.0150 O.3   201  FMN201     -0.2185
     22  C3'       11.4200   -1.0680   33.7760 C.3   201  FMN201      0.2165
     23  O3'       10.4860   -0.0050   33.7550 O.3   201  FMN201     -0.2175
     24  C4'       12.2800   -0.9380   32.5100 C.3   201  FMN201      0.2147
     25  O4'       13.2880   -1.9360   32.4700 O.3   201  FMN201     -0.2176
     26  C5'       12.9240    0.4510   32.3490 C.3   201  FMN201      0.1892
     27  O5'       13.5470    0.8600   33.5550 O.3   201  FMN201     -0.2674
     28  P         15.1030    0.5590   33.8290 P.3   201  FMN201      0.5327
     29  O1P       15.4360    1.2970   35.1040 O.3   201  FMN201     -0.1145
     30  O2P       15.2400   -0.9290   34.0310 O.3   201  FMN201     -0.1145
     31  O3P       15.9700    1.0200   32.6860 O.2   201  FMN201     -0.2224
@<TRIPOS>BOND
     1     3     2    2
     2     4     2    2
     3     4     5    2
     4     2     1    2
     5     6     5    2
     6     5     7    1
     7     1    18    2
     8     7    18    1
     9     7     8    2
    10    18    17    1
    11    26    24    1
    12    26    27    1
    13     8     9    2
    14    25    24    1
    15    24    22    1
    16    17    19    1
    17    17    16    1
    18    31    28    2
    19    19    20    1
    20     9    16    1
    21     9    10    1
    22    16    15    2
    23    10    11    2
    24    27    28    1
    25    15    13    1
    26    23    22    1
    27    22    20    1
    28    28    30    1
    29    28    29    1
    30    20    21    1
    31    11    13    1
    32    11    12    1
    33    13    14    1
