@<TRIPOS>MOLECULE
4hib_16B_A_1.pdb
 22 23 0 0 0
SMALL
GASTEIGER

@<TRIPOS>ATOM
      1  OAA        3.5880   14.1130   29.5230 O.2   304  16B304     -0.2224
      2  PAE        3.7240   13.3390   30.9310 P.3   304  16B304      0.5327
      3  OAD        2.2200   12.9340   31.3470 O.3   304  16B304     -0.1145
      4  OAF        4.4720   14.1400   31.9170 O.3   304  16B304     -0.1145
      5  O5'        4.4690   11.8910   30.7580 O.3   304  16B304     -0.2675
      6  C5'        4.2170   10.7200   29.8890 C.3   304  16B304      0.1859
      7  C4'        5.3260    9.5450   30.1280 C.3   304  16B304      0.1801
      8  O4'        4.8700    8.4140   29.2380 O.3   304  16B304     -0.3320
      9  C3'        6.8580    9.7630   29.7540 C.3   304  16B304      0.2158
     10  O3'        7.8390    9.1730   30.6690 O.3   304  16B304     -0.2175
     11  C2'        7.0140    9.1240   28.3730 C.3   304  16B304      0.2319
     12  O2'        8.4460    8.8760   28.0910 O.3   304  16B304     -0.2157
     13  C1'        6.1000    7.8720   28.5030 C.3   304  16B304      0.2400
     14  NAM        5.6950    7.2810   27.1750 N.am  304  16B304     -0.1778
     15  CAL        4.9690    6.1050   27.0010 C.1   304  16B304      0.2758
     16  OAK        4.6540    5.4300   27.9640 O.2   304  16B304     -0.1925
     17  NAG        4.6210    5.6850   25.7610 N.2   304  16B304     -0.2989
     18  CAN        6.0170    8.0590   26.0530 C.2   304  16B304      0.0838
     19  CAI        5.6540    7.6270   24.7930 C.2   304  16B304      0.0722
     20  CAH        4.9620    6.4260   24.6730 C.2   304  16B304      0.2557
     21  NAB        4.6240    6.1110   23.4540 N.4   304  16B304     -0.0627
     22  OAC        3.7220    7.0360   22.9670 O.3   304  16B304     -0.0579
@<TRIPOS>BOND
     1    22    21    1
     2    21    20    1
     3    20    19    1
     4    20    17    2
     5    19    18    2
     6    17    15    2
     7    18    14    1
     8    15    14   am
     9    15    16    2
    10    14    13    1
    11    12    11    1
    12    11    13    1
    13    11     9    1
    14    13     8    1
    15     8     7    1
    16     1     2    2
    17     9     7    1
    18     9    10    1
    19     6     7    1
    20     6     5    1
    21     5     2    1
    22     2     3    1
    23     2     4    1
