@<TRIPOS>MOLECULE
4hj1_BMA_A_1.pdb
 11 11 0 0 0
SMALL
GASTEIGER

@<TRIPOS>ATOM
      1  C1       191.8210   -4.2280   57.2860 C.3   1204  BMA1204     0.1777
      2  C2       191.0130   -5.0390   58.2870 C.3   1204  BMA1204     0.2141
      3  C3       190.3480   -4.0460   59.2390 C.3   1204  BMA1204     0.2173
      4  C4       191.3800   -3.0640   59.8250 C.3   1204  BMA1204     0.2142
      5  C5       192.2460   -2.4540   58.7120 C.3   1204  BMA1204     0.1810
      6  C6       193.4910   -1.6630   59.0910 C.3   1204  BMA1204     0.2141
      7  O2       191.8740   -5.8920   59.0420 O.3   1204  BMA1204    -0.2176
      8  O3       189.6600   -4.7650   60.2730 O.3   1204  BMA1204    -0.2175
      9  O4       190.7170   -2.0210   60.5390 O.3   1204  BMA1204    -0.2176
     10  O5       192.8060   -3.5240   57.9950 O.3   1204  BMA1204    -0.3481
     11  O6       193.5690   -1.5170   60.5420 O.3   1204  BMA1204    -0.2176
@<TRIPOS>BOND
     1     1    10    1
     2     1     2    1
     3    10     5    1
     4     2     7    1
     5     2     3    1
     6     5     6    1
     7     5     4    1
     8     6    11    1
     9     3     4    1
    10     3     8    1
    11     4     9    1
