@<TRIPOS>MOLECULE
4hj3_FMN_A_1.pdb
 31 33 0 0 0
SMALL
GASTEIGER

@<TRIPOS>ATOM
      1  N1       -49.2610    0.3550  -13.2870 N.2   201  FMN201     -0.2890
      2  C2       -48.3180    1.2480  -13.7600 C.1   201  FMN201      0.3669
      3  O2       -47.4380    0.8770  -14.5520 O.2   201  FMN201     -0.1744
      4  N3       -48.3610    2.5640  -13.3360 N.2   201  FMN201     -0.2300
      5  C4       -49.3350    2.9920  -12.4590 C.1   201  FMN201      0.2513
      6  O4       -49.3380    4.1740  -12.1240 O.2   201  FMN201     -0.2057
      7  C4A      -50.2900    2.0910  -11.9720 C.2   201  FMN201      0.2700
      8  N5       -51.2800    2.4830  -11.0780 N.2   201  FMN201     -0.3878
      9  C5A      -52.2250    1.5820  -10.6220 C.2   201  FMN201      0.1320
     10  C6       -53.2210    1.9850   -9.7340 C.2   201  FMN201      0.0250
     11  C7       -54.1450    1.0510   -9.2800 C.2   201  FMN201     -0.0238
     12  C7M      -55.2150    1.4810   -8.3230 C.3   201  FMN201      0.0308
     13  C8       -54.0790   -0.2790   -9.7230 C.2   201  FMN201     -0.0280
     14  C8M      -55.0620   -1.3060   -9.2550 C.3   201  FMN201      0.0304
     15  C9       -53.0850   -0.6730  -10.5950 C.2   201  FMN201     -0.0041
     16  C9A      -52.1620    0.2510  -11.0490 C.3   201  FMN201      0.1497
     17  N10      -51.1770   -0.1550  -11.9450 N.pl3 201  FMN201     -0.2691
     18  C10      -50.2400    0.7650  -12.4020 C.2   201  FMN201      0.2416
     19  C1'      -51.0700   -1.5900  -12.4020 C.3   201  FMN201      0.1294
     20  C2'      -51.8890   -2.0290  -13.6030 C.3   201  FMN201      0.2044
     21  O2'      -53.2150   -1.5340  -13.5260 O.3   201  FMN201     -0.2185
     22  C3'      -51.9060   -3.5640  -13.6250 C.3   201  FMN201      0.2164
     23  O3'      -52.9250   -4.0610  -12.7600 O.3   201  FMN201     -0.2175
     24  C4'      -50.5120   -4.1540  -13.3460 C.3   201  FMN201      0.2147
     25  O4'      -49.6630   -3.8030  -14.4330 O.3   201  FMN201     -0.2176
     26  C5'      -50.5400   -5.6770  -13.2260 C.3   201  FMN201      0.1892
     27  O5'      -51.3310   -6.0050  -14.3360 O.3   201  FMN201     -0.2674
     28  P        -50.9500   -6.9830  -15.5720 P.3   201  FMN201      0.5327
     29  O1P      -52.0260   -8.0610  -15.4430 O.3   201  FMN201     -0.1145
     30  O2P      -51.1720   -6.1880  -16.8200 O.2   201  FMN201     -0.2224
     31  O3P      -49.4850   -7.4590  -15.5390 O.3   201  FMN201     -0.1145
@<TRIPOS>BOND
     1    30    28    2
     2    28    31    1
     3    28    29    1
     4    28    27    1
     5     3     2    2
     6    25    24    1
     7    27    26    1
     8     2     4    2
     9     2     1    2
    10    22    20    1
    11    22    24    1
    12    22    23    1
    13    20    21    1
    14    20    19    1
    15    24    26    1
    16     4     5    2
    17     1    18    2
    18     5     6    2
    19     5     7    1
    20    18     7    1
    21    18    17    1
    22    19    17    1
    23     7     8    2
    24    17    16    1
    25     8     9    2
    26    16     9    1
    27    16    15    1
    28     9    10    1
    29    15    13    2
    30    10    11    2
    31    13    11    1
    32    13    14    1
    33    11    12    1
