@<TRIPOS>MOLECULE
4hj4_FMN_A_1.pdb
 31 33 0 0 0
SMALL
GASTEIGER

@<TRIPOS>ATOM
      1  N1       -12.1390   -9.2740   13.0650 N.2   201  FMN201     -0.2887
      2  C2       -11.8700   -9.8040   11.8170 C.1   201  FMN201      0.3669
      3  O2       -12.2710  -10.9290   11.5180 O.2   201  FMN201     -0.1744
      4  N3       -11.1500   -9.0870   10.8900 N.2   201  FMN201     -0.2300
      5  C4       -10.6980   -7.8270   11.2070 C.1   201  FMN201      0.2513
      6  O4       -10.0580   -7.1690   10.3790 O.2   201  FMN201     -0.2057
      7  C4A      -10.9740   -7.2900   12.4550 C.2   201  FMN201      0.2706
      8  N5       -10.5130   -6.0290   12.7680 N.2   201  FMN201     -0.3841
      9  C5A      -10.7740   -5.4820   14.0060 C.2   201  FMN201      0.1452
     10  C6       -10.3200   -4.2140   14.2990 C.2   201  FMN201      0.0252
     11  C7       -10.5730   -3.6430   15.5340 C.2   201  FMN201     -0.0375
     12  C7M      -10.0380   -2.2610   15.8070 C.3   201  FMN201      0.0268
     13  C8       -11.2950   -4.3630   16.4950 C.3   201  FMN201      0.0417
     14  C8M      -11.5720   -3.7590   17.8520 C.3   201  FMN201      0.0091
     15  C9       -11.7560   -5.6480   16.1990 C.2   201  FMN201     -0.0049
     16  C9A      -11.4930   -6.1990   14.9500 C.2   201  FMN201      0.0795
     17  N10      -11.9660   -7.4530   14.6260 N.pl3 201  FMN201     -0.2545
     18  C10      -11.6980   -8.0120   13.3870 C.2   201  FMN201      0.2449
     19  C1'      -12.6780   -8.2140   15.6890 C.3   201  FMN201      0.1336
     20  C2'      -14.1730   -8.3240   15.7120 C.3   201  FMN201      0.2048
     21  O2'      -14.7620   -7.0480   15.7380 O.3   201  FMN201     -0.2185
     22  C3'      -14.4040   -9.0430   17.0330 C.3   201  FMN201      0.2165
     23  O3'      -13.8040   -8.3100   18.0720 O.3   201  FMN201     -0.2175
     24  C4'      -13.7790  -10.4330   17.0690 C.3   201  FMN201      0.2147
     25  O4'      -14.3150  -11.2410   16.0460 O.3   201  FMN201     -0.2176
     26  C5'      -14.2020  -11.0630   18.3750 C.3   201  FMN201      0.1892
     27  O5'      -15.5950  -10.8640   18.3380 O.3   201  FMN201     -0.2674
     28  P        -16.6710  -11.9240   18.8610 P.3   201  FMN201      0.5327
     29  O1P      -17.5870  -11.1710   19.8000 O.3   201  FMN201     -0.1145
     30  O2P      -17.3400  -12.4320   17.6030 O.2   201  FMN201     -0.2224
     31  O3P      -16.0530  -13.1000   19.5880 O.3   201  FMN201     -0.1145
@<TRIPOS>BOND
     1     6     5    2
     2     4     5    2
     3     4     2    2
     4     5     7    1
     5     3     2    2
     6     2     1    2
     7     7     8    2
     8     7    18    1
     9     8     9    2
    10     1    18    2
    11    18    17    1
    12     9    10    1
    13     9    16    1
    14    10    11    2
    15    17    16    1
    16    17    19    1
    17    16    15    2
    18    11    12    1
    19    11    13    1
    20    19    20    1
    21    20    21    1
    22    20    22    1
    23    25    24    1
    24    15    13    1
    25    13    14    1
    26    22    24    1
    27    22    23    1
    28    24    26    1
    29    30    28    2
    30    27    26    1
    31    27    28    1
    32    28    31    1
    33    28    29    1
