@<TRIPOS>MOLECULE
4hj6_FMN_A_1.pdb
 31 33 0 0 0
SMALL
GASTEIGER

@<TRIPOS>ATOM
      1  N1        51.0050   -0.6650  -36.5590 N.2   201  FMN201     -0.2890
      2  C2        50.0830   -1.6040  -36.9950 C.1   201  FMN201      0.3669
      3  O2        49.2230   -1.3260  -37.8430 O.2   201  FMN201     -0.1744
      4  N3        50.0990   -2.8830  -36.4690 N.2   201  FMN201     -0.2300
      5  C4        51.0390   -3.2340  -35.5110 C.1   201  FMN201      0.2513
      6  O4        51.0610   -4.3770  -35.0350 O.2   201  FMN201     -0.2057
      7  C4A       51.9680   -2.2950  -35.0860 C.2   201  FMN201      0.2700
      8  N5        52.9170   -2.6610  -34.1590 N.2   201  FMN201     -0.3878
      9  C5A       53.8360   -1.7430  -33.7020 C.2   201  FMN201      0.1320
     10  C6        54.7710   -2.1130  -32.7450 C.2   201  FMN201      0.0250
     11  C7        55.7080   -1.1870  -32.2940 C.2   201  FMN201     -0.0238
     12  C7M       56.7250   -1.5910  -31.2640 C.3   201  FMN201      0.0308
     13  C8        55.6980    0.1140  -32.7990 C.2   201  FMN201     -0.0280
     14  C8M       56.7050    1.1160  -32.3150 C.3   201  FMN201      0.0304
     15  C9        54.7590    0.4810  -33.7520 C.2   201  FMN201     -0.0041
     16  C9A       53.8210   -0.4410  -34.2090 C.3   201  FMN201      0.1497
     17  N10       52.8870   -0.0790  -35.1740 N.pl3 201  FMN201     -0.2691
     18  C10       51.9490   -1.0030  -35.6070 C.2   201  FMN201      0.2416
     19  C1'       52.8270    1.3310  -35.6960 C.3   201  FMN201      0.1294
     20  C2'       53.6210    1.7630  -36.9060 C.3   201  FMN201      0.2044
     21  O2'       54.9450    1.3060  -36.7330 O.3   201  FMN201     -0.2185
     22  C3'       53.5640    3.2980  -36.8850 C.3   201  FMN201      0.2164
     23  O3'       54.1890    3.7340  -35.7000 O.3   201  FMN201     -0.2175
     24  C4'       52.1510    3.8970  -36.8900 C.3   201  FMN201      0.2147
     25  O4'       51.5070    3.6530  -38.1250 O.3   201  FMN201     -0.2176
     26  C5'       52.1310    5.4110  -36.6480 C.3   201  FMN201      0.1892
     27  O5'       53.0810    6.0690  -37.4670 O.3   201  FMN201     -0.2674
     28  P         52.7250    6.5600  -38.9800 P.3   201  FMN201      0.5327
     29  O1P       53.8750    7.4280  -39.4270 O.3   201  FMN201     -0.1145
     30  O2P       52.6450    5.3730  -39.9130 O.2   201  FMN201     -0.2224
     31  O3P       51.4180    7.3080  -39.0640 O.3   201  FMN201     -0.1145
@<TRIPOS>BOND
     1    30    28    2
     2    29    28    1
     3    31    28    1
     4    28    27    1
     5    25    24    1
     6     3     2    2
     7    27    26    1
     8     2     1    2
     9     2     4    2
    10    20    22    1
    11    20    21    1
    12    20    19    1
    13    24    22    1
    14    24    26    1
    15    22    23    1
    16     1    18    2
    17     4     5    2
    18    19    17    1
    19    18    17    1
    20    18     7    1
    21     5     7    1
    22     5     6    2
    23    17    16    1
    24     7     8    2
    25    16    15    1
    26    16     9    1
    27     8     9    2
    28    15    13    2
    29     9    10    1
    30    13    14    1
    31    13    11    1
    32    10    11    2
    33    11    12    1
