@<TRIPOS>MOLECULE
4hjf_C2E_A_1.pdb
 46 52 0 0 0
SMALL
GASTEIGER

@<TRIPOS>ATOM
      1  P1       -19.7750   22.3630  -12.3260 P.3   603  C2E603      0.2141
      2  O2P      -20.9700   23.2820  -12.4040 O.2   603  C2E603     -0.5172
      3  O1P      -19.5930   21.4480  -11.1770 O.3   603  C2E603     -0.4373
      4  O5'      -18.4580   23.2660  -12.4560 O.3   603  C2E603     -0.3114
      5  C5'      -18.3950   24.2800  -13.4530 C.3   603  C2E603      0.1812
      6  C4'      -17.0020   24.7830  -13.5500 C.3   603  C2E603      0.1771
      7  O4'      -16.6750   25.5470  -12.3540 O.3   603  C2E603     -0.3327
      8  C3'      -15.8810   23.7940  -13.6930 C.3   603  C2E603      0.1857
      9  O3'      -15.8100   23.2840  -15.0360 O.3   603  C2E603     -0.3112
     10  C2'      -14.6640   24.5910  -13.2190 C.3   603  C2E603      0.2282
     11  O2'      -14.2220   25.3920  -14.3150 O.3   603  C2E603     -0.2159
     12  C1'      -15.2540   25.4340  -12.0770 C.3   603  C2E603      0.2292
     13  N9       -15.0190   24.8000  -10.7870 N.pl3 603  C2E603     -0.2354
     14  C8       -15.7400   23.8060  -10.2220 C.3   603  C2E603      0.2246
     15  N7       -15.2100   23.4630   -9.0180 N.2   603  C2E603     -0.2322
     16  C5       -14.1310   24.2490   -8.8390 C.2   603  C2E603      0.2182
     17  C6       -13.1160   24.4290   -7.8050 C.1   603  C2E603      0.2372
     18  O6       -13.1080   23.7240   -6.8140 O.2   603  C2E603     -0.2069
     19  N1       -12.2090   25.3900   -8.0130 N.2   603  C2E603     -0.2485
     20  C2       -12.1730   26.1540   -9.1130 C.1   603  C2E603      0.2531
     21  N2       -11.2610   27.1010   -9.2400 N.pl3 603  C2E603     -0.0226
     22  N3       -13.0740   26.0920  -10.1200 N.2   603  C2E603     -0.3074
     23  C4       -14.0460   25.1460   -9.9910 C.2   603  C2E603      0.2300
     24  P11      -15.0130   21.8750  -15.2750 P.3   603  C2E603      0.2141
     25  O21      -15.0710   21.7500  -16.7670 O.2   603  C2E603     -0.5172
     26  O11      -13.6870   21.8490  -14.5210 O.3   603  C2E603     -0.4373
     27  O5A      -15.9140   20.7840  -14.6420 O.3   603  C2E603     -0.3114
     28  C5A      -16.8810   20.0140  -15.4040 C.3   603  C2E603      0.1812
     29  C4A      -18.3070   20.5580  -15.3010 C.3   603  C2E603      0.1771
     30  O4A      -19.2000   19.7910  -16.2160 O.3   603  C2E603     -0.3327
     31  C3A      -18.9460   20.4320  -13.9100 C.3   603  C2E603      0.1857
     32  O3A      -19.8280   21.5400  -13.7000 O.3   603  C2E603     -0.3112
     33  C2A      -19.7570   19.1310  -14.0620 C.3   603  C2E603      0.2282
     34  O2A      -20.8250   19.0240  -13.1310 O.3   603  C2E603     -0.2159
     35  C1A      -20.2770   19.2890  -15.4790 C.3   603  C2E603      0.2292
     36  N91      -20.7260   18.0220  -16.0700 N.pl3 603  C2E603     -0.2354
     37  C81      -20.1270   16.8270  -15.9550 C.3   603  C2E603      0.2246
     38  N71      -20.7800   15.8620  -16.6750 N.2   603  C2E603     -0.2322
     39  C51      -21.8150   16.5340  -17.2310 C.2   603  C2E603      0.2182
     40  C61      -22.8890   16.1070  -18.0910 C.1   603  C2E603      0.2372
     41  O61      -22.9270   14.9330  -18.4110 O.2   603  C2E603     -0.2069
     42  N11      -23.7270   17.0680  -18.4670 N.2   603  C2E603     -0.2485
     43  C21      -23.6260   18.3740  -18.1110 C.1   603  C2E603      0.2531
     44  N21      -24.5580   19.2490  -18.5790 N.pl3 603  C2E603     -0.0226
     45  N31      -22.6700   18.8490  -17.2890 N.2   603  C2E603     -0.3074
     46  C41      -21.7570   17.9420  -16.8620 C.2   603  C2E603      0.2300
@<TRIPOS>BOND
     1    44    43    1
     2    42    43    2
     3    42    40    2
     4    41    40    2
     5    43    45    2
     6    40    39    1
     7    45    46    2
     8    39    46    1
     9    39    38    2
    10    46    36    1
    11    25    24    2
    12    38    37    1
    13    30    35    1
    14    30    29    1
    15    36    37    1
    16    36    35    1
    17    35    33    1
    18    28    29    1
    19    28    27    1
    20    29    31    1
    21    24     9    1
    22    24    27    1
    23    24    26    1
    24     9     8    1
    25    11    10    1
    26    33    31    1
    27    33    34    1
    28    31    32    1
    29    32     1    1
    30     8     6    1
    31     8    10    1
    32     6     5    1
    33     6     7    1
    34     5     4    1
    35    10    12    1
    36     4     1    1
    37     2     1    2
    38     7    12    1
    39     1     3    1
    40    12    13    1
    41    13    14    1
    42    13    23    1
    43    14    15    1
    44    22    23    2
    45    22    20    2
    46    23    16    1
    47    21    20    1
    48    20    19    2
    49    15    16    2
    50    16    17    1
    51    19    17    2
    52    17    18    2
