@<TRIPOS>MOLECULE
4hjh_G6Q_A_1.pdb
 16 15 0 0 0
SMALL
GASTEIGER

@<TRIPOS>ATOM
      1  C1        40.0350   41.8340   17.1440 C.3   544  G6Q544      0.2175
      2  C2        39.9520   40.5410   17.8880 C.3   544  G6Q544      0.2175
      3  C3        40.0520   39.4720   16.7940 C.3   544  G6Q544      0.2175
      4  C4        38.5510   39.2520   16.4660 C.3   544  G6Q544      0.2174
      5  C5        37.8380   40.2400   15.5210 C.3   544  G6Q544      0.2147
      6  C6        36.7470   41.1420   16.1100 C.3   544  G6Q544      0.1892
      7  O1        38.9580   42.1430   16.6150 O.3   544  G6Q544     -0.2175
      8  O2        40.7230   40.3920   19.0810 O.3   544  G6Q544     -0.2175
      9  O3        40.7350   38.2750   17.2400 O.3   544  G6Q544     -0.2175
     10  O4        38.3660   38.0560   15.7400 O.3   544  G6Q544     -0.2175
     11  O5        38.7240   40.9900   14.6730 O.3   544  G6Q544     -0.2176
     12  O6        36.4270   40.9770   17.4870 O.3   544  G6Q544     -0.2674
     13  P         35.2840   41.9950   18.0160 P.3   544  G6Q544      0.5327
     14  O1P       34.1720   41.8120   17.0590 O.2   544  G6Q544     -0.2224
     15  O2P       35.0910   41.4050   19.4140 O.3   544  G6Q544     -0.1145
     16  O3P       35.8290   43.4090   18.0210 O.3   544  G6Q544     -0.1145
@<TRIPOS>BOND
     1    11     5    1
     2     5     6    1
     3     5     4    1
     4    10     4    1
     5     6    12    1
     6     4     3    1
     7     7     1    1
     8     3     9    1
     9     3     2    1
    10    14    13    2
    11     1     2    1
    12    12    13    1
    13     2     8    1
    14    13    16    1
    15    13    15    1
