@<TRIPOS>MOLECULE
4hjo_AQ4_A_1.pdb
 29 31 0 0 0
SMALL
GASTEIGER

@<TRIPOS>ATOM
      1  C1        28.8170   13.9250   -4.6970 C.1   1001  AQ41001    -0.0092
      2  C2        28.0300   13.9580   -3.7760 C.1   1001  AQ41001    -0.0511
      3  C3        27.0440   14.0330   -2.6190 C.ar  1001  AQ41001     0.0461
      4  C4        26.5490   12.8650   -2.0880 C.ar  1001  AQ41001     0.0527
      5  C5        25.6430   12.8980   -1.0140 C.ar  1001  AQ41001     0.1840
      6  N1        25.1050   11.6290   -0.4490 N.pl3 1001  AQ41001    -0.0060
      7  C6        25.9670   10.4240   -0.2840 C.2   1001  AQ41001     0.3643
      8  C7        25.4040    9.1370    0.0500 C.2   1001  AQ41001     0.1027
      9  C8        24.0330    8.9340    0.2320 C.2   1001  AQ41001     0.0484
     10  C9        23.5640    7.6590    0.5520 C.2   1001  AQ41001     0.1688
     11  O1        22.2160    7.4350    0.7360 O.2   1001  AQ41001    -0.4700
     12  C10       21.2710    8.4350    0.5760 C.3   1001  AQ41001     0.2374
     13  C11       20.2290    8.3600    1.6960 C.3   1001  AQ41001     0.1894
     14  O2        19.9970    7.0090    2.0750 O.3   1001  AQ41001    -0.3471
     15  C12       20.0450    6.6450    3.4240 C.3   1001  AQ41001     0.1743
     16  C13       24.4380    6.5920    0.6870 C.2   1001  AQ41001     0.1557
     17  O3        23.9000    5.3280    1.0210 O.2   1001  AQ41001    -0.4736
     18  C14       24.5160    4.1220    0.7310 C.3   1001  AQ41001     0.2370
     19  C15       23.6020    2.9880    1.2080 C.3   1001  AQ41001     0.1894
     20  O4        23.2320    3.2050    2.5410 O.3   1001  AQ41001    -0.3471
     21  C16       21.8620    3.2770    2.8900 C.3   1001  AQ41001     0.1743
     22  C17       25.8250    6.7670    0.5150 C.3   1001  AQ41001     0.1127
     23  C18       26.3140    8.0350    0.1960 C.2   1001  AQ41001     0.0732
     24  N2        27.6640    8.2470    0.0120 N.2   1001  AQ41001    -0.2223
     25  C19       28.1360    9.4610   -0.2900 C.3   1001  AQ41001     0.3917
     26  N3        27.3380   10.5100   -0.4400 N.2   1001  AQ41001    -0.0327
     27  C20       25.2320   14.1450   -0.4830 C.ar  1001  AQ41001     0.0444
     28  C21       25.7320   15.3140   -1.0180 C.ar  1001  AQ41001     0.0043
     29  C22       26.6320   15.2870   -2.0800 C.ar  1001  AQ41001     0.0085
@<TRIPOS>BOND
     1     1     2    3
     2     2     3    1
     3     3     4   ar
     4     3    29   ar
     5     4     5   ar
     6    29    28   ar
     7    28    27   ar
     8     5    27   ar
     9     5     6    1
    10     6     7    1
    11    26    25    1
    12    26     7    2
    13    25    24    1
    14     7     8    1
    15    24    23    2
    16     8    23    1
    17     8     9    2
    18    23    22    1
    19     9    10    1
    20    22    16    1
    21    10    16    2
    22    10    11    1
    23    12    11    1
    24    12    13    1
    25    16    17    1
    26    18    17    1
    27    18    19    1
    28    19    20    1
    29    13    14    1
    30    14    15    1
    31    20    21    1
