@<TRIPOS>MOLECULE
4hjv_AMU_A_1.pdb
 20 20 0 0 0
SMALL
GASTEIGER

@<TRIPOS>ATOM
      1  C1        50.8420   32.6720   66.5700 C.3   602  AMU602      0.2916
      2  C2        52.3640   32.8910   66.6810 C.3   602  AMU602      0.1839
      3  C3        52.7010   34.3350   67.0230 C.3   602  AMU602      0.1735
      4  C4        51.9630   35.2840   66.0890 C.3   602  AMU602      0.2103
      5  C5        50.4690   35.0030   66.1370 C.3   602  AMU602      0.1834
      6  C6        49.7330   35.9130   65.1690 C.3   602  AMU602      0.2142
      7  C7        54.0040   31.2700   67.5530 C.2   602  AMU602      0.2420
      8  C8        54.4980   30.4460   68.7480 C.3   602  AMU602      0.0964
      9  C9        54.5020   35.3370   68.0790 C.3   602  AMU602      0.2178
     10  C10       54.8640   34.4900   69.3000 C.2   602  AMU602      0.3913
     11  C11       55.7040   36.1860   67.6820 C.3   602  AMU602      0.0444
     12  O1        50.5810   31.4680   65.8860 O.3   602  AMU602     -0.1879
     13  O3        54.1020   34.5260   66.9840 O.3   602  AMU602     -0.3429
     14  O4        52.1500   36.6190   66.4950 O.3   602  AMU602     -0.2178
     15  O5        50.1620   33.6680   65.8370 O.3   602  AMU602     -0.3242
     16  O6        48.3800   35.5400   65.1170 O.3   602  AMU602     -0.2176
     17  O7        54.5770   31.1680   66.4690 O.2   602  AMU602     -0.2733
     18  O10       54.2570   34.6700   70.3820 O.co2 602  AMU602     -0.2430
     19  O11       55.7680   33.6180   69.2170 O.co2 602  AMU602     -0.2430
     20  N2        52.9400   32.0560   67.7280 N.am  602  AMU602     -0.1993
@<TRIPOS>BOND
     1    16     6    1
     2     6     5    1
     3    15     5    1
     4    15     1    1
     5    12     1    1
     6     4     5    1
     7     4    14    1
     8     4     3    1
     9    17     7    2
    10     1     2    1
    11     2     3    1
    12     2    20    1
    13    13     3    1
    14    13     9    1
    15     7    20   am
    16     7     8    1
    17    11     9    1
    18     9    10    1
    19    19    10   ar
    20    10    18   ar
