@<TRIPOS>MOLECULE
4hjv_NAG_A_1.pdb
 14 14 0 0 0
SMALL
GASTEIGER

@<TRIPOS>ATOM
      1  C1        52.7160   37.4180   65.4420 C.3   601  NAG601      0.1665
      2  C2        52.6290   38.8710   65.9190 C.3   601  NAG601      0.1576
      3  C3        53.2630   39.8120   64.9130 C.3   601  NAG601      0.2069
      4  C4        54.7040   39.3650   64.6900 C.3   601  NAG601      0.2134
      5  C5        54.7300   37.9130   64.2400 C.3   601  NAG601      0.1809
      6  C6        56.1780   37.4730   64.0680 C.3   601  NAG601      0.2141
      7  C7        50.8880   39.8640   67.3310 C.2   601  NAG601      0.2420
      8  C8        49.4460   40.2800   67.4310 C.3   601  NAG601      0.0964
      9  N2        51.2660   39.2940   66.1830 N.am  601  NAG601     -0.2019
     10  O3        53.2040   41.1570   65.3600 O.3   601  NAG601     -0.2184
     11  O4        55.2840   40.1310   63.6610 O.3   601  NAG601     -0.2176
     12  O5        54.0430   37.0440   65.1320 O.3   601  NAG601     -0.3489
     13  O6        56.1870   36.1440   63.6230 O.3   601  NAG601     -0.2176
     14  O7        51.6590   40.0780   68.2690 O.2   601  NAG601     -0.2733
@<TRIPOS>BOND
     1    13     6    1
     2    11     4    1
     3     6     5    1
     4     5     4    1
     5     5    12    1
     6     4     3    1
     7     3    10    1
     8     3     2    1
     9    12     1    1
    10     1     2    1
    11     2     9    1
    12     9     7   am
    13     7     8    1
    14     7    14    2
