@<TRIPOS>MOLECULE
4hjv_BLG_A_1.pdb
 35 36 0 0 0
SMALL
GASTEIGER

@<TRIPOS>ATOM
      1  C1        58.2840   46.1660   62.2390 C.3   600  BLG600      0.2585
      2  C2        58.0120   47.3510   61.1960 C.3   600  BLG600      0.1842
      3  C3        59.2860   47.9150   60.6280 C.3   600  BLG600      0.2085
      4  C4        60.3320   48.1020   61.7320 C.3   600  BLG600      0.2048
      5  C5        60.4440   46.9200   62.6580 C.3   600  BLG600      0.1826
      6  O5        59.2270   46.6530   63.2620 O.3   600  BLG600     -0.3263
      7  O1        57.0040   45.8750   62.7950 O.3   600  BLG600     -0.3301
      8  N2        57.1960   46.7800   60.1720 N.am  600  BLG600     -0.1992
      9  C7        55.8520   47.2520   59.9160 C.2   600  BLG600      0.2420
     10  O7        55.3480   48.1860   60.5290 O.2   600  BLG600     -0.2733
     11  C8        55.1320   46.5090   58.8140 C.3   600  BLG600      0.0964
     12  O3        58.9270   49.1120   60.0040 O.3   600  BLG600     -0.2183
     13  O4        61.6110   48.3070   61.1500 O.3   600  BLG600     -0.2384
     14  S4        62.1150   49.6920   60.9320 S.3   600  BLG600     -0.0001
     15  O41       63.5550   49.7130   60.9390 O.2   600  BLG600     -0.3452
     16  O42       61.6800   50.5310   62.0240 O.3   600  BLG600     -0.2682
     17  O43       61.6650   50.2500   59.6540 O.2   600  BLG600     -0.3452
     18  C6        61.5090   47.1340   63.7490 C.3   600  BLG600      0.2142
     19  O6        61.1240   48.1350   64.6620 O.3   600  BLG600     -0.2176
     20  CA        55.5000   43.8880   63.1200 C.3   600  BLG600      0.1333
     21  CB        56.9270   44.5040   63.3260 C.3   600  BLG600      0.1382
     22  CG        57.2450   44.2920   64.8600 C.3   600  BLG600      0.0579
     23  CD        56.4640   43.0140   65.0730 C.3   600  BLG600      0.1530
     24  N         55.3800   42.8290   64.0690 N.3   600  BLG600     -0.2064
     25  C9        55.2920   43.3900   61.7250 C.3   600  BLG600      0.2018
     26  O9        56.1800   42.3480   61.4890 O.3   600  BLG600     -0.2188
     27  C10       55.8600   42.9680   66.4510 C.2   600  BLG600      0.2573
     28  O10       54.8920   43.6670   66.7410 O.2   600  BLG600     -0.2718
     29  N3        56.4650   42.0440   67.3650 N.am  600  BLG600     -0.2025
     30  C11       55.9760   41.8760   68.6890 C.3   600  BLG600      0.1366
     31  C12       55.5160   40.4610   68.7390 C.3   600  BLG600      0.1286
     32  S         54.8380   40.1600   70.3320 S.3   600  BLG600     -0.1942
     33  OS1       53.7660   41.0820   70.6740 O.3   600  BLG600     -0.3074
     34  OS2       54.1610   38.8790   70.3440 O.3   600  BLG600     -0.3074
     35  OS3       55.9500   40.2230   71.2960 O.3   600  BLG600     -0.3074
@<TRIPOS>BOND
     1    11     9    1
     2    17    14    2
     3     9     8   am
     4     9    10    2
     5    12     3    1
     6     8     2    1
     7     3     2    1
     8     3     4    1
     9    14    15    2
    10    14    13    1
    11    14    16    1
    12    13     4    1
    13     2     1    1
    14    26    25    1
    15    25    20    1
    16     4     5    1
    17     1     7    1
    18     1     6    1
    19     5     6    1
    20     5    18    1
    21     7    21    1
    22    20    21    1
    23    20    24    1
    24    21    22    1
    25    18    19    1
    26    24    23    1
    27    22    23    1
    28    23    27    1
    29    27    28    2
    30    27    29   am
    31    29    30    1
    32    30    31    1
    33    31    32    1
    34    32    34    1
    35    32    33    1
    36    32    35    1
