@<TRIPOS>MOLECULE
4hjy_NAG_A_1.pdb
 15 15 0 0 0
SMALL
GASTEIGER

@<TRIPOS>ATOM
      1  C1        18.3810   54.1970   39.3900 C.3   301  NAG301      0.2917
      2  C2        18.9110   54.0900   40.8330 C.3   301  NAG301      0.1871
      3  C3        17.6960   54.1400   41.7560 C.3   301  NAG301      0.2095
      4  C4        16.8710   55.4010   41.4290 C.3   301  NAG301      0.2136
      5  C5        16.6820   55.6150   39.9220 C.3   301  NAG301      0.1835
      6  C6        16.1680   57.0060   39.5980 C.3   301  NAG301      0.2142
      7  C7        20.9610   52.7070   41.3950 C.2   301  NAG301      0.2421
      8  C8        21.6260   53.8850   41.9720 C.3   301  NAG301      0.0964
      9  N2        19.7180   52.8500   40.8920 N.am  301  NAG301     -0.1991
     10  O1        19.4120   53.9720   38.4560 O.3   301  NAG301     -0.1879
     11  O3        18.0680   54.1930   43.1340 O.3   301  NAG301     -0.2183
     12  O4        15.5530   55.3700   41.9230 O.3   301  NAG301     -0.2176
     13  O5        17.9060   55.5030   39.2200 O.3   301  NAG301     -0.3242
     14  O6        15.7720   57.0190   38.2550 O.3   301  NAG301     -0.2176
     15  O7        21.5510   51.6430   41.3380 O.2   301  NAG301     -0.2733
@<TRIPOS>BOND
     1    14     6    1
     2    10     1    1
     3    13     1    1
     4    13     5    1
     5     1     2    1
     6     6     5    1
     7     5     4    1
     8     2     9    1
     9     2     3    1
    10     9     7   am
    11    15     7    2
    12     7     8    1
    13     4     3    1
    14     4    12    1
    15     3    11    1
