@<TRIPOS>MOLECULE
4hjz_NAG_A_1.pdb
 15 15 0 0 0
SMALL
GASTEIGER

@<TRIPOS>ATOM
      1  C1        16.5440   37.1230   40.8470 C.3   301  NAG301      0.2917
      2  C2        16.8880   36.8160   42.3050 C.3   301  NAG301      0.1871
      3  C3        15.6490   36.9830   43.1860 C.3   301  NAG301      0.2095
      4  C4        15.0120   38.3570   42.9780 C.3   301  NAG301      0.2136
      5  C5        14.9890   38.7930   41.5060 C.3   301  NAG301      0.1835
      6  C6        14.8060   40.3050   41.4190 C.3   301  NAG301      0.2142
      7  C7        18.7860   35.3290   42.5850 C.2   301  NAG301      0.2421
      8  C8        19.6440   36.5690   42.6110 C.3   301  NAG301      0.0964
      9  N2        17.4700   35.4930   42.4350 N.am  301  NAG301     -0.1991
     10  O1        17.6500   36.9060   39.9810 O.3   301  NAG301     -0.1879
     11  O3        16.0260   36.8430   44.5390 O.3   301  NAG301     -0.2183
     12  O4        13.6770   38.3810   43.4730 O.3   301  NAG301     -0.2176
     13  O5        16.1630   38.4810   40.7730 O.3   301  NAG301     -0.3242
     14  O6        13.4410   40.6190   41.5990 O.3   301  NAG301     -0.2176
     15  O7        19.3000   34.2130   42.6900 O.2   301  NAG301     -0.2733
@<TRIPOS>BOND
     1    10     1    1
     2    13     1    1
     3    13     5    1
     4     1     2    1
     5     6     5    1
     6     6    14    1
     7     5     4    1
     8     2     9    1
     9     2     3    1
    10     9     7   am
    11     7     8    1
    12     7    15    2
    13     4     3    1
    14     4    12    1
    15     3    11    1
