@<TRIPOS>MOLECULE
4hki_FLN_A_1.pdb
 17 19 0 0 0
SMALL
GASTEIGER

@<TRIPOS>ATOM
      1  O1         5.9850  -12.6210   12.4720 O.2   1204  FLN1204    -0.4533
      2  C8A        5.8560  -12.9760   13.7780 C.ar  1204  FLN1204     0.1483
      3  C4A        6.5320  -12.2360   14.7390 C.ar  1204  FLN1204     0.0735
      4  C4         7.3810  -11.1660   14.3570 C.ar  1204  FLN1204     0.2016
      5  C3         7.4610  -10.8340   13.0050 C.ar  1204  FLN1204     0.0796
      6  C2         6.7310  -11.5630   12.0710 C.ar  1204  FLN1204     0.1484
      7  C1'        6.6270  -11.3080   10.6920 C.ar  1204  FLN1204     0.0347
      8  C2'        7.2470  -10.2220   10.0600 C.ar  1204  FLN1204     0.0030
      9  C3'        7.0800   -9.9680    8.7010 C.ar  1204  FLN1204     0.0001
     10  C4'        6.2880  -10.7750    7.9380 C.ar  1204  FLN1204     0.0000
     11  C5'        5.6630  -11.8760    8.5330 C.ar  1204  FLN1204     0.0001
     12  C6'        5.8070  -12.1360    9.9000 C.ar  1204  FLN1204     0.0030
     13  O4         8.1300  -10.5810   15.1690 O.2   1204  FLN1204    -0.2864
     14  C5         6.3380  -12.5760   16.0760 C.ar  1204  FLN1204     0.0062
     15  C6         5.5120  -13.6420   16.4150 C.ar  1204  FLN1204     0.0003
     16  C7         4.8410  -14.3910   15.4440 C.ar  1204  FLN1204     0.0031
     17  C8         5.0200  -14.0230   14.1000 C.ar  1204  FLN1204     0.0376
@<TRIPOS>BOND
     1    10    11   ar
     2    10     9   ar
     3    11    12   ar
     4     9     8   ar
     5    12     7   ar
     6     8     7   ar
     7     7     6    1
     8     6     1   ar
     9     6     5   ar
    10     1     2   ar
    11     5     4   ar
    12     2    17   ar
    13     2     3   ar
    14    17    16   ar
    15     4     3   ar
    16     4    13    2
    17     3    14   ar
    18    16    15   ar
    19    14    15   ar
