@<TRIPOS>MOLECULE
4hkk_AGI_A_1.pdb
 20 22 0 0 0
SMALL
GASTEIGER

@<TRIPOS>ATOM
      1  CAG       -7.0580   -9.3390   -9.7710 C.ar  1204  AGI1204     0.0063
      2  CAE       -6.9530   -9.1500   -8.3850 C.ar  1204  AGI1204     0.0421
      3  CAM       -6.2000  -10.0460   -7.6180 C.ar  1204  AGI1204     0.1957
      4  OAB       -6.1030   -9.9020   -6.2730 O.3   1204  AGI1204    -0.2866
      5  CAF       -5.5350  -11.1270   -8.2210 C.ar  1204  AGI1204     0.0421
      6  CAH       -5.6410  -11.3130   -9.6020 C.ar  1204  AGI1204     0.0063
      7  CAP       -6.3980  -10.4230  -10.3870 C.ar  1204  AGI1204     0.0349
      8  CAQ       -6.4270  -10.6520  -11.7700 C.ar  1204  AGI1204     0.1484
      9  OAL       -5.6400  -11.7080  -12.1420 O.2   1204  AGI1204    -0.4531
     10  CAJ       -7.2370   -9.9840  -12.6950 C.ar  1204  AGI1204     0.0797
     11  CAR       -7.1200  -10.3310  -14.0490 C.ar  1204  AGI1204     0.2048
     12  OAA       -7.8990   -9.8160  -14.8700 O.2   1204  AGI1204    -0.2862
     13  CAT       -6.2430  -11.3960  -14.4140 C.ar  1204  AGI1204     0.1126
     14  CAS       -5.5180  -12.0960  -13.4400 C.ar  1204  AGI1204     0.1546
     15  CAK       -4.6580  -13.1570  -13.7580 C.ar  1204  AGI1204     0.0798
     16  CAN       -4.4970  -13.5480  -15.0940 C.ar  1204  AGI1204     0.2020
     17  OAC       -3.6320  -14.5730  -15.3950 O.3   1204  AGI1204    -0.2864
     18  CAI       -5.1870  -12.8700  -16.1010 C.ar  1204  AGI1204     0.0843
     19  CAO       -6.0540  -11.8060  -15.7360 C.ar  1204  AGI1204     0.2049
     20  OAD       -6.7310  -11.1080  -16.6850 O.3   1204  AGI1204    -0.2862
@<TRIPOS>BOND
     1    20    19    1
     2    18    19   ar
     3    18    16   ar
     4    19    13   ar
     5    17    16    1
     6    16    15   ar
     7    12    11    2
     8    13    11   ar
     9    13    14   ar
    10    11    10   ar
    11    15    14   ar
    12    14     9   ar
    13    10     8   ar
    14     9     8   ar
    15     8     7    1
    16     7     1   ar
    17     7     6   ar
    18     1     2   ar
    19     6     5   ar
    20     2     3   ar
    21     5     3   ar
    22     3     4    1
