@<TRIPOS>MOLECULE
4hkn_LU2_A_1.pdb
 21 23 0 0 0
SMALL
GASTEIGER

@<TRIPOS>ATOM
      1  C1         5.8540  -12.4080  -13.5900 C.ar  1204  LU21204     0.0798
      2  O1         7.4850  -12.7250  -15.3320 O.3   1204  LU21204    -0.2864
      3  C2         6.1760  -12.5890  -14.9460 C.ar  1204  LU21204     0.2020
      4  O2         2.7860  -12.4550  -16.4290 O.3   1204  LU21204    -0.2862
      5  C3         5.1510  -12.5980  -15.9040 C.ar  1204  LU21204     0.0843
      6  O3         1.1740  -12.2320  -14.6120 O.2   1204  LU21204    -0.2862
      7  C4         3.8090  -12.4430  -15.5190 C.ar  1204  LU21204     0.2049
      8  O4         4.2010  -12.0450  -11.9070 O.2   1204  LU21204    -0.4531
      9  C5         3.4610  -12.2680  -14.1730 C.ar  1204  LU21204     0.1126
     10  O5         0.6040  -10.2820   -7.4460 O.3   1204  LU21204    -0.2831
     11  C6         4.5060  -12.2540  -13.2300 C.ar  1204  LU21204     0.1546
     12  O6         2.7160  -10.9920   -5.9240 O.3   1204  LU21204    -0.2831
     13  C7         2.1100  -12.1240  -13.7860 C.ar  1204  LU21204     0.2048
     14  C8         1.8480  -11.9440  -12.4220 C.ar  1204  LU21204     0.0797
     15  C9         2.9020  -11.8840  -11.4890 C.ar  1204  LU21204     0.1485
     16  C10        2.7970  -11.6760  -10.1050 C.ar  1204  LU21204     0.0381
     17  C11        1.6810  -11.0820   -9.4840 C.ar  1204  LU21204     0.0484
     18  C12        1.6770  -10.8570   -8.0910 C.ar  1204  LU21204     0.2344
     19  C13        2.7700  -11.2360   -7.2910 C.ar  1204  LU21204     0.2343
     20  C14        3.8760  -11.8210   -7.9090 C.ar  1204  LU21204     0.0455
     21  C15        3.8920  -12.0300   -9.2950 C.ar  1204  LU21204     0.0065
@<TRIPOS>BOND
     1     4     7    1
     2     5     7   ar
     3     5     3   ar
     4     7     9   ar
     5     2     3    1
     6     3     1   ar
     7     6    13    2
     8     9    13   ar
     9     9    11   ar
    10    13    14   ar
    11     1    11   ar
    12    11     8   ar
    13    14    15   ar
    14     8    15   ar
    15    15    16    1
    16    16    17   ar
    17    16    21   ar
    18    17    18   ar
    19    21    20   ar
    20    18    10    1
    21    18    19   ar
    22    20    19   ar
    23    19    12    1
