@<TRIPOS>MOLECULE
4hkp_TKW_A_1.pdb
 22 23 0 0 0
SMALL
GASTEIGER

@<TRIPOS>ATOM
      1  OAF       26.6220  -13.0530   12.9700 O.2   304  TKW304     -0.2224
      2  PAV       25.5460  -13.1620   14.1510 P.3   304  TKW304      0.5327
      3  OAG       26.0690  -14.0670   15.3610 O.3   304  TKW304     -0.1145
      4  OAH       24.1100  -13.6060   13.6570 O.3   304  TKW304     -0.1145
      5  O5'       25.4250  -11.6770   14.7770 O.3   304  TKW304     -0.2675
      6  C5'       24.2830  -10.8800   14.4380 C.3   304  TKW304      0.1859
      7  C4'       24.4470   -9.6180   15.2680 C.3   304  TKW304      0.1801
      8  O4'       23.7950   -8.5240   14.5840 O.3   304  TKW304     -0.3319
      9  C3'       23.7530   -9.8350   16.5860 C.3   304  TKW304      0.2158
     10  O3'       24.4490   -9.1160   17.6580 O.3   304  TKW304     -0.2175
     11  C2'       22.3350   -9.2960   16.3220 C.3   304  TKW304      0.2319
     12  O2'       21.8000   -8.8210   17.5380 O.3   304  TKW304     -0.2157
     13  C1'       22.5660   -8.1880   15.3010 C.3   304  TKW304      0.2401
     14  NAU       21.4990   -7.9620   14.2660 N.am  304  TKW304     -0.1746
     15  CAP       20.9790   -8.8630   13.3960 C.1   304  TKW304      0.2758
     16  OAB       21.3220  -10.0390   13.3780 O.2   304  TKW304     -0.1925
     17  NAK       20.0410   -8.4930   12.5030 N.2   304  TKW304     -0.2990
     18  CAN       19.6140   -7.2210   12.4410 C.2   304  TKW304      0.2733
     19  NAA       18.7060   -6.7950   11.5850 N.pl3 304  TKW304     -0.0887
     20  CAO       20.1310   -6.2780   13.3000 C.2   304  TKW304      0.2587
     21  OAC       19.6710   -5.0150   13.2010 O.2   304  TKW304     -0.2809
     22  CAI       21.0750   -6.6500   14.1900 C.2   304  TKW304      0.1256
@<TRIPOS>BOND
     1    19    18    1
     2    18    17    2
     3    18    20    1
     4    17    15    2
     5     1     2    2
     6    21    20    1
     7    20    22    2
     8    16    15    2
     9    15    14   am
    10     4     2    1
    11     2     5    1
    12     2     3    1
    13    22    14    1
    14    14    13    1
    15     6     5    1
    16     6     7    1
    17     8     7    1
    18     8    13    1
    19     7     9    1
    20    13    11    1
    21    11     9    1
    22    11    12    1
    23     9    10    1
