@<TRIPOS>MOLECULE
4hkp_16B_A_1.pdb
 22 23 0 0 0
SMALL
GASTEIGER

@<TRIPOS>ATOM
      1  OAA       26.3290  -12.5370   13.2380 O.2   305  16B305     -0.2224
      2  PAE       25.4190  -13.2630   14.1680 P.3   305  16B305      0.5327
      3  OAD       24.2450  -14.0840   13.5240 O.3   305  16B305     -0.1145
      4  OAF       26.2040  -14.1830   15.1910 O.3   305  16B305     -0.1145
      5  O5'       24.7750  -12.1150   15.1250 O.3   305  16B305     -0.2675
      6  C5'       25.2230  -10.7830   14.7930 C.3   305  16B305      0.1859
      7  C4'       24.7940   -9.6930   15.7510 C.3   305  16B305      0.1801
      8  O4'       24.1000   -8.7440   14.9560 O.3   305  16B305     -0.3320
      9  C3'       23.8850  -10.0540   16.9320 C.3   305  16B305      0.2158
     10  O3'       24.3900   -9.3020   18.0320 O.3   305  16B305     -0.2175
     11  C2'       22.4890   -9.5750   16.5340 C.3   305  16B305      0.2319
     12  O2'       21.7570   -9.0790   17.6610 O.3   305  16B305     -0.2157
     13  C1'       22.7880   -8.4550   15.5570 C.3   305  16B305      0.2400
     14  NAM       21.8070   -8.3710   14.4400 N.am  305  16B305     -0.1778
     15  CAL       21.6790   -9.3150   13.3610 C.1   305  16B305      0.2758
     16  OAK       22.3790  -10.3280   13.2630 O.2   305  16B305     -0.1925
     17  NAG       20.7600   -9.0980   12.4040 N.2   305  16B305     -0.2989
     18  CAN       20.9810   -7.2420   14.4580 C.2   305  16B305      0.0838
     19  CAI       20.0560   -7.0580   13.4760 C.2   305  16B305      0.0722
     20  CAH       19.9520   -8.0070   12.4530 C.2   305  16B305      0.2557
     21  NAB       19.0490   -7.7850   11.4980 N.4   305  16B305     -0.0627
     22  OAC       19.1540   -6.6300   10.7960 O.3   305  16B305     -0.0579
@<TRIPOS>BOND
     1    22    21    1
     2    21    20    1
     3    17    20    2
     4    17    15    2
     5    20    19    1
     6     1     2    2
     7    16    15    2
     8    15    14   am
     9    19    18    2
    10     3     2    1
    11     2     5    1
    12     2     4    1
    13    14    18    1
    14    14    13    1
    15     6     5    1
    16     6     7    1
    17     8    13    1
    18     8     7    1
    19    13    11    1
    20     7     9    1
    21    11     9    1
    22    11    12    1
    23     9    10    1
