@<TRIPOS>MOLECULE
4hky_SFR_A_1.pdb
 15 15 0 0 0
SMALL
GASTEIGER

@<TRIPOS>ATOM
      1  O72       14.2510   20.0850  -31.1780 O.co2 302  SFR302     -0.2455
      2  C7        14.6210   20.0840  -32.3720 C.2   302  SFR302      0.3696
      3  C6        13.5690   20.0640  -33.4510 C.3   302  SFR302      0.1661
      4  N4        13.6890   22.4860  -33.1310 N.2   302  SFR302     -0.2576
      5  C5        13.4950   21.4310  -34.1140 C.3   302  SFR302      0.1638
      6  C3        12.6400   23.2970  -32.9930 C.2   302  SFR302      0.1449
      7  C2        11.6160   22.9840  -33.7810 C.3   302  SFR302      0.1114
      8  S1        11.9540   21.7340  -34.6540 S.3   302  SFR302     -0.1097
      9  C31       12.6610   24.4130  -32.0520 C.2   302  SFR302      0.4015
     10  O71       15.8240   20.0990  -32.7120 O.co2 302  SFR302     -0.2455
     11  C61       13.9070   18.9810  -34.4700 C.3   302  SFR302      0.1655
     12  O62       12.8300   18.8520  -35.4040 O.3   302  SFR302     -0.2225
     13  C62       14.1470   17.6420  -33.7830 C.3   302  SFR302      0.0362
     14  O32       11.6880   24.5760  -31.2840 O.co2 302  SFR302     -0.2392
     15  O31       13.6500   25.1760  -32.0380 O.co2 302  SFR302     -0.2392
@<TRIPOS>BOND
     1    12    11    1
     2     8     5    1
     3     8     7    1
     4    11    13    1
     5    11     3    1
     6     5     3    1
     7     5     4    1
     8     7     6    1
     9     3     2    1
    10     4     6    2
    11     6     9    1
    12    10     2   ar
    13     2     1   ar
    14     9    15   ar
    15     9    14   ar
