@<TRIPOS>MOLECULE
4hky_FPM_A_1.pdb
 14 15 0 0 0
SMALL
GASTEIGER

@<TRIPOS>ATOM
      1  C2        11.2240   22.8850  -33.3250 C.3   301  FPM301      0.0906
      2  C6        13.1500   19.7920  -33.1960 C.3   301  FPM301      0.1355
      3  C5        12.8080   21.0140  -34.0830 C.3   301  FPM301      0.1350
      4  C7        13.4350   20.7760  -32.1020 C.2   301  FPM301      0.2311
      5  N4        12.9420   21.7260  -32.8360 N.am  301  FPM301     -0.2622
      6  C3        12.3510   22.8860  -32.6170 C.3   301  FPM301      0.1905
      7  S1        11.1360   21.5300  -34.3010 S.3   301  FPM301     -0.1182
      8  C31       12.8760   23.9380  -31.7520 C.2   301  FPM301      0.3834
      9  O7        13.9290   20.6850  -30.9900 O.2   301  FPM301     -0.2747
     10  C61       14.4520   19.1390  -33.6440 C.3   301  FPM301      0.1631
     11  O62       14.4640   19.0290  -35.0720 O.3   301  FPM301     -0.2225
     12  C62       14.6100   17.7550  -33.0260 C.3   301  FPM301      0.0361
     13  O32       12.1180   24.4640  -30.9090 O.co2 301  FPM301     -0.2438
     14  O31       14.0700   24.2860  -31.8780 O.co2 301  FPM301     -0.2438
@<TRIPOS>BOND
     1    11    10    1
     2     7     3    1
     3     7     1    1
     4     3     2    1
     5     3     5    1
     6    10     2    1
     7    10    12    1
     8     1     6    1
     9     2     4    1
    10     5     6    1
    11     5     4   am
    12     6     8    1
    13     4     9    2
    14    14     8   ar
    15     8    13   ar
