@<TRIPOS>MOLECULE
4hl1_ZZ7_A_1.pdb
 22 23 0 0 0
SMALL
GASTEIGER

@<TRIPOS>ATOM
      1  O1        -1.7270   -8.3230   24.8700 O.co2 301  ZZ7301     -0.2441
      2  C2        -1.6710   -8.0890   26.1560 C.2   301  ZZ7301      0.3811
      3  O2        -2.4320   -7.3460   26.7170 O.co2 301  ZZ7301     -0.2441
      4  C12       -0.5870   -8.7190   27.0060 C.3   301  ZZ7301      0.1857
      5  C6        -1.0690   -9.8210   27.9880 C.3   301  ZZ7301      0.0658
      6  C1        -1.6910   -9.2900   29.2490 C.3   301  ZZ7301      0.0129
      7  C16       -2.0540  -10.7730   27.3230 C.3   301  ZZ7301      0.0129
      8  S1         0.3500  -10.7870   28.4500 S.3   301  ZZ7301     -0.1216
      9  N3         0.5320   -9.3890   26.3830 N.3   301  ZZ7301     -0.1962
     10  C13        0.8670  -10.7370   26.7440 C.3   301  ZZ7301      0.1421
     11  C14        2.3260  -10.4170   26.4270 C.3   301  ZZ7301      0.1435
     12  N1         3.2360   -9.7360   27.2640 N.am  301  ZZ7301     -0.2015
     13  C3         4.2380   -9.2230   26.5960 C.2   301  ZZ7301      0.2631
     14  O3         4.3900   -9.3680   25.3840 O.2   301  ZZ7301     -0.2714
     15  C4         5.1420   -8.4230   27.4620 C.3   301  ZZ7301      0.1915
     16  N2         5.5330   -7.1890   26.8220 N.3   301  ZZ7301     -0.1182
     17  C5         6.2620   -9.1840   28.0060 C.ar  301  ZZ7301      0.0038
     18  C7         6.2490  -10.5500   27.8990 C.ar  301  ZZ7301     -0.0024
     19  C8         7.2940  -11.2750   28.4160 C.ar  301  ZZ7301     -0.0003
     20  C9         8.2900  -10.5540   29.0780 C.ar  301  ZZ7301     -0.0000
     21  C10        8.3050   -9.1750   29.2120 C.ar  301  ZZ7301     -0.0003
     22  C11        7.2490   -8.4570   28.6640 C.ar  301  ZZ7301     -0.0024
@<TRIPOS>BOND
     1     1     2   ar
     2    14    13    2
     3     2     3   ar
     4     2     4    1
     5     9    10    1
     6     9     4    1
     7    11    10    1
     8    11    12    1
     9    13    12   am
    10    13    15    1
    11    10     8    1
    12    16    15    1
    13     4     5    1
    14     7     5    1
    15    15    17    1
    16    18    17   ar
    17    18    19   ar
    18     5     8    1
    19     5     6    1
    20    17    22   ar
    21    19    20   ar
    22    22    21   ar
    23    20    21   ar
