@<TRIPOS>MOLECULE
4hl2_ZZ7_A_1.pdb
 25 26 0 0 0
SMALL
GASTEIGER

@<TRIPOS>ATOM
      1  O1         2.0640    8.3170   24.5790 O.co2 301  ZZ7301     -0.2441
      2  C2         1.8310    7.9800   25.7730 C.2   301  ZZ7301      0.3811
      3  O2         2.6220    7.2620   26.4780 O.co2 301  ZZ7301     -0.2441
      4  C12        0.4950    8.3430   26.4250 C.3   301  ZZ7301      0.1857
      5  C6         0.5220    9.5270   27.4780 C.3   301  ZZ7301      0.0658
      6  C1         1.2200    9.0730   28.7920 C.3   301  ZZ7301      0.0129
      7  C16        1.2080   10.8120   26.9420 C.3   301  ZZ7301      0.0129
      8  S1        -1.2150    9.6900   27.7900 S.3   301  ZZ7301     -0.1211
      9  N3        -0.4630    8.7370   25.4080 N.3   301  ZZ7301     -0.1956
     10  C13       -1.6790    9.3080   26.1010 C.3   301  ZZ7301      0.1514
     11  C14       -2.8540    8.3240   26.0300 C.3   301  ZZ7301      0.2237
     12  C15       -2.5060    6.8420   26.2860 C.2   301  ZZ7301      0.3865
     13  O4        -3.1490    6.2350   27.1530 O.co2 301  ZZ7301     -0.2437
     14  N1        -3.8690    8.7470   26.9800 N.am  301  ZZ7301     -0.1917
     15  C3        -4.9150    9.5270   26.6500 C.2   301  ZZ7301      0.2636
     16  O3        -5.1120    9.9460   25.5330 O.2   301  ZZ7301     -0.2714
     17  C4        -5.9250    9.6610   27.8300 C.3   301  ZZ7301      0.1915
     18  N2        -7.3080    9.9390   27.3400 N.3   301  ZZ7301     -0.1182
     19  C5        -5.4650   10.5260   28.8790 C.ar  301  ZZ7301      0.0038
     20  C7        -6.0030   10.3500   30.1540 C.ar  301  ZZ7301     -0.0024
     21  C8        -5.6060   11.1580   31.2090 C.ar  301  ZZ7301     -0.0003
     22  C9        -4.6470   12.1100   31.0100 C.ar  301  ZZ7301     -0.0000
     23  C10       -4.0530   12.2930   29.7800 C.ar  301  ZZ7301     -0.0003
     24  C11       -4.4620   11.4840   28.7270 C.ar  301  ZZ7301     -0.0024
     25  OXT       -1.6980    6.3130   25.5480 O.co2 301  ZZ7301     -0.2437
@<TRIPOS>BOND
     1     1     2   ar
     2     9    10    1
     3     9     4    1
     4    16    15    2
     5    25    12   ar
     6     2     4    1
     7     2     3   ar
     8    11    10    1
     9    11    12    1
    10    11    14    1
    11    10     8    1
    12    12    13   ar
    13     4     5    1
    14    15    14   am
    15    15    17    1
    16     7     5    1
    17    18    17    1
    18     5     8    1
    19     5     6    1
    20    17    19    1
    21    24    19   ar
    22    24    23   ar
    23    19    20   ar
    24    23    22   ar
    25    20    21   ar
    26    22    21   ar
