@<TRIPOS>MOLECULE
4hl5_15W_A_1.pdb
 20 22 0 0 0
SMALL
GASTEIGER

@<TRIPOS>ATOM
      1  CAS       -1.3560  -10.2720  -23.3710 C.3   1204  15W1204     0.2525
      2  OAR       -2.5270  -10.9710  -22.9720 O.3   1204  15W1204    -0.4714
      3  CAP       -2.5690  -11.1920  -21.6200 C.ar  1204  15W1204     0.1387
      4  CAO       -1.4410  -11.1330  -20.7880 C.ar  1204  15W1204     0.0370
      5  CAN       -1.5660  -11.3770  -19.4140 C.ar  1204  15W1204     0.0061
      6  CAL       -3.7930  -11.5130  -21.0460 C.ar  1204  15W1204     0.0370
      7  CAM       -3.9160  -11.7560  -19.6890 C.ar  1204  15W1204     0.0061
      8  CAK       -2.8130  -11.6960  -18.8430 C.ar  1204  15W1204     0.0349
      9  CAI       -2.9890  -11.9440  -17.4710 C.ar  1204  15W1204     0.1484
     10  OAJ       -4.2830  -11.9770  -17.0510 O.2   1204  15W1204    -0.4532
     11  CAF       -4.5920  -12.2110  -15.7420 C.ar  1204  15W1204     0.1515
     12  CAA       -5.9220  -12.2480  -15.3560 C.ar  1204  15W1204     0.0796
     13  CAB       -6.2590  -12.4840  -14.0220 C.ar  1204  15W1204     0.1988
     14  OAT       -7.5720  -12.4930  -13.6520 O.3   1204  15W1204    -0.2865
     15  CAC       -5.2500  -12.6960  -13.0830 C.ar  1204  15W1204     0.0423
     16  CAD       -3.9160  -12.6540  -13.4730 C.ar  1204  15W1204     0.0095
     17  CAE       -3.5610  -12.4090  -14.8050 C.ar  1204  15W1204     0.0737
     18  CAG       -2.2140  -12.3830  -15.2130 C.ar  1204  15W1204     0.2016
     19  OAQ       -1.2650  -12.5430  -14.4250 O.2   1204  15W1204    -0.2864
     20  CAH       -1.9480  -12.1250  -16.5550 C.ar  1204  15W1204     0.0796
@<TRIPOS>BOND
     1     1     2    1
     2     2     3    1
     3     3     6   ar
     4     3     4   ar
     5     6     7   ar
     6     4     5   ar
     7     7     8   ar
     8     5     8   ar
     9     8     9    1
    10     9    10   ar
    11     9    20   ar
    12    10    11   ar
    13    20    18   ar
    14    11    12   ar
    15    11    17   ar
    16    12    13   ar
    17    18    17   ar
    18    18    19    2
    19    17    16   ar
    20    13    14    1
    21    13    15   ar
    22    16    15   ar
