@<TRIPOS>MOLECULE
4hlc_T05_A_1.pdb
 35 38 0 0 0
SMALL
GASTEIGER

@<TRIPOS>ATOM
      1  C4         5.6760   -1.9040   50.4660 C.ar  301  T05301      0.0028
      2  C13        3.9370    1.5660   55.0600 C.ar  301  T05301      0.0110
      3  C3         6.6510   -1.7730   49.5040 C.ar  301  T05301     -0.0041
      4  C5         5.5880   -0.9510   51.4660 C.ar  301  T05301      0.0375
      5  C12        2.9670    2.2780   54.4000 C.ar  301  T05301      0.0203
      6  C7         7.4510    0.2420   50.5210 C.ar  301  T05301      0.0332
      7  C10        4.2920    2.2130   52.3850 C.ar  301  T05301      0.0576
      8  C14        5.0780    1.1530   54.4010 C.ar  301  T05301      0.1143
      9  C2         7.5370   -0.7140   49.5280 C.ar  301  T05301     -0.0188
     10  C6         6.4660    0.1190   51.4780 C.ar  301  T05301      0.1450
     11  C9         5.2520    1.4800   53.0600 C.ar  301  T05301      0.1529
     12  C11        3.1350    2.5830   53.0620 C.ar  301  T05301      0.1252
     13  C28        1.1120   -1.1820   49.0400 C.2   301  T05301      0.0853
     14  C29        1.5150   -1.9180   47.9900 C.2   301  T05301      0.0890
     15  C30        1.3540   -1.3300   46.6290 C.1   301  T05301      0.2134
     16  C33        0.4230    0.6940   47.6770 C.1   301  T05301      0.2825
     17  C15        6.0670    0.3970   55.1860 C.2   301  T05301      0.3907
     18  C23       -1.2790    0.8880   52.1760 C.3   301  T05301      0.0209
     19  C24       -0.8370    0.0290   50.9910 C.3   301  T05301      0.0239
     20  C22       -0.0560    1.5280   52.8110 C.3   301  T05301      0.0959
     21  C26        1.2740    1.3890   50.7630 C.3   301  T05301      0.1167
     22  C25        0.0800    0.8240   50.0540 C.3   301  T05301      0.1076
     23  C1         8.5850   -0.5690   48.4910 C.3   301  T05301      0.0311
     24  C35        2.1180   -3.2740   48.1080 C.3   301  T05301      0.0462
     25  N32        0.8110   -0.0550   46.5980 N.2   301  T05301     -0.2456
     26  N27        0.5430    0.0730   48.9060 N.am  301  T05301     -0.2040
     27  N21        0.7130    2.2900   51.7820 N.3   301  T05301     -0.1538
     28  O31        1.6740   -1.9360   45.6100 O.2   301  T05301     -0.2088
     29  O34        0.0040    1.8360   47.5450 O.2   301  T05301     -0.1919
     30  O16        6.4870    0.9520   56.2350 O.co2 301  T05301     -0.2404
     31  O19        1.1320    4.3030   53.2540 O.2   301  T05301     -0.1528
     32  O20        2.4440    4.0990   51.0830 O.2   301  T05301     -0.1528
     33  O17        6.3900   -0.7530   54.7820 O.co2 301  T05301     -0.2404
     34  O8         6.4440    1.1180   52.4530 O.3   301  T05301     -0.4532
     35  S18        1.8220    3.5040   52.2530 S.O2  301  T05301      0.0634
@<TRIPOS>BOND
     1    28    15    2
     2    25    15    2
     3    25    16    2
     4    15    14    1
     5    29    16    2
     6    16    26   am
     7    14    24    1
     8    14    13    2
     9    23     9    1
    10    26    13    1
    11    26    22    1
    12     3     9   ar
    13     3     1   ar
    14     9     6   ar
    15    22    21    1
    16    22    19    1
    17     1     4   ar
    18     6    10   ar
    19    21    27    1
    20    19    18    1
    21    32    35    2
    22     4    10   ar
    23    10    34    1
    24    27    35    1
    25    27    20    1
    26    18    20    1
    27    35    12    1
    28    35    31    2
    29     7    11   ar
    30     7    12   ar
    31    34    11    1
    32    11     8   ar
    33    12     5   ar
    34     5     2   ar
    35     8     2   ar
    36     8    17    1
    37    33    17   ar
    38    17    30   ar
