@<TRIPOS>MOLECULE
4hld_16T_A_1.pdb
 33 36 0 0 0
SMALL
GASTEIGER

@<TRIPOS>ATOM
      1  C1        12.3470   -3.3710    0.9020 C.3   301  16T301      0.0462
      2  C2        11.8130   -2.0080    0.6980 C.2   301  16T301      0.0890
      3  C3        11.4020   -1.2570    1.7220 C.2   301  16T301      0.0853
      4  N4        10.8930    0.0130    1.5930 N.am  301  16T301     -0.2040
      5  C5        10.7990    0.6400    0.3680 C.1   301  16T301      0.2825
      6  O6        10.3940    1.7850    0.2330 O.2   301  16T301     -0.1919
      7  N7        11.1950   -0.1280   -0.7020 N.2   301  16T301     -0.2456
      8  C8        11.6940   -1.4200   -0.6630 C.1   301  16T301      0.2134
      9  O9        12.0260   -2.0420   -1.6690 O.2   301  16T301     -0.2088
     10  C10       10.4230    0.7370    2.7410 C.3   301  16T301      0.1076
     11  C11        9.4230   -0.0370    3.5930 C.3   301  16T301      0.0239
     12  C12        8.9300    0.7710    4.7820 C.3   301  16T301      0.0209
     13  C13       10.0970    1.3670    5.5480 C.3   301  16T301      0.0959
     14  N14       10.9310    2.1550    4.5890 N.3   301  16T301     -0.1538
     15  C15       11.5610    1.3030    3.5450 C.3   301  16T301      0.1167
     16  S16       11.9330    3.3830    5.2320 S.O2  301  16T301      0.0634
     17  O17       11.1750    4.0580    6.2740 O.2   301  16T301     -0.1528
     18  O18       12.5560    4.0590    4.1090 O.2   301  16T301     -0.1528
     19  C19       13.2160    2.4030    5.9740 C.ar  301  16T301      0.1254
     20  C20       13.0310    1.9180    7.2510 C.ar  301  16T301      0.0234
     21  C21       14.0170    1.1330    7.8140 C.ar  301  16T301      0.0466
     22  C22       15.1540    0.8420    7.0920 C.ar  301  16T301      0.2299
     23  C23       15.3290    1.3350    5.8110 C.ar  301  16T301      0.1853
     24  C24       14.3640    2.1410    5.2480 C.ar  301  16T301      0.0607
     25  O25       16.4990    1.0890    5.1120 O.3   301  16T301     -0.4502
     26  C26       16.5550    0.0590    4.1810 C.ar  301  16T301      0.1463
     27  C27       15.8180   -1.1100    4.2390 C.ar  301  16T301      0.0375
     28  C28       15.9910   -2.0740    3.2620 C.ar  301  16T301      0.0040
     29  C29       16.8910   -1.8860    2.2330 C.ar  301  16T301      0.0116
     30  C30       17.6210   -0.7180    2.1830 C.ar  301  16T301      0.0607
     31  C31       17.4530    0.2450    3.1530 C.ar  301  16T301      0.0489
     32 CL1        18.7460   -0.3830    0.9210 Cl    301  16T301     -0.0821
     33  O33       16.1120    0.0490    7.6740 O.3   301  16T301     -0.2833
@<TRIPOS>BOND
     1     9     8    2
     2     7     8    2
     3     7     5    2
     4     8     2    1
     5     6     5    2
     6     5     4   am
     7     2     1    1
     8     2     3    2
     9    32    30    1
    10     4     3    1
    11     4    10    1
    12    30    29   ar
    13    30    31   ar
    14    29    28   ar
    15    10    15    1
    16    10    11    1
    17    31    26   ar
    18    28    27   ar
    19    15    14    1
    20    11    12    1
    21    18    16    2
    22    26    27   ar
    23    26    25    1
    24    14    16    1
    25    14    13    1
    26    12    13    1
    27    25    23    1
    28    16    19    1
    29    16    17    2
    30    24    23   ar
    31    24    19   ar
    32    23    22   ar
    33    19    20   ar
    34    22    33    1
    35    22    21   ar
    36    20    21   ar
