@<TRIPOS>MOLECULE
4hle_17V_A_1.pdb
 25 28 0 0 0
SMALL
GASTEIGER

@<TRIPOS>ATOM
      1  C1        15.9260   17.0270  125.2680 C.3   1201  17V1201     0.0264
      2  C2        15.0440   15.8140  125.5760 C.3   1201  17V1201     0.1070
      3  C3        14.6000   15.1250  124.2850 C.3   1201  17V1201     0.0264
      4  N4        15.7090   14.8420  126.4600 N.ar  1201  17V1201    -0.2341
      5  C5        15.2080   14.2050  127.5720 C.ar  1201  17V1201     0.1671
      6  N6        16.1610   13.4050  128.0230 N.ar  1201  17V1201    -0.2033
      7  C7        17.2390   13.5000  127.2580 C.ar  1201  17V1201     0.2209
      8  N8        17.0210   14.3630  126.3060 N.ar  1201  17V1201    -0.1453
      9  C9        13.8630   14.2950  128.1800 C.ar  1201  17V1201     0.0646
     10  C10       13.4470   13.5890  129.2650 C.ar  1201  17V1201     0.0059
     11  C11       12.1420   13.7530  129.6750 C.ar  1201  17V1201    -0.0117
     12  C12       11.4470   14.6570  128.8660 C.ar  1201  17V1201     0.0286
     13  S13       12.5140   15.2520  127.6120 S.2   1201  17V1201    -0.0841
     14  C14       10.0290   15.1070  128.9840 C.ar  1201  17V1201     0.0397
     15  C15        9.6610   16.3560  128.4690 C.ar  1201  17V1201     0.0037
     16  C16        8.3550   16.7790  128.5200 C.ar  1201  17V1201     0.0048
     17  C17        7.3620   15.9610  129.0910 C.ar  1201  17V1201     0.0597
     18  C18        7.7140   14.6880  129.5860 C.ar  1201  17V1201     0.0415
     19  C19        9.0230   14.2470  129.5120 C.ar  1201  17V1201     0.1391
     20  O20        9.3740   13.0410  130.0080 O.3   1201  17V1201    -0.4751
     21  C21       10.1520   12.9990  131.2010 C.3   1201  17V1201     0.2101
     22  C22       11.6480   12.9890  130.9020 C.3   1201  17V1201     0.0742
     23  C23        5.9590   16.4460  129.1700 C.2   1201  17V1201     0.2843
     24  O24        5.6060   17.4140  128.5150 O.2   1201  17V1201    -0.2667
     25  N25        5.0600   15.8330  129.9740 N.am  1201  17V1201    -0.0837
@<TRIPOS>BOND
     1     3     2    1
     2     1     2    1
     3     2     4    1
     4     8     4   ar
     5     8     7   ar
     6     4     5   ar
     7     7     6   ar
     8     5     6   ar
     9     5     9    1
    10    13     9   ar
    11    13    12   ar
    12     9    10   ar
    13    15    16   ar
    14    15    14   ar
    15    24    23    2
    16    16    17   ar
    17    12    14    1
    18    12    11   ar
    19    14    19   ar
    20    17    23    1
    21    17    18   ar
    22    23    25   am
    23    10    11   ar
    24    19    18   ar
    25    19    20    1
    26    11    22    1
    27    20    21    1
    28    22    21    1
