@<TRIPOS>MOLECULE
4hlf_15Z_A_1.pdb
 20 22 0 0 0
SMALL
GASTEIGER

@<TRIPOS>ATOM
      1  CAM       -6.9070  -38.8830    9.8070 C.ar  1205  15Z1205     0.0484
      2  CAL       -6.7300  -39.0590    8.4340 C.ar  1205  15Z1205     0.2344
      3  OAT       -7.1710  -40.1360    7.7560 O.3   1205  15Z1205    -0.2831
      4  CAP       -6.1090  -38.1010    7.6750 C.ar  1205  15Z1205     0.2343
      5  OAS       -6.0220  -38.3290    6.3400 O.3   1205  15Z1205    -0.2831
      6  CAO       -5.6250  -36.9470    8.2690 C.ar  1205  15Z1205     0.0455
      7  CAN       -5.7870  -36.7540    9.6320 C.ar  1205  15Z1205     0.0065
      8  CAK       -6.4360  -37.7130   10.4300 C.ar  1205  15Z1205     0.0381
      9  CAJ       -6.5570  -37.4520   11.8150 C.ar  1205  15Z1205     0.1485
     10  OAG       -5.8080  -36.3960   12.2310 O.2   1205  15Z1205    -0.4532
     11  CAF       -5.7490  -36.0410   13.5310 C.ar  1205  15Z1205     0.1515
     12  CAA       -4.8800  -35.0180   13.8610 C.ar  1205  15Z1205     0.0796
     13  CAB       -4.7670  -34.6110   15.1820 C.ar  1205  15Z1205     0.1988
     14  OAR       -3.8990  -33.5680   15.4850 O.3   1205  15Z1205    -0.2865
     15  CAC       -5.5150  -35.2960   16.1480 C.ar  1205  15Z1205     0.0423
     16  CAD       -6.3960  -36.3550   15.8040 C.ar  1205  15Z1205     0.0095
     17  CAE       -6.5310  -36.7260   14.4620 C.ar  1205  15Z1205     0.0737
     18  CAH       -7.3910  -37.7810   14.0410 C.ar  1205  15Z1205     0.2016
     19  OAQ       -8.2180  -38.3160   14.8100 O.2   1205  15Z1205    -0.2864
     20  CAI       -7.4140  -38.1120   12.6970 C.ar  1205  15Z1205     0.0796
@<TRIPOS>BOND
     1     5     4    1
     2     4     6   ar
     3     4     2   ar
     4     3     2    1
     5     6     7   ar
     6     2     1   ar
     7     7     8   ar
     8     1     8   ar
     9     8     9    1
    10     9    10   ar
    11     9    20   ar
    12    10    11   ar
    13    20    18   ar
    14    11    12   ar
    15    11    17   ar
    16    12    13   ar
    17    18    17   ar
    18    18    19    2
    19    17    16   ar
    20    13    14    1
    21    13    15   ar
    22    16    15   ar
