@<TRIPOS>MOLECULE
4hlg_20B_A_1.pdb
 18 20 0 0 0
SMALL
GASTEIGER

@<TRIPOS>ATOM
      1  CAM       -7.2850  -37.9970    9.6740 C.ar  1203  20B1203     0.0451
      2  CAL       -7.0470  -38.1460    8.2950 C.ar  1203  20B1203     0.1958
      3  OAR       -7.4830  -39.2500    7.6450 O.3   1203  20B1203    -0.2866
      4  CAP       -6.3830  -37.1540    7.5620 C.ar  1203  20B1203     0.0420
      5  CAO       -5.9360  -36.0310    8.2470 C.ar  1203  20B1203     0.0034
      6  CAN       -6.1520  -35.8820    9.6180 C.ar  1203  20B1203     0.0032
      7  CAK       -6.8340  -36.8520   10.3670 C.ar  1203  20B1203     0.0378
      8  CAI       -7.0000  -36.6590   11.7790 C.ar  1203  20B1203     0.1485
      9  OAJ       -6.2170  -35.6660   12.2990 O.2   1203  20B1203    -0.4533
     10  CAF       -6.1240  -35.4160   13.6210 C.ar  1203  20B1203     0.1483
     11  CAA       -5.2380  -34.4300   14.0510 C.ar  1203  20B1203     0.0376
     12  CAB       -5.1070  -34.1880   15.4260 C.ar  1203  20B1203     0.0031
     13  CAC       -5.8720  -34.9580   16.3200 C.ar  1203  20B1203     0.0003
     14  CAD       -6.7580  -35.9420   15.8590 C.ar  1203  20B1203     0.0062
     15  CAE       -6.9060  -36.1600   14.5000 C.ar  1203  20B1203     0.0735
     16  CAG       -7.7760  -37.1540   14.0210 C.ar  1203  20B1203     0.2016
     17  OAQ       -8.5470  -37.7450   14.7970 O.2   1203  20B1203    -0.2864
     18  CAH       -7.7830  -37.4230   12.6530 C.ar  1203  20B1203     0.0796
@<TRIPOS>BOND
     1     4     5   ar
     2     4     2   ar
     3     3     2    1
     4     5     6   ar
     5     2     1   ar
     6     6     7   ar
     7     1     7   ar
     8     7     8    1
     9     8     9   ar
    10     8    18   ar
    11     9    10   ar
    12    18    16   ar
    13    10    11   ar
    14    10    15   ar
    15    16    15   ar
    16    16    17    2
    17    11    12   ar
    18    15    14   ar
    19    12    13   ar
    20    14    13   ar
