@<TRIPOS>MOLECULE
4hlh_20D_A_1.pdb
 18 20 0 0 0
SMALL
GASTEIGER

@<TRIPOS>ATOM
      1  CAJ      -38.0730  -10.9370   12.8940 C.ar  1204  20D1204     0.0796
      2  CAG      -38.0850  -11.2500   14.2410 C.ar  1204  20D1204     0.2016
      3  OAK      -37.3290  -10.6490   14.9940 O.2   1204  20D1204    -0.2864
      4  CAF      -38.9210  -12.2690   14.6820 C.ar  1204  20D1204     0.0735
      5  CAA      -39.0470  -12.5270   16.0430 C.ar  1204  20D1204     0.0062
      6  CAB      -39.8860  -13.5690   16.4600 C.ar  1204  20D1204     0.0003
      7  CAC      -40.5860  -14.3350   15.5180 C.ar  1204  20D1204     0.0031
      8  CAD      -40.4670  -14.0500   14.1630 C.ar  1204  20D1204     0.0376
      9  CAE      -39.6300  -13.0400   13.7540 C.ar  1204  20D1204     0.1483
     10  OAH      -39.5520  -12.7430   12.4250 O.2   1204  20D1204    -0.4533
     11  CAI      -38.8630  -11.6410   12.0160 C.ar  1204  20D1204     0.1484
     12  CAL      -38.8780  -11.3880   10.6240 C.ar  1204  20D1204     0.0348
     13  CAM      -38.2700  -10.2690   10.0420 C.ar  1204  20D1204     0.0053
     14  CAN      -38.3180  -10.0710    8.6560 C.ar  1204  20D1204     0.0297
     15  CAO      -38.9720  -10.9940    7.8520 C.ar  1204  20D1204     0.1401
     16  FAR      -39.0330  -10.8350    6.5030 F     1204  20D1204    -0.2042
     17  CAP      -39.5920  -12.0940    8.4130 C.ar  1204  20D1204     0.0297
     18  CAQ      -39.5500  -12.2910    9.7940 C.ar  1204  20D1204     0.0053
@<TRIPOS>BOND
     1    16    15    1
     2    15    17   ar
     3    15    14   ar
     4    17    18   ar
     5    14    13   ar
     6    18    12   ar
     7    13    12   ar
     8    12    11    1
     9    11    10   ar
    10    11     1   ar
    11    10     9   ar
    12     1     2   ar
    13     9     8   ar
    14     9     4   ar
    15     8     7   ar
    16     2     4   ar
    17     2     3    2
    18     4     5   ar
    19     7     6   ar
    20     5     6   ar
