@<TRIPOS>MOLECULE
4hlk_431_A_1.pdb
 18 20 0 0 0
SMALL
GASTEIGER

@<TRIPOS>ATOM
      1  CAB      -39.2680  -10.6260   12.9580 C.ar  1203  4311203     0.0796
      2  CAD      -39.3080  -10.9050   14.3180 C.ar  1203  4311203     0.2016
      3  OAH      -38.4830  -10.3380   15.0630 O.2   1203  4311203    -0.2864
      4  CAE      -40.1750  -11.9270   14.7710 C.ar  1203  4311203     0.0735
      5  CAN      -40.3000  -12.2260   16.1230 C.ar  1203  4311203     0.0062
      6  CAQ      -41.1590  -13.2490   16.5520 C.ar  1203  4311203     0.0003
      7  CAR      -41.8940  -14.0100   15.6270 C.ar  1203  4311203     0.0031
      8  CAO      -41.7750  -13.6970   14.2750 C.ar  1203  4311203     0.0376
      9  CAF      -40.9260  -12.6760   13.8610 C.ar  1203  4311203     0.1483
     10  OAC      -40.8450  -12.3810   12.5150 O.2   1203  4311203    -0.4533
     11  CAA      -40.0570  -11.3510   12.0550 C.ar  1203  4311203     0.1484
     12  CAG      -40.1190  -11.1140   10.6550 C.ar  1203  4311203     0.0346
     13  CAI      -39.4090  -10.0940    9.9830 C.ar  1203  4311203     0.0027
     14  CAK      -39.5250   -9.9090    8.6000 C.ar  1203  4311203    -0.0042
     15  CAM      -40.3470  -10.7280    7.8240 C.ar  1203  4311203    -0.0218
     16  CAP      -40.4720  -10.5690    6.4140 C.3   1203  4311203     0.0310
     17  CAL      -41.0520  -11.7450    8.4840 C.ar  1203  4311203    -0.0042
     18  CAJ      -40.9360  -11.9380    9.8660 C.ar  1203  4311203     0.0027
@<TRIPOS>BOND
     1    16    15    1
     2    15    17   ar
     3    15    14   ar
     4    17    18   ar
     5    14    13   ar
     6    18    12   ar
     7    13    12   ar
     8    12    11    1
     9    11    10   ar
    10    11     1   ar
    11    10     9   ar
    12     1     2   ar
    13     9     8   ar
    14     9     4   ar
    15     8     7   ar
    16     2     4   ar
    17     2     3    2
    18     4     5   ar
    19     7     6   ar
    20     5     6   ar
