@<TRIPOS>MOLECULE
4hlm_16S_A_1.pdb
 19 21 0 0 0
SMALL
GASTEIGER

@<TRIPOS>ATOM
      1  CAM       -7.3660   37.8310   -9.6990 C.ar  1204  16S1204     0.0484
      2  CAL       -7.1950   37.9870   -8.3110 C.ar  1204  16S1204     0.2344
      3  OAR       -7.6480   39.0670   -7.6210 O.3   1204  16S1204    -0.2831
      4  CAP       -6.5440   37.0140   -7.5500 C.ar  1204  16S1204     0.2343
      5  OAS       -6.4320   37.2290   -6.2110 O.3   1204  16S1204    -0.2831
      6  CAO       -6.0450   35.8760   -8.1610 C.ar  1204  16S1204     0.0455
      7  CAN       -6.2040   35.7200   -9.5410 C.ar  1204  16S1204     0.0065
      8  CAK       -6.8690   36.6720  -10.3360 C.ar  1204  16S1204     0.0381
      9  CAJ       -6.9700   36.4390  -11.7320 C.ar  1204  16S1204     0.1485
     10  OAG       -6.2050   35.4000  -12.1940 O.2   1204  16S1204    -0.4533
     11  CAF       -6.1170   35.1230  -13.5390 C.ar  1204  16S1204     0.1483
     12  CAA       -5.2520   34.1240  -13.9610 C.ar  1204  16S1204     0.0376
     13  CAB       -5.1370   33.8620  -15.3260 C.ar  1204  16S1204     0.0031
     14  CAC       -5.8740   34.6120  -16.2500 C.ar  1204  16S1204     0.0003
     15  CAD       -6.7560   35.6150  -15.8080 C.ar  1204  16S1204     0.0062
     16  CAE       -6.8850   35.8560  -14.4420 C.ar  1204  16S1204     0.0735
     17  CAH       -7.7400   36.8600  -13.9810 C.ar  1204  16S1204     0.2016
     18  OAQ       -8.4960   37.4310  -14.7600 O.2   1204  16S1204    -0.2864
     19  CAI       -7.7730   37.1640  -12.6190 C.ar  1204  16S1204     0.0796
@<TRIPOS>BOND
     1    14    15   ar
     2    14    13   ar
     3    15    16   ar
     4    13    12   ar
     5    18    17    2
     6    16    17   ar
     7    16    11   ar
     8    17    19   ar
     9    12    11   ar
    10    11    10   ar
    11    19     9   ar
    12    10     9   ar
    13     9     8    1
    14     8     1   ar
    15     8     7   ar
    16     1     2   ar
    17     7     6   ar
    18     2     3    1
    19     2     4   ar
    20     6     4   ar
    21     4     5    1
