@<TRIPOS>MOLECULE
4hlq_GDP_B_1.pdb
 28 30 0 0 0
SMALL
GASTEIGER

@<TRIPOS>ATOM
      1  PB        -4.8340   12.6460  -82.8960 P.3   202  GDP202      0.5373
      2  O1B       -5.9030   11.7020  -82.5780 O.3   202  GDP202     -0.1143
      3  O2B       -4.5150   13.5900  -81.7950 O.3   202  GDP202     -0.1143
      4  O3B       -4.9110   13.2320  -84.2230 O.2   202  GDP202     -0.2221
      5  O3A       -3.5230   11.7640  -82.9680 O.3   202  GDP202     -0.2261
      6  PA        -2.0970   12.3940  -82.5950 P.3   202  GDP202      0.2231
      7  O1A       -1.7300   13.4400  -83.5690 O.2   202  GDP202     -0.5169
      8  O2A       -2.0910   12.7210  -81.1510 O.3   202  GDP202     -0.4370
      9  O5'       -1.1660   11.1450  -82.8470 O.3   202  GDP202     -0.3111
     10  C5'        0.0280   11.1060  -82.0740 C.3   202  GDP202      0.1813
     11  C4'        0.8240    9.8500  -82.4050 C.3   202  GDP202      0.1799
     12  O4'        0.5970    9.4310  -83.7710 O.3   202  GDP202     -0.3326
     13  C3'        2.2750   10.2340  -82.2800 C.3   202  GDP202      0.2158
     14  O3'        2.7420    9.8050  -80.9820 O.3   202  GDP202     -0.2175
     15  C2'        2.9830    9.5120  -83.4290 C.3   202  GDP202      0.2310
     16  O2'        3.4630    8.2290  -83.0170 O.3   202  GDP202     -0.2158
     17  C1'        1.8910    9.2900  -84.4450 C.3   202  GDP202      0.2293
     18  N9         1.9400   10.2040  -85.6250 N.pl3 202  GDP202     -0.2354
     19  C8         1.1860   11.2880  -85.7870 C.3   202  GDP202      0.2246
     20  N7         1.4710   11.8320  -86.9630 N.2   202  GDP202     -0.2322
     21  C5         2.3960   11.0780  -87.5400 C.2   202  GDP202      0.2182
     22  C6         3.0030   11.2020  -88.7220 C.1   202  GDP202      0.2372
     23  O6         2.7280   12.1370  -89.4780 O.2   202  GDP202     -0.2069
     24  N1         3.9620   10.2440  -89.0970 N.2   202  GDP202     -0.2485
     25  C2         4.2390    9.1970  -88.2100 C.1   202  GDP202      0.2531
     26  N2         5.1370    8.2790  -88.5280 N.pl3 202  GDP202     -0.0226
     27  N3         3.5930    9.1290  -87.0380 N.2   202  GDP202     -0.3074
     28  C4         2.6850   10.0610  -86.7130 C.2   202  GDP202      0.2300
@<TRIPOS>BOND
     1    23    22    2
     2    24    22    2
     3    24    25    2
     4    22    21    1
     5    26    25    1
     6    25    27    2
     7    21    20    2
     8    21    28    1
     9    27    28    2
    10    20    19    1
    11    28    18    1
    12    19    18    1
    13    18    17    1
    14    17    12    1
    15    17    15    1
    16     4     1    2
    17    12    11    1
    18     7     6    2
    19    15    16    1
    20    15    13    1
    21     5     1    1
    22     5     6    1
    23     1     2    1
    24     1     3    1
    25     9     6    1
    26     9    10    1
    27     6     8    1
    28    11    13    1
    29    11    10    1
    30    13    14    1
