@<TRIPOS>MOLECULE
4hlu_ADP_A_1.pdb
 27 29 0 0 0
SMALL
GASTEIGER

@<TRIPOS>ATOM
      1  PB        37.5170   32.6370   17.3310 P.3   301  ADP301      0.5373
      2  O1B       38.1590   33.9030   16.8000 O.2   301  ADP301     -0.2221
      3  O2B       38.3050   31.3710   17.0700 O.3   301  ADP301     -0.1143
      4  O3B       37.0130   32.7570   18.7520 O.3   301  ADP301     -0.1143
      5  PA        36.0760   32.5710   14.8660 P.3   301  ADP301      0.2231
      6  O1A       37.4010   33.0340   14.3000 O.2   301  ADP301     -0.5169
      7  O2A       34.8200   33.3500   14.5830 O.3   301  ADP301     -0.4370
      8  O3A       36.1610   32.4390   16.4750 O.3   301  ADP301     -0.2261
      9  O5'       35.8220   31.0610   14.3820 O.3   301  ADP301     -0.3111
     10  C5'       34.6940   30.3330   14.8490 C.3   301  ADP301      0.1813
     11  C4'       34.5000   29.1130   13.9580 C.3   301  ADP301      0.1821
     12  O4'       34.0070   29.5090   12.6810 O.3   301  ADP301     -0.3135
     13  C3'       35.8050   28.3760   13.7200 C.3   301  ADP301      0.2184
     14  O3'       35.6140   27.0030   14.0590 O.3   301  ADP301     -0.2174
     15  C2'       36.0950   28.4980   12.2400 C.3   301  ADP301      0.2570
     16  O2'       36.5360   27.2460   11.7240 O.3   301  ADP301     -0.2130
     17  C1'       34.7550   28.8810   11.6390 C.3   301  ADP301      0.3186
     18  N9        34.8410   29.8160   10.4900 N.pl3 301  ADP301     -0.1439
     19  C8        35.1040   31.1340   10.5700 C.3   301  ADP301      0.3377
     20  N7        35.0870   31.7100    9.3380 N.2   301  ADP301     -0.2095
     21  C5        34.7970   30.7490    8.4410 C.2   301  ADP301      0.2526
     22  C6        34.6250   30.6750    6.9740 C.2   301  ADP301      0.4393
     23  N6        34.7640   31.7830    6.2050 N.pl3 301  ADP301      0.2180
     24  N1        34.3270   29.4690    6.4390 N.2   301  ADP301      0.0021
     25  C2        34.1890   28.3650    7.1950 C.3   301  ADP301      0.5254
     26  N3        34.3320   28.3590    8.5310 N.2   301  ADP301     -0.0055
     27  C4        34.6330   29.5000    9.2040 C.2   301  ADP301      0.3518
@<TRIPOS>BOND
     1    23    22    1
     2    24    22    2
     3    24    25    1
     4    22    21    1
     5    25    26    1
     6    21    27    1
     7    21    20    2
     8    26    27    2
     9    27    18    1
    10    20    19    1
    11    18    19    1
    12    18    17    1
    13    17    15    1
    14    17    12    1
    15    16    15    1
    16    15    13    1
    17    12    11    1
    18    13    11    1
    19    13    14    1
    20    11    10    1
    21     6     5    2
    22     9    10    1
    23     9     5    1
    24     7     5    1
    25     5     8    1
    26     8     1    1
    27     2     1    2
    28     3     1    1
    29     1     4    1
