@<TRIPOS>MOLECULE
4hlv_IMP_A_1.pdb
 23 25 0 0 0
SMALL
GASTEIGER

@<TRIPOS>ATOM
      1  P         82.1430    7.4570    9.6590 P.3   501  IMP501      0.5327
      2  O1P       82.4020    7.2180    8.1610 O.2   501  IMP501     -0.2224
      3  O2P       80.6820    7.0490   10.0140 O.3   501  IMP501     -0.1145
      4  O3P       82.5240    8.9340   10.0410 O.3   501  IMP501     -0.1145
      5  O5'       83.1200    6.5210   10.4560 O.3   501  IMP501     -0.2675
      6  C5'       84.5360    6.7270   10.3460 C.3   501  IMP501      0.1860
      7  C4'       85.1990    5.7900   11.3700 C.3   501  IMP501      0.1823
      8  O4'       85.0030    4.3880   11.0700 O.3   501  IMP501     -0.3135
      9  C3'       86.7280    5.9210   11.3960 C.3   501  IMP501      0.2184
     10  O3'       87.1290    7.0710   12.0990 O.3   501  IMP501     -0.2174
     11  C2'       87.1890    4.6060   12.0490 C.3   501  IMP501      0.2570
     12  O2'       87.1250    4.6480   13.4980 O.3   501  IMP501     -0.2130
     13  C1'       86.1270    3.6400   11.5900 C.3   501  IMP501      0.3186
     14  N9        86.6210    2.7640   10.5280 N.pl3 501  IMP501     -0.1435
     15  C8        87.3550    3.0640    9.4380 C.3   501  IMP501      0.3382
     16  N7        87.5460    1.9220    8.7480 N.2   501  IMP501     -0.2054
     17  C5        86.9440    0.9300    9.4070 C.2   501  IMP501      0.2446
     18  C6        86.7780   -0.4120    9.1730 C.1   501  IMP501      0.1792
     19  O6        87.2410   -1.0300    8.2070 O.2   501  IMP501     -0.2203
     20  N1        86.0780   -1.1140   10.0540 N.2   501  IMP501     -0.1458
     21  C2        85.5060   -0.5530   11.1380 C.3   501  IMP501      0.4017
     22  N3        85.6460    0.7740   11.4080 N.2   501  IMP501     -0.0334
     23  C4        86.3710    1.4900   10.5230 C.2   501  IMP501      0.3528
@<TRIPOS>BOND
     1     2     1    2
     2    19    18    2
     3    16    17    2
     4    16    15    1
     5    18    17    1
     6    18    20    2
     7    17    23    1
     8    15    14    1
     9     1     3    1
    10     1     4    1
    11     1     5    1
    12    20    21    1
    13     6     5    1
    14     6     7    1
    15    23    14    1
    16    23    22    2
    17    14    13    1
    18     8     7    1
    19     8    13    1
    20    21    22    1
    21     7     9    1
    22     9    11    1
    23     9    10    1
    24    13    11    1
    25    11    12    1
