@<TRIPOS>MOLECULE
4hlv_NAJ_A_1.pdb
 44 48 0 0 0
SMALL
GASTEIGER

@<TRIPOS>ATOM
      1  PA        95.2540   -3.2080   13.8820 P.3   502  NAJ502      0.2189
      2  O1A       95.3770   -4.2120   12.7480 O.2   502  NAJ502     -0.5170
      3  O2A       96.0180   -1.8830   13.8370 O.3   502  NAJ502     -0.4371
      4  O5B       95.6370   -4.0900   15.2000 O.3   502  NAJ502     -0.3112
      5  C5B       95.9200   -3.4260   16.4320 C.3   502  NAJ502      0.1813
      6  C4B       95.6710   -4.3120   17.6500 C.3   502  NAJ502      0.1821
      7  O4B       94.2750   -4.5230   17.9360 O.3   502  NAJ502     -0.3135
      8  C3B       96.2090   -5.7360   17.5670 C.3   502  NAJ502      0.2184
      9  O3B       97.6350   -5.8610   17.5800 O.3   502  NAJ502     -0.2174
     10  C2B       95.5610   -6.3080   18.8140 C.3   502  NAJ502      0.2570
     11  O2B       96.3530   -5.9870   19.9740 O.3   502  NAJ502     -0.2130
     12  C1B       94.1940   -5.5990   18.8940 C.3   502  NAJ502      0.3186
     13  N9A       93.0130   -6.5370   18.7590 N.pl3 502  NAJ502     -0.1439
     14  C8A       92.6600   -7.4810   19.6850 C.3   502  NAJ502      0.3377
     15  N7A       91.5490   -8.1770   19.3090 N.2   502  NAJ502     -0.2095
     16  C5A       91.1660   -7.6700   18.1210 C.2   502  NAJ502      0.2526
     17  C6A       90.0770   -7.9350   17.1600 C.2   502  NAJ502      0.4393
     18  N6A       89.1690   -8.8860   17.4040 N.pl3 502  NAJ502      0.2180
     19  N1A       90.0060   -7.2160   16.0180 N.2   502  NAJ502      0.0021
     20  C2A       90.9160   -6.2560   15.7540 C.3   502  NAJ502      0.5254
     21  N3A       91.9250   -5.9330   16.6020 N.2   502  NAJ502     -0.0055
     22  C4A       92.1180   -6.6020   17.7610 C.2   502  NAJ502      0.3518
     23  O3        93.7230   -2.7930   14.1790 O.3   502  NAJ502     -0.2703
     24  PN        92.4990   -3.1900   13.2060 P.3   502  NAJ502      0.2189
     25  O1N       91.2790   -2.5180   13.7530 O.3   502  NAJ502     -0.4371
     26  O2N       92.5000   -4.6990   13.0720 O.2   502  NAJ502     -0.5170
     27  O5D       92.8030   -2.4140   11.8030 O.3   502  NAJ502     -0.3112
     28  C5D       91.7710   -1.9760   10.8980 C.3   502  NAJ502      0.1813
     29  C4D       91.6320   -0.4440   10.6740 C.3   502  NAJ502      0.1799
     30  O4D       90.2580   -0.0880   10.4500 O.3   502  NAJ502     -0.3327
     31  C3D       92.0840    0.5320   11.7620 C.3   502  NAJ502      0.2158
     32  O3D       92.8120    1.5960   11.1270 O.3   502  NAJ502     -0.2175
     33  C2D       90.8320    1.0980   12.4230 C.3   502  NAJ502      0.2309
     34  O2D       90.8460    2.5360   12.4750 O.3   502  NAJ502     -0.2158
     35  C1D       89.6700    0.6250   11.5520 C.3   502  NAJ502      0.2263
     36  N1N       88.7280   -0.2210   12.3200 N.pl3 502  NAJ502     -0.2787
     37  C2N       88.0390    0.3040   13.2480 C.3   502  NAJ502      0.1244
     38  C3N       87.0300   -0.3290   13.8960 C.2   502  NAJ502      0.0544
     39  C7N       86.1070    0.3570   14.8120 C.2   502  NAJ502      0.2818
     40  O7N       85.0430   -0.2060   15.0950 O.2   502  NAJ502     -0.2670
     41  N7N       86.4210    1.5470   15.3060 N.am  502  NAJ502     -0.0839
     42  C4N       86.7170   -1.7870   13.6900 C.2   502  NAJ502      0.0033
     43  C5N       87.5860   -2.4770   12.6610 C.2   502  NAJ502      0.0157
     44  C6N       88.6100   -1.6180   11.9170 C.2   502  NAJ502      0.0633
@<TRIPOS>BOND
     1    30    29    1
     2    30    35    1
     3    29    28    1
     4    29    31    1
     5    28    27    1
     6    32    31    1
     7    35    36    1
     8    35    33    1
     9    31    33    1
    10    27    24    1
    11    44    36    1
    12    44    43    2
    13    36    37    1
    14    33    34    1
    15    43    42    1
    16     2     1    2
    17    26    24    2
    18    24    25    1
    19    24    23    1
    20    37    38    1
    21    42    38    2
    22     3     1    1
    23     1    23    1
    24     1     4    1
    25    38    39    1
    26    39    40    2
    27    39    41   am
    28     4     5    1
    29    20    19    1
    30    20    21    1
    31    19    17    2
    32     5     6    1
    33    21    22    2
    34    17    18    1
    35    17    16    1
    36     8     9    1
    37     8     6    1
    38     8    10    1
    39     6     7    1
    40    22    16    1
    41    22    13    1
    42     7    12    1
    43    16    15    2
    44    13    12    1
    45    13    14    1
    46    10    12    1
    47    10    11    1
    48    15    14    1
