@<TRIPOS>MOLECULE
4hlw_17W_A_1.pdb
 19 21 0 0 0
SMALL
GASTEIGER

@<TRIPOS>ATOM
      1  C19       20.0700   16.7180   31.7920 C.ar  1002  17W1002     0.0369
      2  C18       20.8680   16.2350   32.8180 C.ar  1002  17W1002     0.0031
      3  C17       20.8400   14.8750   33.1200 C.ar  1002  17W1002     0.0002
      4  C16       20.0240   13.9970   32.4070 C.ar  1002  17W1002     0.0031
      5  C15       19.2220   14.4850   31.3820 C.ar  1002  17W1002     0.0369
      6  C14       19.2500   15.8460   31.0750 C.ar  1002  17W1002     0.1386
      7  O13       18.4700   16.3530   30.0680 O.3   1002  17W1002    -0.4745
      8  C12       17.8260   15.5260   29.1040 C.3   1002  17W1002     0.2181
      9  C11       17.3420   16.4560   27.9980 C.3   1002  17W1002     0.1216
     10  S10       15.5860   16.4150   27.8900 S.3   1002  17W1002    -0.0143
     11  C8        14.8680   18.0200   27.9790 C.1   1002  17W1002     0.1678
     12  N9        15.2470   18.9460   28.8900 N.2   1002  17W1002    -0.3367
     13  C2        14.4600   20.0280   28.6410 C.2   1002  17W1002     0.1526
     14  N7        13.8760   18.3960   27.1540 N.2   1002  17W1002    -0.3367
     15  C3        13.5680   19.6630   27.5050 C.2   1002  17W1002     0.1526
     16  C4        12.6460   20.6030   27.0390 C.3   1002  17W1002     0.0880
     17  C5        12.5730   21.8600   27.6360 C.2   1002  17W1002    -0.0227
     18  C6        13.4100   22.2020   28.6990 C.2   1002  17W1002    -0.0227
     19  C1        14.3470   21.2990   29.2020 C.3   1002  17W1002     0.0880
@<TRIPOS>BOND
     1    16    15    1
     2    16    17    1
     3    14    15    2
     4    14    11    2
     5    15    13    1
     6    17    18    2
     7    10    11    1
     8    10     9    1
     9    11    12    2
    10     9     8    1
    11    13    12    2
    12    13    19    1
    13    18    19    1
    14     8     7    1
    15     7     6    1
    16     6     5   ar
    17     6     1   ar
    18     5     4   ar
    19     1     2   ar
    20     4     3   ar
    21     2     3   ar
