@<TRIPOS>MOLECULE
4hlw_TES_A_1.pdb
 21 24 0 0 0
SMALL
GASTEIGER

@<TRIPOS>ATOM
      1  C1        27.2210    4.8620    5.1540 C.3   1001  TES1001     0.0118
      2  C2        26.4510    6.0490    5.5940 C.3   1001  TES1001     0.0694
      3  C3        25.0590    5.9240    5.0920 C.2   1001  TES1001     0.1725
      4  O3        24.4570    6.9170    4.7240 O.2   1001  TES1001    -0.2914
      5  C4        24.3940    4.5810    5.0630 C.2   1001  TES1001     0.0289
      6  C5        25.1240    3.4400    5.3150 C.2   1001  TES1001    -0.0420
      7  C6        24.4400    2.0410    5.2860 C.3   1001  TES1001     0.0221
      8  C7        25.3610    1.1290    4.4810 C.3   1001  TES1001     0.0044
      9  C8        26.7570    1.1300    5.0660 C.3   1001  TES1001     0.0007
     10  C9        27.3370    2.5150    4.9940 C.3   1001  TES1001     0.0035
     11  C10       26.6590    3.5190    5.6430 C.3   1001  TES1001     0.0157
     12  C11       28.9530    2.3630    5.5990 C.3   1001  TES1001     0.0004
     13  C12       29.6860    1.1200    4.7310 C.3   1001  TES1001     0.0025
     14  C13       28.8560   -0.0240    4.8430 C.3   1001  TES1001     0.0282
     15  C14       27.5750    0.2370    4.3060 C.3   1001  TES1001     0.0025
     16  C15       26.9240   -1.1980    4.2040 C.3   1001  TES1001     0.0027
     17  C16       28.2230   -2.0880    3.7640 C.3   1001  TES1001     0.0329
     18  C17       29.3990   -1.1430    3.9730 C.3   1001  TES1001     0.1519
     19  O17       30.4560   -1.7970    4.5090 O.3   1001  TES1001    -0.2232
     20  C18       28.7770   -0.5110    6.2610 C.3   1001  TES1001     0.0025
     21  C19       26.8450    3.4670    7.1170 C.3   1001  TES1001     0.0041
@<TRIPOS>BOND
     1    17    18    1
     2    17    16    1
     3    18    19    1
     4    18    14    1
     5    16    15    1
     6    15    14    1
     7    15     9    1
     8     8     9    1
     9     8     7    1
    10     4     3    2
    11    13    14    1
    12    13    12    1
    13    14    20    1
    14    10     9    1
    15    10    12    1
    16    10    11    1
    17     5     3    1
    18     5     6    2
    19     3     2    1
    20     1     2    1
    21     1    11    1
    22     7     6    1
    23     6    11    1
    24    11    21    1
