@<TRIPOS>MOLECULE
4hmb_PZZ_A_1.pdb
 17 18 0 0 0
SMALL
GASTEIGER

@<TRIPOS>ATOM
      1  C2        22.3150    6.0240    9.6140 C.2   201  PZZ201      0.0955
      2  C3        21.2150    5.3640    9.0530 C.2   201  PZZ201      0.0141
      3  N1        23.1490    6.5040    8.6360 N.2   201  PZZ201     -0.2481
      4  C4        20.6800    5.0330    6.4840 C.2   201  PZZ201      0.0006
      5  C5        21.1600    5.2910    5.1880 C.2   201  PZZ201     -0.0042
      6  C6        22.3620    5.9820    4.9410 C.2   201  PZZ201     -0.0205
      7  C7        23.1880    6.4690    5.9710 C.3   201  PZZ201      0.0622
      8  C8        21.4280    5.4680    7.5800 C.2   201  PZZ201      0.0127
      9  C9        22.7080    6.2170    7.3870 C.2   201  PZZ201      0.0624
     10  C10       20.0450    4.7080    9.7710 C.3   201  PZZ201      0.1008
     11  N11       19.7420    5.2460   11.1320 N.3   201  PZZ201     -0.2665
     12  C12       19.8020    6.7310   11.1920 C.3   201  PZZ201      0.0899
     13  C13       18.3760    4.8370   11.5440 C.3   201  PZZ201      0.0899
     14  C14       24.4910    7.2340    5.6690 C.3   201  PZZ201      0.0130
     15  C15       25.3410    6.7540    4.4680 C.3   201  PZZ201      0.0363
     16  C16       25.7810    7.8630    3.4740 C.3   201  PZZ201      0.1821
     17  O17       26.9390    8.7050    3.8020 O.3   201  PZZ201     -0.2204
@<TRIPOS>BOND
     1    16    17    1
     2    16    15    1
     3    15    14    1
     4     6     5    2
     5     6     7    1
     6     5     4    1
     7    14     7    1
     8     7     9    1
     9     4     8    2
    10     9     8    1
    11     9     3    2
    12     8     2    1
    13     3     1    1
    14     2     1    2
    15     2    10    1
    16    10    11    1
    17    11    12    1
    18    11    13    1
