@<TRIPOS>MOLECULE
4hmg_SIA_A_1.pdb
 21 21 0 0 0
SMALL
GASTEIGER

@<TRIPOS>ATOM
      1  C1        -7.7980   71.9040   28.2170 C.2   329  SIA329      0.4179
      2  C2        -8.2330   73.2860   27.6630 C.3   329  SIA329      0.3155
      3  C3        -7.9180   74.3780   28.7010 C.3   329  SIA329      0.1056
      4  C4        -6.4370   74.7480   28.7150 C.3   329  SIA329      0.1798
      5  C5        -6.0380   75.2340   27.3150 C.3   329  SIA329      0.1554
      6  C6        -6.2370   74.0330   26.3710 C.3   329  SIA329      0.1734
      7  C7        -5.9050   74.2380   24.8840 C.3   329  SIA329      0.2135
      8  C8        -6.1300   72.9040   24.1200 C.3   329  SIA329      0.2173
      9  C9        -5.7870   73.0170   22.6270 C.3   329  SIA329      0.2175
     10  C10       -4.1070   76.5880   26.6440 C.2   329  SIA329      0.2420
     11  C11       -2.6820   77.0220   26.9380 C.3   329  SIA329      0.0964
     12  N5        -4.6620   75.6850   27.4430 N.am  329  SIA329     -0.2020
     13  O1A       -6.7610   71.3450   27.8790 O.co2 329  SIA329     -0.2401
     14  O1B       -8.5160   71.3520   29.0430 O.co2 329  SIA329     -0.2401
     15  O2        -9.6180   73.2080   27.4190 O.3   329  SIA329     -0.1830
     16  O4        -6.1260   75.7350   29.6920 O.3   329  SIA329     -0.2210
     17  O6        -7.6140   73.6120   26.4130 O.3   329  SIA329     -0.3220
     18  O7        -6.7480   75.2510   24.3730 O.3   329  SIA329     -0.2176
     19  O8        -5.3470   71.8540   24.6570 O.3   329  SIA329     -0.2175
     20  O9        -5.6130   71.7040   22.1300 O.3   329  SIA329     -0.2175
     21  O10       -4.7190   77.0280   25.6740 O.2   329  SIA329     -0.2733
@<TRIPOS>BOND
     1    20     9    1
     2     9     8    1
     3     8    19    1
     4     8     7    1
     5    18     7    1
     6     7     6    1
     7    21    10    2
     8     6    17    1
     9     6     5    1
    10    17     2    1
    11    10    11    1
    12    10    12   am
    13     5    12    1
    14     5     4    1
    15    15     2    1
    16     2     1    1
    17     2     3    1
    18    13     1   ar
    19     1    14   ar
    20     3     4    1
    21     4    16    1
