@<TRIPOS>MOLECULE
4hmh_F94_A_1.pdb
 19 21 0 0 0
SMALL
GASTEIGER

@<TRIPOS>ATOM
      1  CAK        1.4690  -11.1140   -9.4960 C.ar  1204  F941204     0.0451
      2  CAL        1.4570  -10.9010   -8.0950 C.ar  1204  F941204     0.1958
      3  OAS        0.3700  -10.3460   -7.4910 O.3   1204  F941204    -0.2866
      4  CAM        2.5530  -11.2260   -7.3060 C.ar  1204  F941204     0.0420
      5  CAI        3.6620  -11.7690   -7.9260 C.ar  1204  F941204     0.0034
      6  CAJ        3.6920  -11.9820   -9.3070 C.ar  1204  F941204     0.0032
      7  CAH        2.5950  -11.6580  -10.1080 C.ar  1204  F941204     0.0378
      8  CAF        2.6810  -11.8700  -11.4910 C.ar  1204  F941204     0.1485
      9  OAA        3.9380  -12.0840  -11.9380 O.2   1204  F941204    -0.4532
     10  CAB        4.2240  -12.2130  -13.2450 C.ar  1204  F941204     0.1515
     11  CAN        5.5650  -12.3090  -13.6290 C.ar  1204  F941204     0.0796
     12  CAO        5.8820  -12.4190  -14.9760 C.ar  1204  F941204     0.1988
     13  OAR        7.1800  -12.4750  -15.3690 O.3   1204  F941204    -0.2865
     14  CAP        4.8470  -12.4320  -15.9150 C.ar  1204  F941204     0.0423
     15  CAQ        3.5200  -12.3520  -15.5080 C.ar  1204  F941204     0.0095
     16  CAC        3.1860  -12.2620  -14.1560 C.ar  1204  F941204     0.0737
     17  CAD        1.8580  -12.1610  -13.7290 C.ar  1204  F941204     0.2016
     18  OAG        0.8940  -12.2240  -14.5080 O.2   1204  F941204    -0.2864
     19  CAE        1.6200  -11.9370  -12.3830 C.ar  1204  F941204     0.0796
@<TRIPOS>BOND
     1    14    15   ar
     2    14    12   ar
     3    15    16   ar
     4    13    12    1
     5    12    11   ar
     6    18    17    2
     7    16    17   ar
     8    16    10   ar
     9    17    19   ar
    10    11    10   ar
    11    10     9   ar
    12    19     8   ar
    13     9     8   ar
    14     8     7    1
    15     7     1   ar
    16     7     6   ar
    17     1     2   ar
    18     6     5   ar
    19     2     3    1
    20     2     4   ar
    21     5     4   ar
