@<TRIPOS>MOLECULE
4hmi_THP_A_1.pdb
 25 26 0 0 0
SMALL
GASTEIGER

@<TRIPOS>ATOM
      1  P2        17.9600   11.2260    4.6470 P.3   202  THP202      0.5327
      2  O4P       17.9890    9.7610    5.0300 O.2   202  THP202     -0.2224
      3  O5P       16.7270   12.0250    5.2190 O.3   202  THP202     -0.1145
      4  O6P       19.3230   11.9190    5.0930 O.3   202  THP202     -0.1145
      5  P1        21.1990   14.6320    0.7330 P.3   202  THP202      0.5326
      6  O1P       22.1970   15.2220   -0.1930 O.2   202  THP202     -0.2224
      7  O2P       21.9280   13.5010    1.6100 O.3   202  THP202     -0.1145
      8  O3P       20.6040   15.7110    1.7650 O.3   202  THP202     -0.1145
      9  O5'       17.9080   11.2050    3.0430 O.3   202  THP202     -0.2675
     10  C5'       17.9340   12.5260    2.4750 C.3   202  THP202      0.1857
     11  C4'       18.8880   12.4820    1.2720 C.3   202  THP202      0.1748
     12  O4'       18.5360   11.3230    0.5490 O.3   202  THP202     -0.3340
     13  C3'       18.8580   13.6910    0.2640 C.3   202  THP202      0.1600
     14  O3'       20.1680   14.0030   -0.3440 O.3   202  THP202     -0.2700
     15  C2'       17.8940   13.1150   -0.8000 C.3   202  THP202      0.0847
     16  C1'       18.2320   11.5840   -0.8300 C.3   202  THP202      0.2089
     17  N1        16.9520   10.9400   -1.2150 N.am  202  THP202     -0.1794
     18  C2        16.6200   10.7470   -2.5520 C.1   202  THP202      0.2844
     19  O2        17.4770   10.9730   -3.4280 O.2   202  THP202     -0.1918
     20  N3        15.4480   10.1810   -2.9820 N.2   202  THP202     -0.2455
     21  C4        14.4710    9.9250   -2.0640 C.1   202  THP202      0.2134
     22  O4        13.4250    9.5000   -2.5120 O.2   202  THP202     -0.2088
     23  C5        14.7200   10.1570   -0.6870 C.2   202  THP202      0.0891
     24  C5M       13.6600    9.8680    0.3890 C.3   202  THP202      0.0462
     25  C6        15.9560   10.6560   -0.3110 C.2   202  THP202      0.0877
@<TRIPOS>BOND
     1    19    18    2
     2    20    18    2
     3    20    21    2
     4    18    17   am
     5    22    21    2
     6    21    23    1
     7    17    16    1
     8    17    25    1
     9    16    15    1
    10    16    12    1
    11    15    13    1
    12    23    25    2
    13    23    24    1
    14    14    13    1
    15    14     5    1
    16     6     5    2
    17    13    11    1
    18    12    11    1
    19     5     7    1
    20     5     8    1
    21    11    10    1
    22    10     9    1
    23     9     1    1
    24     1     2    2
    25     1     4    1
    26     1     3    1
