@<TRIPOS>MOLECULE
4hmj_THP_A_1.pdb
 25 26 0 0 0
SMALL
GASTEIGER

@<TRIPOS>ATOM
      1  P2        17.8870   10.9040    4.8690 P.3   202  THP202      0.5327
      2  O4P       17.8560    9.4610    5.0940 O.2   202  THP202     -0.2224
      3  O5P       16.6360   11.6240    5.3710 O.3   202  THP202     -0.1145
      4  O6P       19.1870   11.6090    5.3760 O.3   202  THP202     -0.1145
      5  P1        21.1600   14.3920    1.0780 P.3   202  THP202      0.5326
      6  O1P       22.1590   15.0260    0.1510 O.2   202  THP202     -0.2224
      7  O2P       21.8140   13.2290    1.8600 O.3   202  THP202     -0.1145
      8  O3P       20.4690   15.3330    2.0250 O.3   202  THP202     -0.1145
      9  O5'       17.8890   10.9610    3.3210 O.3   202  THP202     -0.2675
     10  C5'       17.8490   12.2420    2.6020 C.3   202  THP202      0.1857
     11  C4'       18.8020   12.1520    1.4380 C.3   202  THP202      0.1748
     12  O4'       18.3880   11.0400    0.5810 O.3   202  THP202     -0.3340
     13  C3'       18.7110   13.4020    0.6030 C.3   202  THP202      0.1600
     14  O3'       20.0490   13.7460    0.0810 O.3   202  THP202     -0.2700
     15  C2'       17.8870   13.0200   -0.6050 C.3   202  THP202      0.0847
     16  C1'       18.0830   11.4720   -0.7370 C.3   202  THP202      0.2089
     17  N1        16.7970   10.8130   -1.1360 N.am  202  THP202     -0.1794
     18  C2        16.5580   10.6140   -2.4300 C.1   202  THP202      0.2844
     19  O2        17.4450   10.9340   -3.2910 O.2   202  THP202     -0.1918
     20  N3        15.3940   10.0960   -2.8720 N.2   202  THP202     -0.2455
     21  C4        14.3670    9.7900   -2.0050 C.1   202  THP202      0.2134
     22  O4        13.3100    9.4310   -2.4340 O.2   202  THP202     -0.2088
     23  C5        14.5980   10.0450   -0.6410 C.2   202  THP202      0.0891
     24  C5M       13.6170    9.6740    0.4850 C.3   202  THP202      0.0462
     25  C6        15.8180   10.4930   -0.2400 C.2   202  THP202      0.0877
@<TRIPOS>BOND
     1    19    18    2
     2    20    18    2
     3    20    21    2
     4    22    21    2
     5    18    17   am
     6    21    23    1
     7    17    16    1
     8    17    25    1
     9    16    15    1
    10    16    12    1
    11    23    25    2
    12    23    24    1
    13    15    13    1
    14    14    13    1
    15    14     5    1
    16     6     5    2
    17    12    11    1
    18    13    11    1
    19     5     7    1
    20     5     8    1
    21    11    10    1
    22    10     9    1
    23     9     1    1
    24     1     2    2
    25     1     3    1
    26     1     4    1
