@<TRIPOS>MOLECULE
4hmy_GTP_C_1.pdb
 32 34 0 0 0
SMALL
GASTEIGER

@<TRIPOS>ATOM
      1  PG      -121.4480   26.1490   17.4150 P.3   1001  GTP1001     0.5373
      2  O1G     -121.5840   25.2290   16.2440 O.2   1001  GTP1001    -0.2221
      3  O2G     -120.5860   27.3610   17.0200 O.3   1001  GTP1001    -0.1143
      4  O3G     -120.8480   25.4140   18.6160 O.3   1001  GTP1001    -0.1143
      5  O3B     -122.9340   26.6610   17.8060 O.3   1001  GTP1001    -0.2258
      6  PB      -123.3280   27.6920   19.0060 P.3   1001  GTP1001     0.2277
      7  O1B     -124.7480   27.5550   19.3760 O.2   1001  GTP1001    -0.5168
      8  O2B     -122.3870   27.5800   20.1960 O.3   1001  GTP1001    -0.4368
      9  O3A     -123.1060   29.1300   18.2890 O.3   1001  GTP1001    -0.2700
     10  PA      -122.1030   30.3500   18.6850 P.3   1001  GTP1001     0.2189
     11  O1A     -122.4850   30.9490   19.9670 O.3   1001  GTP1001    -0.4371
     12  O2A     -120.6500   29.9330   18.5500 O.2   1001  GTP1001    -0.5170
     13  O5'     -122.4320   31.3970   17.5200 O.3   1001  GTP1001    -0.3112
     14  C5'     -122.1580   31.0780   16.1570 C.3   1001  GTP1001     0.1813
     15  C4'     -122.3990   32.2940   15.2500 C.3   1001  GTP1001     0.1799
     16  O4'     -123.7440   32.7360   15.3390 O.3   1001  GTP1001    -0.3326
     17  C3'     -121.5060   33.4800   15.5780 C.3   1001  GTP1001     0.2158
     18  O3'     -120.9160   33.9630   14.3710 O.3   1001  GTP1001    -0.2175
     19  C2'     -122.4420   34.4610   16.2400 C.3   1001  GTP1001     0.2310
     20  O2'     -122.1140   35.8330   16.0510 O.3   1001  GTP1001    -0.2158
     21  C1'     -123.7980   34.0870   15.6610 C.3   1001  GTP1001     0.2293
     22  N9      -124.9170   34.3130   16.5960 N.pl3 1001  GTP1001    -0.2354
     23  C8      -125.1920   33.7190   17.8150 C.3   1001  GTP1001     0.2246
     24  N7      -126.3370   34.2640   18.3000 N.2   1001  GTP1001    -0.2322
     25  C5      -126.7970   35.1910   17.4150 C.2   1001  GTP1001     0.2182
     26  C6      -127.9140   36.0650   17.3730 C.1   1001  GTP1001     0.2372
     27  O6      -128.7680   36.1210   18.2630 O.2   1001  GTP1001    -0.2069
     28  N1      -128.0610   36.9050   16.2630 N.2   1001  GTP1001    -0.2485
     29  C2      -127.1530   36.9080   15.2150 C.1   1001  GTP1001     0.2531
     30  N2      -127.3520   37.7280   14.1910 N.pl3 1001  GTP1001    -0.0226
     31  N3      -126.0630   36.0580   15.2540 N.2   1001  GTP1001    -0.3074
     32  C4      -125.8950   35.2260   16.3360 C.2   1001  GTP1001     0.2300
@<TRIPOS>BOND
     1    30    29    1
     2    18    17    1
     3    29    31    2
     4    29    28    2
     5    15    16    1
     6    15    17    1
     7    15    14    1
     8    31    32    2
     9    16    21    1
    10    17    19    1
    11    21    19    1
    12    21    22    1
    13    20    19    1
    14    14    13    1
    15     2     1    2
    16    28    26    2
    17    32    22    1
    18    32    25    1
    19    22    23    1
    20     3     1    1
    21    26    25    1
    22    26    27    2
    23     1     5    1
    24     1     4    1
    25    25    24    2
    26    13    10    1
    27     5     6    1
    28    23    24    1
    29     9    10    1
    30     9     6    1
    31    12    10    2
    32    10    11    1
    33     6     7    2
    34     6     8    1
