@<TRIPOS>MOLECULE
4hn2_ANP_A_1.pdb
 31 33 0 0 0
SMALL
GASTEIGER

@<TRIPOS>ATOM
      1  PG         2.1890   13.5190    9.4010 P.3   401  ANP401      0.4884
      2  O1G        3.3690   13.9610    8.5760 O.2   401  ANP401     -0.2331
      3  O2G        1.9220   14.4030   10.5980 O.3   401  ANP401     -0.1240
      4  O3G        0.9390   13.2410    8.5930 O.3   401  ANP401     -0.1240
      5  PB         1.7920   10.5210   10.0630 P.3   401  ANP401      0.4669
      6  O1B        1.0130   10.2210   11.3170 O.3   401  ANP401     -0.1253
      7  O2B        1.0220   10.4490    8.7610 O.2   401  ANP401     -0.2351
      8  N3B        2.7030   12.0080   10.1370 N.3   401  ANP401     -0.0163
      9  PA         4.0370    9.0260    9.0570 P.3   401  ANP401      0.2220
     10  O1A        3.7710    7.8870    8.0940 O.2   401  ANP401     -0.5170
     11  O2A        4.5850   10.3270    8.5150 O.3   401  ANP401     -0.4370
     12  O3A        2.7980    9.2550   10.0390 O.3   401  ANP401     -0.2360
     13  O5'        5.1080    8.4910   10.1370 O.3   401  ANP401     -0.3111
     14  C5'        5.5870    9.3790   11.1430 C.3   401  ANP401      0.1813
     15  C4'        7.1040    9.3950   11.1390 C.3   401  ANP401      0.1821
     16  O4'        7.5830    8.0800   11.4120 O.3   401  ANP401     -0.3135
     17  C3'        7.7220    9.7840    9.8090 C.3   401  ANP401      0.2184
     18  O3'        7.9190   11.1890    9.7520 O.3   401  ANP401     -0.2174
     19  C2'        9.0430    9.0450    9.8100 C.3   401  ANP401      0.2570
     20  O2'       10.0290    9.7680   10.5550 O.3   401  ANP401     -0.2130
     21  C1'        8.7470    7.8070   10.6250 C.3   401  ANP401      0.3186
     22  N9         8.4830    6.6600    9.7260 N.pl3 401  ANP401     -0.1439
     23  C8         7.2970    6.3110    9.1770 C.3   401  ANP401      0.3377
     24  N7         7.4330    5.2010    8.3950 N.2   401  ANP401     -0.2095
     25  C5         8.7260    4.8430    8.4550 C.2   401  ANP401      0.2526
     26  C6         9.5390    3.7610    7.8750 C.2   401  ANP401      0.4393
     27  N6         8.9430    2.8620    7.0700 N.pl3 401  ANP401      0.2180
     28  N1        10.8630    3.7220    8.1750 N.2   401  ANP401      0.0021
     29  C2        11.4370    4.6460    8.9720 C.3   401  ANP401      0.5254
     30  N3        10.7520    5.6630    9.5460 N.2   401  ANP401     -0.0055
     31  C4         9.4190    5.8030    9.3230 C.2   401  ANP401      0.3518
@<TRIPOS>BOND
     1    27    26    1
     2    26    28    2
     3    26    25    1
     4    10     9    2
     5    28    29    1
     6    24    25    2
     7    24    23    1
     8    25    31    1
     9    11     9    1
    10     2     1    2
    11     4     1    1
    12     7     5    2
    13    29    30    1
    14     9    12    1
    15     9    13    1
    16    23    22    1
    17    31    30    2
    18    31    22    1
    19     1     8    1
    20     1     3    1
    21    22    21    1
    22    18    17    1
    23    17    19    1
    24    17    15    1
    25    19    20    1
    26    19    21    1
    27    12     5    1
    28     5     8    1
    29     5     6    1
    30    13    14    1
    31    21    16    1
    32    15    14    1
    33    15    16    1
