@<TRIPOS>MOLECULE
4hn2_0EJ_A_1.pdb
 39 39 0 0 0
SMALL
GASTEIGER

@<TRIPOS>ATOM
      1  C1         0.9250   19.5720   10.0360 C.3   402  0EJ402      0.1875
      2  C2        -0.5540   19.8700    9.7830 C.3   402  0EJ402      0.1864
      3  C3        -1.2950   19.7920   11.1310 C.3   402  0EJ402      0.1875
      4  C4        -0.7690   20.8450   12.1000 C.3   402  0EJ402      0.1986
      5  C5         0.7410   20.6930   12.3200 C.3   402  0EJ402      0.2287
      6  C6         1.5300   20.6170   10.9890 C.3   402  0EJ402      0.1986
      7  O11        1.6620   19.5280    8.7930 O.3   402  0EJ402     -0.2675
      8  O12       -0.7080   21.1780    9.1850 O.3   402  0EJ402     -0.2675
      9  O13       -2.6910   20.0100   10.9360 O.3   402  0EJ402     -0.2675
     10  O14       -1.4420   20.6730   13.3450 O.3   402  0EJ402     -0.2663
     11  O15        1.2110   21.8060   13.1050 O.3   402  0EJ402     -0.4466
     12  O16        2.8620   20.2170   11.2810 O.3   402  0EJ402     -0.2663
     13  O21        2.2700   16.9800    9.1450 O.3   402  0EJ402     -0.1145
     14  O22       -2.8100   21.1440    7.7190 O.3   402  0EJ402     -0.1145
     15  O23       -3.5790   18.4770   12.8060 O.3   402  0EJ402     -0.1145
     16  O24       -3.8370   21.5820   13.6810 O.3   402  0EJ402     -0.1145
     17  O25        1.7650   20.3060   14.7910 O.2   402  0EJ402     -0.2496
     18  O26        5.1400   20.8470   12.2040 O.3   402  0EJ402     -0.1145
     19  O31        0.4310   17.6480    7.4640 O.3   402  0EJ402     -0.1145
     20  O32       -0.6760   20.0450    6.8090 O.2   402  0EJ402     -0.2224
     21  O33       -3.2400   17.5390   10.4310 O.2   402  0EJ402     -0.2224
     22  O34       -1.9140   23.2450   13.2510 O.2   402  0EJ402     -0.2224
     23  O36        3.5880   22.7110   11.2600 O.3   402  0EJ402     -0.1145
     24  O41        2.9210   18.2110    6.9560 O.2   402  0EJ402     -0.2224
     25  O42       -0.7150   22.5820    7.0490 O.3   402  0EJ402     -0.1145
     26  O43       -5.1530   19.2830   10.8950 O.3   402  0EJ402     -0.1145
     27  O44       -2.0090   21.9760   15.4920 O.3   402  0EJ402     -0.1145
     28  O45        3.8300   24.5500   15.7470 O.3   402  0EJ402     -0.3567
     29  O46        4.7090   20.9930    9.6590 O.2   402  0EJ402     -0.2224
     30  O55        4.4020   22.5490   14.2130 O.3   402  0EJ402     -0.3567
     31  O65        2.8190   24.3640   13.3480 O.2   402  0EJ402     -0.4595
     32  PA1        1.8920   18.0950    8.0240 P.3   402  0EJ402      0.5327
     33  PA2       -1.1940   21.3250    7.6520 P.3   402  0EJ402      0.5327
     34  PA3       -3.7700   18.8390   11.2440 P.3   402  0EJ402      0.5327
     35  PA4       -2.2890   21.8820   14.0400 P.3   402  0EJ402      0.5327
     36  CA5        1.6060   21.4580   14.3770 C.2   402  0EJ402      0.3245
     37  PA6        4.1170   21.1900   11.0020 P.3   402  0EJ402      0.5327
     38  CB5        1.8840   22.6460   15.2940 C.3   402  0EJ402      0.1681
     39  PB5        3.2290   23.6120   14.5590 P.3   402  0EJ402      0.1284
@<TRIPOS>BOND
     1    20    33    2
     2    24    32    2
     3    25    33    1
     4    19    32    1
     5    33    14    1
     6    33     8    1
     7    32     7    1
     8    32    13    1
     9     7     1    1
    10     8     2    1
    11    29    37    2
    12     2     1    1
    13     2     3    1
    14     1     6    1
    15    21    34    2
    16    26    34    1
    17     9     3    1
    18     9    34    1
    19     6    12    1
    20     6     5    1
    21    37    23    1
    22    37    12    1
    23    37    18    1
    24     3     4    1
    25    34    15    1
    26     4     5    1
    27     4    10    1
    28     5    11    1
    29    11    36    1
    30    22    35    2
    31    10    35    1
    32    31    39    2
    33    16    35    1
    34    35    27    1
    35    30    39    1
    36    36    17    2
    37    36    38    1
    38    39    38    1
    39    39    28    1
