@<TRIPOS>MOLECULE
4hnb_FNR_B_1.pdb
 32 32 0 0 0
SMALL
GASTEIGER

@<TRIPOS>ATOM
      1  C9A       45.1730  -27.7310   -1.4380 C.3   201  FNR201      0.1145
      2  C9A       45.2130  -27.7760   -1.5690 C.2   201  FNR201      0.0187
      3  N10       44.0910  -27.5300   -0.5910 N.pl3 201  FNR201     -0.2793
      4  CAA       43.7780  -26.2460   -0.1760 C.2   201  FNR201      0.2155
      5  N1        42.6950  -26.0480    0.6570 N.2   201  FNR201     -0.2940
      6  C2        42.3700  -24.7850    1.0950 C.1   201  FNR201      0.3663
      7  O2        41.3880  -24.6510    1.8320 O.2   201  FNR201     -0.1745
      8  N3        43.1210  -23.6890    0.7060 N.2   201  FNR201     -0.2346
      9  C4        44.2120  -23.8660   -0.1380 C.1   201  FNR201      0.2239
     10  O4        44.8850  -22.8970   -0.5040 O.2   201  FNR201     -0.2109
     11  C4A       44.5370  -25.1500   -0.5900 C.3   201  FNR201      0.2881
     12  N5        45.6290  -25.3530   -1.4150 N.2   201  FNR201     -0.2467
     13  C5A       45.9450  -26.6350   -1.8370 C.2   201  FNR201      0.0771
     14  C6        47.0410  -26.8220   -2.6640 C.2   201  FNR201      0.0102
     15  C7        47.3830  -28.0930   -3.1180 C.2   201  FNR201     -0.0424
     16  C7M       48.5700  -28.2710   -4.0310 C.3   201  FNR201      0.0264
     17  C8        46.6210  -29.1930   -2.7200 C.3   201  FNR201      0.0221
     18  C8M       46.9980  -30.5620   -3.2210 C.3   201  FNR201      0.0047
     19  C9        45.5130  -29.0110   -1.8760 C.2   201  FNR201      0.0016
     20  C1'       43.1730  -28.6470   -0.1640 C.3   201  FNR201      0.1285
     21  C2'       43.4810  -29.5630    0.9990 C.3   201  FNR201      0.2044
     22  O2'       44.8420  -29.9320    0.9700 O.3   201  FNR201     -0.2185
     23  C3'       42.5980  -30.8030    0.8230 C.3   201  FNR201      0.2164
     24  O3'       43.1160  -31.5670   -0.2500 O.3   201  FNR201     -0.2175
     25  C4'       41.1130  -30.4720    0.5770 C.3   201  FNR201      0.2147
     26  O4'       40.5370  -29.7970    1.6840 O.3   201  FNR201     -0.2176
     27  C5'       40.2190  -31.6800    0.2690 C.3   201  FNR201      0.1892
     28  O5'       40.5110  -32.8100    1.0670 O.3   201  FNR201     -0.2674
     29  P         39.7930  -33.0650    2.4980 P.3   201  FNR201      0.5327
     30  O1P       40.2010  -31.9570    3.4340 O.3   201  FNR201     -0.1145
     31  O2P       38.2990  -33.0110    2.3370 O.2   201  FNR201     -0.2224
     32  O3P       40.2620  -34.4000    3.0270 O.3   201  FNR201     -0.1145
@<TRIPOS>BOND
     1    16    15    1
     2    18    17    1
     3    15    17    1
     4    15    14    2
     5    14    13    1
     6    19     2    2
     7    13     2    1
     8    13    12    2
     9     1     3    1
    10    12    11    1
    11     3     4    1
    12     3    20    1
    13    11     4    1
    14    11     9    1
    15    10     9    2
    16    24    23    1
    17     4     5    2
    18    20    21    1
    19     9     8    2
    20    27    25    1
    21    27    28    1
    22    25    23    1
    23    25    26    1
    24     5     6    2
    25     8     6    2
    26    23    21    1
    27    22    21    1
    28    28    29    1
    29     6     7    2
    30    31    29    2
    31    29    32    1
    32    29    30    1
