@<TRIPOS>MOLECULE
4hnb_FMN_A_1.pdb
 31 33 0 0 0
SMALL
GASTEIGER

@<TRIPOS>ATOM
      1  N1        52.6540   -1.4420  -35.1240 N.2   201  FMN201     -0.2887
      2  C2        51.8350   -2.4540  -35.6100 C.1   201  FMN201      0.3669
      3  O2        51.0190   -2.2290  -36.5080 O.2   201  FMN201     -0.1744
      4  N3        51.9020   -3.7280  -35.0830 N.2   201  FMN201     -0.2300
      5  C4        52.8070   -3.9850  -34.0790 C.1   201  FMN201      0.2513
      6  O4        52.8920   -5.1070  -33.6000 O.2   201  FMN201     -0.2057
      7  C4A       53.6350   -2.9830  -33.5830 C.2   201  FMN201      0.2706
      8  N5        54.5270   -3.2820  -32.5670 N.2   201  FMN201     -0.3841
      9  C5A       55.3630   -2.3010  -32.0700 C.2   201  FMN201      0.1452
     10  C6        56.2660   -2.6270  -31.0650 C.2   201  FMN201      0.0252
     11  C7        57.1040   -1.6540  -30.5530 C.2   201  FMN201     -0.0375
     12  C7M       58.0610   -2.0130  -29.4640 C.3   201  FMN201      0.0268
     13  C8        57.0430   -0.3580  -31.0590 C.3   201  FMN201      0.0417
     14  C8M       57.9460    0.6950  -30.5040 C.3   201  FMN201      0.0091
     15  C9        56.1400   -0.0260  -32.0650 C.2   201  FMN201     -0.0049
     16  C9A       55.2960   -1.0000  -32.5870 C.2   201  FMN201      0.0795
     17  N10       54.4050   -0.7080  -33.6180 N.pl3 201  FMN201     -0.2545
     18  C10       53.5630   -1.6960  -34.1090 C.2   201  FMN201      0.2449
     19  C1'       54.2670    0.6830  -34.1600 C.3   201  FMN201      0.1336
     20  C2'       55.2780    1.2160  -35.1620 C.3   201  FMN201      0.2048
     21  O2'       56.5790    0.7240  -34.8840 O.3   201  FMN201     -0.2185
     22  C3'       55.2250    2.7420  -35.0390 C.3   201  FMN201      0.2165
     23  O3'       55.7910    3.1240  -33.8110 O.3   201  FMN201     -0.2175
     24  C4'       53.8010    3.2940  -35.0730 C.3   201  FMN201      0.2147
     25  O4'       53.1540    2.7880  -36.2220 O.3   201  FMN201     -0.2176
     26  C5'       53.7750    4.8270  -35.1050 C.3   201  FMN201      0.1892
     27  O5'       54.7540    5.2510  -36.0260 O.3   201  FMN201     -0.2674
     28  P         54.4230    6.0220  -37.4080 P.3   201  FMN201      0.5327
     29  O1P       55.6590    6.8470  -37.6430 O.3   201  FMN201     -0.1145
     30  O2P       54.1910    5.0410  -38.5300 O.2   201  FMN201     -0.2224
     31  O3P       53.1700    6.8640  -37.3350 O.3   201  FMN201     -0.1145
@<TRIPOS>BOND
     1    30    28    2
     2    29    28    1
     3    28    31    1
     4    28    27    1
     5     3     2    2
     6    25    24    1
     7    27    26    1
     8     2     1    2
     9     2     4    2
    10    20    22    1
    11    20    21    1
    12    20    19    1
    13     1    18    2
    14    26    24    1
    15     4     5    2
    16    24    22    1
    17    22    23    1
    18    19    17    1
    19    18    17    1
    20    18     7    1
    21     5     6    2
    22     5     7    1
    23    17    16    1
    24     7     8    2
    25    16     9    1
    26    16    15    2
    27     8     9    2
    28     9    10    1
    29    15    13    1
    30    10    11    2
    31    13    11    1
    32    13    14    1
    33    11    12    1
