@<TRIPOS>MOLECULE
4hnf_16W_A_1.pdb
 25 28 0 0 0
SMALL
GASTEIGER

@<TRIPOS>ATOM
      1  C1        23.6650   -8.0350   24.7180 C.ar  301  16W301      0.0483
      2  C2        24.8510   -7.5520   24.0560 C.ar  301  16W301      0.1400
      3  C3        25.8740   -8.4980   23.5850 C.ar  301  16W301      0.0370
      4  C7        26.7530   -1.3490   21.7220 C.3   301  16W301      0.5248
      5  C8        25.5780   -1.9430   23.7210 C.2   301  16W301      0.3403
      6  C9        25.1320   -3.2210   23.1900 C.3   301  16W301      0.2634
      7  C10       25.5540   -3.4640   21.8660 C.2   301  16W301      0.4079
      8  C11       24.3800   -3.8970   24.2120 C.2   301  16W301      0.1439
      9  C12       23.8500   -5.2820   24.1650 C.3   301  16W301      0.2512
     10  C13       24.1390    0.5900   27.7680 C.3   301  16W301      0.1464
     11  C14       26.4890   -0.0570   27.9570 C.3   301  16W301      0.1464
     12  C15       26.2930   -1.1910   26.9510 C.3   301  16W301      0.0811
     13  C16       25.2110   -0.8610   25.9190 C.3   301  16W301      0.1924
     14  N2        26.3700   -1.0190   23.0150 N.2   301  16W301     -0.0088
     15  N4        26.3420   -2.5500   21.1780 N.2   301  16W301     -0.0027
     16  N5        25.0490   -1.9670   24.9620 N.pl3 301  16W301     -0.0839
     17  N1        24.3710   -3.0620   25.2490 N.2   301  16W301     -0.0920
     18  N3        25.1770   -4.5500   21.1680 N.pl3 301  16W301      0.2118
     19  O2        25.0090   -6.1730   23.8840 O.3   301  16W301     -0.4692
     20  O1        25.2100    0.1700   28.6060 O.3   301  16W301     -0.3535
     21  C17       23.9100   -0.4670   26.6360 C.3   301  16W301      0.0811
     22  C4        25.7380   -9.9120   23.7640 C.ar  301  16W301      0.0040
     23  C5        24.5480  -10.3710   24.4330 C.ar  301  16W301      0.0116
     24  C6        23.5490   -9.4310   24.8880 C.ar  301  16W301      0.0607
     25 CL1        22.1420   -9.9180   25.6700 Cl    301  16W301     -0.0821
@<TRIPOS>BOND
     1    18     7    1
     2    15     4    1
     3    15     7    2
     4     4    14    1
     5     7     6    1
     6    14     5    2
     7     6     5    1
     8     6     8    1
     9     3    22   ar
    10     3     2   ar
    11     5    16    1
    12    22    23   ar
    13    19     2    1
    14    19     9    1
    15     2     1   ar
    16     9     8    1
    17     8    17    2
    18    23    24   ar
    19     1    24   ar
    20    24    25    1
    21    16    17    1
    22    16    13    1
    23    13    21    1
    24    13    12    1
    25    21    10    1
    26    12    11    1
    27    10    20    1
    28    11    20    1
