@<TRIPOS>MOLECULE
4hnh_NAP_A_1.pdb
 48 52 0 0 0
SMALL
GASTEIGER

@<TRIPOS>ATOM
      1  PA       -26.9750   -2.4720    2.0700 P.3   301  NAP301      0.2189
      2  O1A      -27.4680   -3.8600    2.3070 O.2   301  NAP301     -0.5170
      3  O2A      -27.5860   -1.6300    3.1490 O.3   301  NAP301     -0.4371
      4  O5B      -25.4110   -2.4150    2.1820 O.3   301  NAP301     -0.3112
      5  C5B      -24.7650   -1.2320    2.5570 C.3   301  NAP301      0.1813
      6  C4B      -23.6580   -1.5600    3.4790 C.3   301  NAP301      0.1820
      7  O4B      -22.8330   -0.4080    3.6830 O.3   301  NAP301     -0.3136
      8  C3B      -24.1780   -2.0140    4.8180 C.3   301  NAP301      0.2157
      9  O3B      -23.8080   -3.3190    5.0660 O.3   301  NAP301     -0.2175
     10  C2B      -23.5560   -1.0480    5.7710 C.3   301  NAP301      0.2314
     11  O2B      -23.0600   -1.6440    6.9550 O.3   301  NAP301     -0.2630
     12  C1B      -22.3970   -0.5020    4.9870 C.3   301  NAP301      0.3158
     13  N9A      -22.0440    0.7780    5.5320 N.pl3 301  NAP301     -0.1439
     14  C8A      -22.6810    2.0090    5.3080 C.3   301  NAP301      0.3377
     15  N7A      -22.0690    2.9450    6.0350 N.2   301  NAP301     -0.2095
     16  C5A      -21.0120    2.3550    6.7640 C.2   301  NAP301      0.2526
     17  C6A      -20.0280    2.8400    7.6870 C.2   301  NAP301      0.4393
     18  N6A      -19.9900    4.1870    8.0450 N.pl3 301  NAP301      0.2180
     19  N1A      -19.1580    1.9650    8.2120 N.2   301  NAP301      0.0021
     20  C2A      -19.1750    0.6800    7.8750 C.3   301  NAP301      0.5254
     21  N3A      -20.0760    0.1730    7.0130 N.2   301  NAP301     -0.0055
     22  C4A      -20.9890    0.9680    6.4540 C.2   301  NAP301      0.3518
     23  O3       -27.4240   -1.8880    0.6680 O.3   301  NAP301     -0.2703
     24  PN       -27.4310   -2.6550   -0.7390 P.3   301  NAP301      0.2189
     25  O1N      -28.7020   -3.3960   -0.9950 O.2   301  NAP301     -0.5170
     26  O2N      -26.3720   -3.6950   -0.9030 O.3   301  NAP301     -0.4371
     27  O5D      -27.3070   -1.4970   -1.8140 O.3   301  NAP301     -0.3112
     28  C5D      -26.0800   -0.7910   -1.9290 C.3   301  NAP301      0.1813
     29  C4D      -26.2740    0.7210   -1.6960 C.3   301  NAP301      0.1799
     30  O4D      -27.1330    1.3030   -2.6290 O.3   301  NAP301     -0.3327
     31  C3D      -26.7940    1.1050   -0.3300 C.3   301  NAP301      0.2158
     32  O3D      -26.1960    2.2760    0.0390 O.3   301  NAP301     -0.2175
     33  C2D      -28.2510    1.2830   -0.5850 C.3   301  NAP301      0.2309
     34  O2D      -28.8350    2.1010    0.3610 O.3   301  NAP301     -0.2158
     35  C1D      -28.1850    1.9230   -1.9210 C.3   301  NAP301      0.2263
     36  N1N      -29.4030    1.7790   -2.7590 N.pl3 301  NAP301     -0.2787
     37  C2N      -30.5190    1.1140   -2.2800 C.3   301  NAP301      0.1244
     38  C3N      -31.6510    0.9730   -3.0790 C.2   301  NAP301      0.0544
     39  C7N      -32.8310    0.2670   -2.5730 C.2   301  NAP301      0.2818
     40  O7N      -33.7430   -0.0040   -3.3190 O.2   301  NAP301     -0.2670
     41  N7N      -32.9030   -0.1250   -1.1880 N.am  301  NAP301     -0.0839
     42  C4N      -31.6250    1.5130   -4.4110 C.2   301  NAP301      0.0033
     43  C5N      -30.4210    2.1990   -4.8620 C.2   301  NAP301      0.0157
     44  C6N      -29.3550    2.3040   -4.0310 C.2   301  NAP301      0.0633
     45  P2B      -23.9400   -2.0630    8.2050 P.3   301  NAP301      0.5328
     46  O1X      -24.8800   -1.0050    8.7600 O.3   301  NAP301     -0.1145
     47  O2X      -24.8420   -3.2310    7.8290 O.2   301  NAP301     -0.2224
     48  O3X      -23.0460   -2.4940    9.3610 O.3   301  NAP301     -0.1145
@<TRIPOS>BOND
     1    43    42    1
     2    43    44    2
     3    42    38    2
     4    44    36    1
     5    40    39    2
     6    38    39    1
     7    38    37    1
     8    36    37    1
     9    36    35    1
    10    30    35    1
    11    30    29    1
    12    39    41   am
    13    28    27    1
    14    28    29    1
    15    35    33    1
    16    27    24    1
    17    29    31    1
    18    25    24    2
    19    26    24    1
    20    24    23    1
    21    33    31    1
    22    33    34    1
    23    31    32    1
    24    23     1    1
    25     1     4    1
    26     1     2    2
    27     1     3    1
    28     4     5    1
    29     5     6    1
    30     6     7    1
    31     6     8    1
    32     7    12    1
    33     8     9    1
    34     8    10    1
    35    12    13    1
    36    12    10    1
    37    14    13    1
    38    14    15    1
    39    13    22    1
    40    10    11    1
    41    15    16    2
    42    22    16    1
    43    22    21    2
    44    16    17    1
    45    11    45    1
    46    21    20    1
    47    17    18    1
    48    17    19    2
    49    47    45    2
    50    20    19    1
    51    45    46    1
    52    45    48    1
