@<TRIPOS>MOLECULE
4hni_16W_A_1.pdb
 25 28 0 0 0
SMALL
GASTEIGER

@<TRIPOS>ATOM
      1  C1       -24.2520  -11.7370  -30.9200 C.ar  301  16W301      0.0483
      2  C2       -23.8020  -12.4060  -29.7660 C.ar  301  16W301      0.1400
      3  C3       -22.5180  -12.0460  -29.1520 C.ar  301  16W301      0.0370
      4  C7       -27.3490  -16.5450  -25.4750 C.3   301  16W301      0.5248
      5  C8       -27.2870  -16.3570  -27.8910 C.2   301  16W301      0.3403
      6  C9       -26.7670  -15.0120  -27.8400 C.3   301  16W301      0.2634
      7  C10      -26.5700  -14.4970  -26.5430 C.2   301  16W301      0.4079
      8  C11      -26.6120  -14.6040  -29.1940 C.2   301  16W301      0.1439
      9  C12      -26.0760  -13.3550  -29.6910 C.3   301  16W301      0.2512
     10  C13      -29.7740  -18.8020  -31.1800 C.3   301  16W301      0.1464
     11  C14      -27.4900  -19.8010  -31.2580 C.3   301  16W301      0.1464
     12  C15      -26.9340  -18.5460  -30.6780 C.3   301  16W301      0.0811
     13  C16      -27.9020  -17.8340  -29.7360 C.3   301  16W301      0.1924
     14  N2       -27.5650  -17.0960  -26.7250 N.2   301  16W301     -0.0088
     15  N4       -26.8570  -15.2560  -25.4200 N.2   301  16W301     -0.0027
     16  N5       -27.3910  -16.5940  -29.2010 N.pl3 301  16W301     -0.0839
     17  N1       -27.0100  -15.6030  -29.9410 N.2   301  16W301     -0.0920
     18  N3       -26.1330  -13.2400  -26.3320 N.pl3 301  16W301      0.2118
     19  O2       -24.6850  -13.3780  -29.2840 O.3   301  16W301     -0.4692
     20  O1       -28.7200  -19.4870  -31.9110 O.3   301  16W301     -0.3535
     21  C17      -29.2350  -17.5840  -30.4430 C.3   301  16W301      0.0811
     22  C4       -21.6890  -10.9800  -29.7340 C.ar  301  16W301      0.0040
     23  C5       -22.1750  -10.3000  -30.9230 C.ar  301  16W301      0.0116
     24  C6       -23.4530  -10.7400  -31.4370 C.ar  301  16W301      0.0607
     25 CL1       -24.3660  -10.2070  -32.7160 Cl    301  16W301     -0.0821
@<TRIPOS>BOND
     1    25    24    1
     2    20    11    1
     3    20    10    1
     4    24    23   ar
     5    24     1   ar
     6    11    12    1
     7    10    21    1
     8    23    22   ar
     9     1     2   ar
    10    12    13    1
    11    21    13    1
    12    17    16    1
    13    17     8    2
    14     2    19    1
    15     2     3   ar
    16    13    16    1
    17    22     3   ar
    18     9    19    1
    19     9     8    1
    20    16     5    1
    21     8     6    1
    22     5     6    1
    23     5    14    2
    24     6     7    1
    25    14     4    1
    26     7    18    1
    27     7    15    2
    28     4    15    1
