@<TRIPOS>MOLECULE
4hnt_ADP_A_1.pdb
 27 29 0 0 0
SMALL
GASTEIGER

@<TRIPOS>ATOM
      1  PB        87.3670   47.9050    1.8420 P.3   1201  ADP1201     0.5373
      2  O1B       86.0590   48.1020    1.0820 O.2   1201  ADP1201    -0.2221
      3  O2B       87.8740   49.1960    2.4780 O.3   1201  ADP1201    -0.1143
      4  O3B       87.3750   46.6740    2.7400 O.3   1201  ADP1201    -0.1143
      5  PA        88.3400   46.3830   -0.4090 P.3   1201  ADP1201     0.2231
      6  O1A       86.9350   45.7790   -0.3780 O.2   1201  ADP1201    -0.5169
      7  O2A       89.5230   45.4200   -0.3660 O.3   1201  ADP1201    -0.4370
      8  O3A       88.5030   47.5530    0.7250 O.3   1201  ADP1201    -0.2261
      9  O5'       88.4600   47.3320   -1.7210 O.3   1201  ADP1201    -0.3111
     10  C5'       89.0590   48.6230   -1.6290 C.3   1201  ADP1201     0.1813
     11  C4'       89.3980   49.0440   -3.0470 C.3   1201  ADP1201     0.1821
     12  O4'       90.7780   48.8000   -3.3180 O.3   1201  ADP1201    -0.3135
     13  C3'       88.5930   48.2140   -4.0230 C.3   1201  ADP1201     0.2184
     14  O3'       87.6800   49.0760   -4.6890 O.3   1201  ADP1201    -0.2174
     15  C2'       89.5660   47.6840   -5.0430 C.3   1201  ADP1201     0.2570
     16  O2'       89.3720   48.3260   -6.3050 O.3   1201  ADP1201    -0.2130
     17  C1'       90.9450   48.0320   -4.5230 C.3   1201  ADP1201     0.3186
     18  N9        91.6780   46.7510   -4.2800 N.pl3 1201  ADP1201    -0.1439
     19  C8        91.6550   46.0260   -3.1440 C.3   1201  ADP1201     0.3377
     20  N7        92.4100   44.9100   -3.2440 N.2   1201  ADP1201    -0.2095
     21  C5        92.9360   44.8980   -4.4760 C.2   1201  ADP1201     0.2526
     22  C6        93.8380   44.0010   -5.2360 C.2   1201  ADP1201     0.4393
     23  N6        94.3290   42.8650   -4.6790 N.pl3 1201  ADP1201     0.2180
     24  N1        94.1420   44.3490   -6.5030 N.2   1201  ADP1201     0.0021
     25  C2        93.6490   45.4610   -7.0780 C.3   1201  ADP1201     0.5254
     26  N3        92.8170   46.3110   -6.4510 N.2   1201  ADP1201    -0.0055
     27  C4        92.4350   46.0950   -5.1660 C.2   1201  ADP1201     0.3518
@<TRIPOS>BOND
     1    25    24    1
     2    25    26    1
     3    24    22    2
     4    26    27    2
     5    16    15    1
     6    22    23    1
     7    22    21    1
     8    27    21    1
     9    27    18    1
    10    15    17    1
    11    15    13    1
    12    14    13    1
    13    17    18    1
    14    17    12    1
    15    21    20    2
    16    18    19    1
    17    13    11    1
    18    12    11    1
    19    20    19    1
    20    11    10    1
    21     9    10    1
    22     9     5    1
    23     5     6    2
    24     5     7    1
    25     5     8    1
    26     8     1    1
    27     2     1    2
    28     1     3    1
    29     1     4    1
