@<TRIPOS>MOLECULE
4hnt_ATP_C_1.pdb
 31 33 0 0 0
SMALL
GASTEIGER

@<TRIPOS>ATOM
      1  PG        39.1020   62.9110  -18.7280 P.3   1202  ATP1202     0.5373
      2  O1G       39.1720   61.8940  -19.8510 O.2   1202  ATP1202    -0.2221
      3  O2G       40.4480   63.4750  -18.2980 O.3   1202  ATP1202    -0.1143
      4  O3G       38.2470   62.4590  -17.5550 O.3   1202  ATP1202    -0.1143
      5  PB        36.7350   64.1200  -19.8340 P.3   1202  ATP1202     0.2277
      6  O1B       36.5660   64.8320  -21.1680 O.2   1202  ATP1202    -0.5168
      7  O2B       35.8000   64.4780  -18.6860 O.3   1202  ATP1202    -0.4368
      8  O3B       38.3080   64.1820  -19.3850 O.3   1202  ATP1202    -0.2258
      9  PA        35.2840   61.7890  -20.2140 P.3   1202  ATP1202     0.2189
     10  O1A       34.4020   62.7000  -21.0450 O.2   1202  ATP1202    -0.5170
     11  O2A       35.5830   60.3730  -20.6740 O.3   1202  ATP1202    -0.4371
     12  O3A       36.6890   62.5280  -20.0900 O.3   1202  ATP1202    -0.2700
     13  O5'       34.7730   61.8210  -18.6840 O.3   1202  ATP1202    -0.3112
     14  C5'       35.5100   61.0590  -17.7440 C.3   1202  ATP1202     0.1813
     15  C4'       34.5560   60.4620  -16.7320 C.3   1202  ATP1202     0.1821
     16  O4'       33.2130   60.9120  -16.9320 O.3   1202  ATP1202    -0.3135
     17  C3'       34.4970   58.9430  -16.7830 C.3   1202  ATP1202     0.2184
     18  O3'       35.5160   58.3780  -15.9780 O.3   1202  ATP1202    -0.2174
     19  C2'       33.1500   58.6520  -16.1600 C.3   1202  ATP1202     0.2570
     20  O2'       33.2320   58.6290  -14.7220 O.3   1202  ATP1202    -0.2130
     21  C1'       32.3060   59.8250  -16.6600 C.3   1202  ATP1202     0.3186
     22  N9        31.7250   59.3330  -17.9400 N.pl3 1202  ATP1202    -0.1439
     23  C8        32.0650   59.7390  -19.1840 C.3   1202  ATP1202     0.3377
     24  N7        31.3870   59.0360  -20.1300 N.2   1202  ATP1202    -0.2095
     25  C5        30.6130   58.1370  -19.4900 C.2   1202  ATP1202     0.2526
     26  C6        29.6460   57.0900  -19.8810 C.2   1202  ATP1202     0.4393
     27  N6        29.3660   56.8430  -21.1730 N.pl3 1202  ATP1202     0.2180
     28  N1        29.0530   56.3850  -18.9040 N.2   1202  ATP1202     0.0021
     29  C2        29.3410   56.5950  -17.6060 C.3   1202  ATP1202     0.5254
     30  N3        30.1970   57.5330  -17.1660 N.2   1202  ATP1202    -0.0055
     31  C4        30.8510   58.3260  -18.0480 C.2   1202  ATP1202     0.3518
@<TRIPOS>BOND
     1    27    26    1
     2     6     5    2
     3    10     9    2
     4    11     9    1
     5     9    12    1
     6     9    13    1
     7    24    25    2
     8    24    23    1
     9    12     5    1
    10    26    25    1
    11    26    28    2
    12     2     1    2
    13     5     8    1
    14     5     7    1
    15    25    31    1
    16     8     1    1
    17    23    22    1
    18    28    29    1
    19     1     3    1
    20     1     4    1
    21    13    14    1
    22    31    22    1
    23    31    30    2
    24    22    21    1
    25    14    15    1
    26    29    30    1
    27    16    15    1
    28    16    21    1
    29    17    15    1
    30    17    19    1
    31    17    18    1
    32    21    19    1
    33    19    20    1
