@<TRIPOS>MOLECULE
4hnt_BTI_A_1.pdb
 15 16 0 0 0
SMALL
GASTEIGER

@<TRIPOS>ATOM
      1  C11       80.5490  101.5950    1.2480 C.2   1203  BTI1203     0.2074
      2  O11       80.7230  102.8010    1.4590 O.2   1203  BTI1203    -0.2883
      3  C10       79.5170  101.1360    0.2360 C.3   1203  BTI1203     0.0722
      4  C9        79.9670   99.8570   -0.4650 C.3   1203  BTI1203     0.0082
      5  C8        79.6190   99.8710   -1.9440 C.3   1203  BTI1203     0.0014
      6  C7        80.7630  100.4790   -2.7420 C.3   1203  BTI1203     0.0129
      7  C2        80.2390  100.9970   -4.0780 C.3   1203  BTI1203     0.0729
      8  S1        80.7820   99.9680   -5.4040 S.3   1203  BTI1203    -0.1369
      9  C6        80.5680  101.2440   -6.6120 C.3   1203  BTI1203     0.0848
     10  C5        80.4880  102.6170   -5.9360 C.3   1203  BTI1203     0.1509
     11  N3        81.7090  103.3360   -6.2940 N.2   1203  BTI1203    -0.1859
     12  C3        82.6120  103.2370   -5.3290 C.1   1203  BTI1203     0.2386
     13  O3        83.8680  103.6780   -5.4460 O.2   1203  BTI1203    -0.2023
     14  N2        82.0920  102.6420   -4.2540 N.2   1203  BTI1203    -0.1860
     15  C4        80.6440  102.4340   -4.4200 C.3   1203  BTI1203     0.1500
@<TRIPOS>BOND
     1     9    10    1
     2     9     8    1
     3    11    10    1
     4    11    12    2
     5    10    15    1
     6    13    12    2
     7     8     7    1
     8    12    14    2
     9    15    14    1
    10    15     7    1
    11     7     6    1
    12     6     5    1
    13     5     4    1
    14     4     3    1
    15     3     1    1
    16     1     2    2
