@<TRIPOS>MOLECULE
4hnu_BTI_D_1.pdb
 15 16 0 0 0
SMALL
GASTEIGER

@<TRIPOS>ATOM
      1  C11       54.7310  128.0690   15.3120 C.2   1201  BTI1201     0.2074
      2  O11       53.9270  127.4600   15.9920 O.2   1201  BTI1201    -0.2883
      3  C10       55.5960  129.1400   15.9320 C.3   1201  BTI1201     0.0722
      4  C9        54.7130  130.2620   16.4730 C.3   1201  BTI1201     0.0082
      5  C8        55.3220  131.6380   16.2190 C.3   1201  BTI1201     0.0014
      6  C7        54.3760  132.4740   15.3630 C.3   1201  BTI1201     0.0129
      7  C2        54.9110  132.6150   13.9370 C.3   1201  BTI1201     0.0729
      8  S1        55.0320  134.3210   13.5370 S.3   1201  BTI1201    -0.1369
      9  C6        54.7100  134.1190   11.8160 C.3   1201  BTI1201     0.0848
     10  C5        54.0870  132.7540   11.5540 C.3   1201  BTI1201     0.1509
     11  N3        52.6660  132.9840   11.2930 N.2   1201  BTI1201    -0.1859
     12  C3        51.9080  132.4900   12.2660 C.1   1201  BTI1201     0.2386
     13  O3        50.5710  132.5260   12.2940 O.2   1201  BTI1201    -0.2023
     14  N2        52.6570  131.9510   13.2180 N.2   1201  BTI1201    -0.1860
     15  C4        54.0750  131.9250   12.8510 C.3   1201  BTI1201     0.1500
@<TRIPOS>BOND
     1    11    10    1
     2    11    12    2
     3    10     9    1
     4    10    15    1
     5     9     8    1
     6    12    13    2
     7    12    14    2
     8    15    14    1
     9    15     7    1
    10     8     7    1
    11     7     6    1
    12     1     3    1
    13     1     2    2
    14     6     5    1
    15     3     4    1
    16     5     4    1
