@<TRIPOS>MOLECULE
4hnu_ADP_A_1.pdb
 27 29 0 0 0
SMALL
GASTEIGER

@<TRIPOS>ATOM
      1  PB        87.3500   47.7970    2.4820 P.3   1201  ADP1201     0.5373
      2  O1B       86.3050   47.6140    1.3990 O.2   1201  ADP1201    -0.2221
      3  O2B       87.4250   49.2140    3.0230 O.3   1201  ADP1201    -0.1143
      4  O3B       87.3150   46.7230    3.5490 O.3   1201  ADP1201    -0.1143
      5  PA        89.1760   46.3510    0.7470 P.3   1201  ADP1201     0.2231
      6  O1A       87.9560   45.8970   -0.0460 O.2   1201  ADP1201    -0.5169
      7  O2A       89.9540   45.3330    1.5590 O.3   1201  ADP1201    -0.4370
      8  O3A       88.7850   47.5810    1.7430 O.3   1201  ADP1201    -0.2261
      9  O5'       90.2500   47.0240   -0.2630 O.3   1201  ADP1201    -0.3111
     10  C5'       90.1340   48.3660   -0.7270 C.3   1201  ADP1201     0.1813
     11  C4'       89.9140   48.3840   -2.2330 C.3   1201  ADP1201     0.1821
     12  O4'       91.1560   48.1890   -2.8920 O.3   1201  ADP1201    -0.3135
     13  C3'       88.9990   47.2680   -2.6990 C.3   1201  ADP1201     0.2184
     14  O3'       87.7020   47.7980   -2.9400 O.3   1201  ADP1201    -0.2174
     15  C2'       89.6040   46.7560   -3.9840 C.3   1201  ADP1201     0.2570
     16  O2'       89.0260   47.4040   -5.1170 O.3   1201  ADP1201    -0.2130
     17  C1'       91.0610   47.1650   -3.8920 C.3   1201  ADP1201     0.3186
     18  N9        91.8890   45.9690   -3.5280 N.pl3 1201  ADP1201    -0.1439
     19  C8        91.9300   45.3560   -2.3220 C.3   1201  ADP1201     0.3377
     20  N7        92.7840   44.3010   -2.3210 N.2   1201  ADP1201    -0.2095
     21  C5        93.3150   44.2180   -3.5550 C.2   1201  ADP1201     0.2526
     22  C6        94.2970   43.3390   -4.2370 C.2   1201  ADP1201     0.4393
     23  N6        94.9000   42.3120   -3.5890 N.pl3 1201  ADP1201     0.2180
     24  N1        94.5840   43.6060   -5.5250 N.2   1201  ADP1201     0.0021
     25  C2        93.9960   44.6210   -6.1830 C.3   1201  ADP1201     0.5254
     26  N3        93.0990   45.4560   -5.6360 N.2   1201  ADP1201    -0.0055
     27  C4        92.7230   45.3130   -4.3450 C.2   1201  ADP1201     0.3518
@<TRIPOS>BOND
     1    25    26    1
     2    25    24    1
     3    26    27    2
     4    24    22    2
     5    16    15    1
     6    27    21    1
     7    27    18    1
     8    22    23    1
     9    22    21    1
    10    15    17    1
    11    15    13    1
    12    17    18    1
    13    17    12    1
    14    21    20    2
    15    18    19    1
    16    14    13    1
    17    12    11    1
    18    13    11    1
    19    19    20    1
    20    11    10    1
    21    10     9    1
    22     9     5    1
    23     6     5    2
    24     5     7    1
    25     5     8    1
    26     2     1    2
    27     8     1    1
    28     1     3    1
    29     1     4    1
