@<TRIPOS>MOLECULE
4hnv_ADP_A_1.pdb
 27 29 0 0 0
SMALL
GASTEIGER

@<TRIPOS>ATOM
      1  PB        87.6360   48.0050    0.6940 P.3   1201  ADP1201     0.5373
      2  O1B       86.3430   47.6340   -0.0290 O.2   1201  ADP1201    -0.2221
      3  O2B       87.8020   49.4900    1.0070 O.3   1201  ADP1201    -0.1143
      4  O3B       87.9830   47.0340    1.8040 O.3   1201  ADP1201    -0.1143
      5  PA        88.7490   46.4590   -1.3170 P.3   1201  ADP1201     0.2231
      6  O1A       87.3670   45.8390   -1.1530 O.2   1201  ADP1201    -0.5169
      7  O2A       89.9890   45.6230   -1.0580 O.3   1201  ADP1201    -0.4370
      8  O3A       88.8210   47.7550   -0.3610 O.3   1201  ADP1201    -0.2261
      9  O5'       88.8630   47.1400   -2.7770 O.3   1201  ADP1201    -0.3111
     10  C5'       88.6910   48.5510   -2.9300 C.3   1201  ADP1201     0.1813
     11  C4'       89.3640   48.9770   -4.2240 C.3   1201  ADP1201     0.1821
     12  O4'       90.7620   48.6990   -4.1430 O.3   1201  ADP1201    -0.3135
     13  C3'       88.8390   48.1650   -5.4020 C.3   1201  ADP1201     0.2184
     14  O3'       87.8110   48.8760   -6.0970 O.3   1201  ADP1201    -0.2174
     15  C2'       90.0350   47.9980   -6.3030 C.3   1201  ADP1201     0.2570
     16  O2'       90.1170   49.1370   -7.1630 O.3   1201  ADP1201    -0.2130
     17  C1'       91.2110   48.0930   -5.3590 C.3   1201  ADP1201     0.3186
     18  N9        91.8400   46.7620   -5.1270 N.pl3 1201  ADP1201    -0.1439
     19  C8        91.7340   45.9910   -4.0240 C.3   1201  ADP1201     0.3377
     20  N7        92.4800   44.8600   -4.1350 N.2   1201  ADP1201    -0.2095
     21  C5        93.0960   44.9030   -5.3300 C.2   1201  ADP1201     0.2526
     22  C6        94.0490   44.0530   -6.0760 C.2   1201  ADP1201     0.4393
     23  N6        94.5010   42.8860   -5.5690 N.pl3 1201  ADP1201     0.2180
     24  N1        94.4550   44.4710   -7.2860 N.2   1201  ADP1201     0.0021
     25  C2        94.0160   45.6220   -7.8200 C.3   1201  ADP1201     0.5254
     26  N3        93.1520   46.4470   -7.2060 N.2   1201  ADP1201    -0.0055
     27  C4        92.6670   46.1500   -5.9800 C.2   1201  ADP1201     0.3518
@<TRIPOS>BOND
     1    25    24    1
     2    25    26    1
     3    24    22    2
     4    26    27    2
     5    16    15    1
     6    15    13    1
     7    15    17    1
     8    14    13    1
     9    22    23    1
    10    22    21    1
    11    27    21    1
    12    27    18    1
    13    13    11    1
    14    17    18    1
    15    17    12    1
    16    21    20    2
    17    18    19    1
    18    11    12    1
    19    11    10    1
    20    20    19    1
    21    10     9    1
    22     9     5    1
    23     5     6    2
    24     5     7    1
    25     5     8    1
    26     8     1    1
    27     2     1    2
    28     1     3    1
    29     1     4    1
