@<TRIPOS>MOLECULE
4hnv_ATP_C_1.pdb
 31 33 0 0 0
SMALL
GASTEIGER

@<TRIPOS>ATOM
      1  PG        38.2290   62.4540  -19.0490 P.3   1202  ATP1202     0.5373
      2  O1G       37.5290   61.3520  -19.8210 O.2   1202  ATP1202    -0.2221
      3  O2G       39.5890   62.8510  -19.6010 O.3   1202  ATP1202    -0.1143
      4  O3G       38.2150   62.1860  -17.5550 O.3   1202  ATP1202    -0.1143
      5  PB        35.8750   63.7950  -19.9930 P.3   1202  ATP1202     0.2277
      6  O1B       36.0510   64.2350  -21.4240 O.2   1202  ATP1202    -0.5168
      7  O2B       34.7910   64.4010  -19.1240 O.3   1202  ATP1202    -0.4368
      8  O3B       37.3240   63.8060  -19.2610 O.3   1202  ATP1202    -0.2258
      9  PA        34.3870   61.4410  -20.3010 P.3   1202  ATP1202     0.2189
     10  O1A       33.4420   62.3970  -20.9840 O.2   1202  ATP1202    -0.5170
     11  O2A       34.8230   60.1780  -20.9810 O.3   1202  ATP1202    -0.4371
     12  O3A       35.7380   62.1970  -19.9510 O.3   1202  ATP1202    -0.2700
     13  O5'       33.8190   61.1250  -18.8400 O.3   1202  ATP1202    -0.3112
     14  C5'       34.6910   60.5360  -17.8900 C.3   1202  ATP1202     0.1813
     15  C4'       33.8770   59.8280  -16.8120 C.3   1202  ATP1202     0.1821
     16  O4'       32.4890   60.1730  -16.8300 O.3   1202  ATP1202    -0.3135
     17  C3'       33.9360   58.3280  -16.9630 C.3   1202  ATP1202     0.2184
     18  O3'       35.0730   57.8620  -16.2610 O.3   1202  ATP1202    -0.2174
     19  C2'       32.6500   57.8730  -16.3110 C.3   1202  ATP1202     0.2570
     20  O2'       32.8000   57.8080  -14.8930 O.3   1202  ATP1202    -0.2130
     21  C1'       31.6900   59.0030  -16.6220 C.3   1202  ATP1202     0.3186
     22  N9        30.9770   58.6620  -17.8800 N.pl3 1202  ATP1202    -0.1439
     23  C8        31.1640   59.2520  -19.0780 C.3   1202  ATP1202     0.3377
     24  N7        30.3590   58.7160  -20.0240 N.2   1202  ATP1202    -0.2095
     25  C5        29.6340   57.7570  -19.4210 C.2   1202  ATP1202     0.2526
     26  C6        28.5940   56.7940  -19.8430 C.2   1202  ATP1202     0.4393
     27  N6        28.1650   56.7740  -21.1330 N.pl3 1202  ATP1202     0.2180
     28  N1        28.0990   55.9520  -18.9040 N.2   1202  ATP1202     0.0021
     29  C2        28.5280   55.9710  -17.6280 C.3   1202  ATP1202     0.5254
     30  N3        29.4630   56.8230  -17.1750 N.2   1202  ATP1202    -0.0055
     31  C4        30.0450   57.7190  -18.0100 C.2   1202  ATP1202     0.3518
@<TRIPOS>BOND
     1     6     5    2
     2    27    26    1
     3    10     9    2
     4    11     9    1
     5     9    12    1
     6     9    13    1
     7    24    25    2
     8    24    23    1
     9     5    12    1
    10     5     8    1
    11     5     7    1
    12    26    25    1
    13    26    28    2
    14     2     1    2
    15     3     1    1
    16    25    31    1
    17     8     1    1
    18    23    22    1
    19     1     4    1
    20    28    29    1
    21    13    14    1
    22    31    22    1
    23    31    30    2
    24    14    15    1
    25    22    21    1
    26    29    30    1
    27    17    15    1
    28    17    19    1
    29    17    18    1
    30    16    15    1
    31    16    21    1
    32    21    19    1
    33    19    20    1
