@<TRIPOS>MOLECULE
4hnv_BTI_B_1.pdb
 15 16 0 0 0
SMALL
GASTEIGER

@<TRIPOS>ATOM
      1  C11       80.0620  101.2400    0.6930 C.2   1202  BTI1202     0.2074
      2  O11       81.0600  101.7700    0.2140 O.2   1202  BTI1202    -0.2883
      3  C10       79.0670  100.5400   -0.1940 C.3   1202  BTI1202     0.0722
      4  C9        79.8230  100.0400   -1.4070 C.3   1202  BTI1202     0.0082
      5  C8        79.4080  100.8690   -2.6020 C.3   1202  BTI1202     0.0014
      6  C7        80.3420  100.6280   -3.7600 C.3   1202  BTI1202     0.0129
      7  C2        79.8480  101.4780   -4.9090 C.3   1202  BTI1202     0.0729
      8  S1        80.2840  100.7430   -6.4440 S.3   1202  BTI1202    -0.1369
      9  C6        80.1330  102.2680   -7.3120 C.3   1202  BTI1202     0.0848
     10  C5        80.5010  103.3930   -6.3460 C.3   1202  BTI1202     0.1509
     11  N3        81.9160  103.6660   -6.5660 N.2   1202  BTI1202    -0.1859
     12  C3        82.6540  103.1830   -5.5830 C.1   1202  BTI1202     0.2386
     13  O3        83.9820  103.1640   -5.6010 O.2   1202  BTI1202    -0.2023
     14  N2        81.9080  102.6900   -4.6120 N.2   1202  BTI1202    -0.1860
     15  C4        80.4850  102.8600   -4.9050 C.3   1202  BTI1202     0.1500
@<TRIPOS>BOND
     1     9     8    1
     2     9    10    1
     3    11    10    1
     4    11    12    2
     5     8     7    1
     6    10    15    1
     7    13    12    2
     8    12    14    2
     9     7    15    1
    10     7     6    1
    11    15    14    1
    12     6     5    1
    13     5     4    1
    14     4     3    1
    15     3     1    1
    16     2     1    2
