@<TRIPOS>MOLECULE
4hoa_LAT_A_1.pdb
 23 24 0 0 0
SMALL
GASTEIGER

@<TRIPOS>ATOM
      1  C1        22.6300    3.6110   -4.9520 C.3   301  LAT301      0.2695
      2  C2        22.6570    3.9460   -3.4490 C.3   301  LAT301      0.2406
      3  C3        21.4640    4.8360   -3.0660 C.3   301  LAT301      0.2198
      4  C4        21.1830    5.9140   -4.1290 C.3   301  LAT301      0.2144
      5  C5        21.1430    5.2270   -5.4450 C.3   301  LAT301      0.1835
      6  C6        20.9700    6.0340   -6.7030 C.3   301  LAT301      0.2142
      7  O1        23.8570    3.1390   -5.4580 O.3   301  LAT301     -0.3257
      8  O2        22.7040    2.7170   -2.7320 O.3   301  LAT301     -0.2149
      9  O3        21.5010    5.3490   -1.6980 O.3   301  LAT301     -0.2174
     10  O4        22.2620    6.7980   -4.2960 O.3   301  LAT301     -0.2176
     11  O5        22.4650    4.8410   -5.5770 O.3   301  LAT301     -0.3256
     12  O6        21.3150    5.1370   -7.7560 O.3   301  LAT301     -0.2176
     13  C1'       24.5630   -0.4880   -7.3460 C.3   301  LAT301      0.3023
     14  C2'       24.3910    0.7280   -8.2480 C.3   301  LAT301      0.2433
     15  C3'       24.5060    2.0570   -7.5040 C.3   301  LAT301      0.2168
     16  C4'       23.7770    1.9370   -6.1720 C.3   301  LAT301      0.1804
     17  C5'       24.5780    0.8850   -5.4800 C.3   301  LAT301      0.1804
     18  C6'       24.4530    0.8900   -3.9570 C.3   301  LAT301      0.2141
     19  O1'       23.8540   -1.5930   -7.8810 O.3   301  LAT301     -0.1869
     20  O2'       25.4660    0.6310   -9.1750 O.3   301  LAT301     -0.2148
     21  O3'       24.1180    3.2160   -8.2500 O.3   301  LAT301     -0.2175
     22  O5'       24.1020   -0.3100   -6.0100 O.3   301  LAT301     -0.3237
     23  O6'       25.6330    0.2380   -3.5110 O.3   301  LAT301     -0.2176
@<TRIPOS>BOND
     1    20    14    1
     2    21    15    1
     3    14    15    1
     4    14    13    1
     5    19    13    1
     6    12     6    1
     7    15    16    1
     8    13    22    1
     9     6     5    1
    10    16    17    1
    11    16     7    1
    12    22    17    1
    13    11     5    1
    14    11     1    1
    15    17    18    1
    16     7     1    1
    17     5     4    1
    18     1     2    1
    19    10     4    1
    20     4     3    1
    21    18    23    1
    22     2     3    1
    23     2     8    1
    24     3     9    1
