@<TRIPOS>MOLECULE
4hoh_2GP_A_1.pdb
 24 26 0 0 0
SMALL
GASTEIGER

@<TRIPOS>ATOM
      1  P         17.9500   30.1270   52.6570 P.3   107  2GP107      0.5327
      2  O1P       16.5270   29.8420   52.9680 O.3   107  2GP107     -0.1145
      3  O2P       18.7940   30.6840   53.7590 O.3   107  2GP107     -0.1145
      4  O3P       18.5880   29.0190   51.9170 O.2   107  2GP107     -0.2224
      5  O5'       22.3040   32.5850   51.5780 O.3   107  2GP107     -0.2176
      6  C5'       21.7920   33.9250   51.6200 C.3   107  2GP107      0.2142
      7  C4'       20.2740   34.1230   51.2980 C.3   107  2GP107      0.1827
      8  O4'       20.0000   33.7410   49.9440 O.3   107  2GP107     -0.3326
      9  C3'       19.3260   33.2730   52.1590 C.3   107  2GP107      0.2132
     10  O3'       18.1090   34.0490   52.3670 O.3   107  2GP107     -0.2176
     11  C2'       19.0840   32.0680   51.2630 C.3   107  2GP107      0.2054
     12  O2'       17.8680   31.3800   51.5810 O.3   107  2GP107     -0.2657
     13  C1'       18.9580   32.7460   49.9310 C.3   107  2GP107      0.2266
     14  N9        19.3150   31.9310   48.8050 N.pl3 107  2GP107     -0.2354
     15  C8        18.6430   31.8640   47.6180 C.3   107  2GP107      0.2246
     16  N7        19.2780   31.1610   46.7200 N.2   107  2GP107     -0.2322
     17  C5        20.4420   30.7370   47.3710 C.2   107  2GP107      0.2182
     18  C6        21.5200   29.9380   46.9080 C.1   107  2GP107      0.2372
     19  O6        21.6600   29.5250   45.7610 O.2   107  2GP107     -0.2069
     20  N1        22.4840   29.7150   47.8840 N.2   107  2GP107     -0.2485
     21  C2        22.4210   30.2170   49.1570 C.1   107  2GP107      0.2531
     22  N2        23.3880   29.8700   49.9810 N.pl3 107  2GP107     -0.0226
     23  N3        21.4190   30.9800   49.5800 N.2   107  2GP107     -0.3074
     24  C4        20.4640   31.1980   48.6540 C.2   107  2GP107      0.2300
@<TRIPOS>BOND
     1    19    18    2
     2    16    17    2
     3    16    15    1
     4    18    17    1
     5    18    20    2
     6    17    24    1
     7    15    14    1
     8    20    21    2
     9    24    14    1
    10    24    23    2
    11    14    13    1
    12    21    23    2
    13    21    22    1
    14    13     8    1
    15    13    11    1
    16     8     7    1
    17    11    12    1
    18    11     9    1
    19     7     6    1
    20     7     9    1
    21     5     6    1
    22    12     1    1
    23     4     1    2
    24     9    10    1
    25     1     2    1
    26     1     3    1
