@<TRIPOS>MOLECULE
4hoj_GSH_A_1.pdb
 20 19 0 0 0
SMALL
GASTEIGER

@<TRIPOS>ATOM
      1  N1        -0.5370    7.9350    6.6880 N.3   302  GSH302     -0.1208
      2  CA1       -1.1850    8.6500    7.8260 C.3   302  GSH302      0.1948
      3  C1        -0.2820    9.7070    8.3460 C.2   302  GSH302      0.3819
      4  O11       -0.7630   10.7630    8.8300 O.co2 302  GSH302     -0.2441
      5  O12        0.9420    9.4830    8.3100 O.co2 302  GSH302     -0.2441
      6  CB1       -1.6700    7.6660    8.9000 C.3   302  GSH302      0.0402
      7  CG1       -2.5650    8.3180    9.9600 C.3   302  GSH302      0.0889
      8  CD1       -3.2880    7.2540   10.7640 C.2   302  GSH302      0.2418
      9  OE1       -3.1340    6.0640   10.6060 O.2   302  GSH302     -0.2733
     10  N2        -4.1010    7.8030   11.7440 N.am  302  GSH302     -0.1968
     11  CA2       -4.8930    6.8950   12.5730 C.3   302  GSH302      0.1843
     12  C2        -6.3380    7.2340   12.3060 C.2   302  GSH302      0.2627
     13  O2        -6.8260    8.3430   12.1600 O.2   302  GSH302     -0.2714
     14  CB2       -4.6900    7.0410   14.0430 C.3   302  GSH302      0.0997
     15  SG2       -3.0120    6.8230   14.5650 S.3   302  GSH302     -0.0797
     16  N3        -7.2140    6.0710   12.3580 N.am  302  GSH302     -0.1917
     17  CA3       -8.6410    6.1990   12.1240 C.3   302  GSH302      0.2285
     18  C3        -8.9640    5.4020   10.8990 C.2   302  GSH302      0.3865
     19  O31       -8.1130    4.8740   10.1040 O.co2 302  GSH302     -0.2437
     20  O32      -10.1870    5.2860   10.6550 O.co2 302  GSH302     -0.2437
@<TRIPOS>BOND
     1     1     2    1
     2     2     3    1
     3     2     6    1
     4     5     3   ar
     5     3     4   ar
     6     6     7    1
     7     7     8    1
     8    19    18   ar
     9     9     8    2
    10    20    18   ar
    11     8    10   am
    12    18    17    1
    13    10    11    1
    14    17    16    1
    15    13    12    2
    16    12    16   am
    17    12    11    1
    18    11    14    1
    19    14    15    1
