@<TRIPOS>MOLECULE
4hol_III_B_1.pdb
 36 35 0 0 0
SMALL
GASTEIGER

@<TRIPOS>ATOM
      1  N         30.8490   15.0380   59.8060 N.3     1  ALA1       -0.1231
      2  CA        30.0360   15.7730   58.8380 C.3     1  ALA1        0.1694
      3  C         28.9160   16.5910   59.5370 C.2     1  ALA1        0.2592
      4  O         28.5540   16.2950   60.6170 O.2     1  ALA1       -0.2718
      5  CB        29.8990   14.9830   57.5570 C.3     1  ALA1        0.0304
      6  N         28.6560   17.7890   58.9960 N.am    2  ALA2       -0.1966
      7  CA        27.4160   18.5770   58.9100 C.3     2  ALA2        0.1728
      8  C         26.7670   19.5240   59.9800 C.2     2  ALA2        0.2616
      9  O         27.0630   20.7020   60.0470 O.2     2  ALA2       -0.2715
     10  CB        26.3260   17.7360   58.2420 C.3     2  ALA2        0.0334
     11  N         25.8420   18.9880   60.7650 N.am    3  ALA3       -0.1963
     12  CA        24.4980   19.4620   60.9090 C.3     3  ALA3        0.1728
     13  C         24.0250   20.3290   62.0850 C.2     3  ALA3        0.2616
     14  O         24.2700   20.0640   63.2470 O.2     3  ALA3       -0.2715
     15  CB        23.5310   18.3020   60.7140 C.3     3  ALA3        0.0334
     16  N         23.2750   21.3520   61.7040 N.am    4  ALA4       -0.1963
     17  CA        22.3480   22.0600   62.5940 C.3     4  ALA4        0.1728
     18  C         20.8820   21.6000   62.4430 C.2     4  ALA4        0.2616
     19  O         20.4570   20.5780   63.0230 O.2     4  ALA4       -0.2715
     20  CB        22.4390   23.5620   62.3480 C.3     4  ALA4        0.0334
     21  N         20.0860   22.4700   61.8160 N.am    5  ALA5       -0.1963
     22  CA        18.9860   22.0570   60.9410 C.3     5  ALA5        0.1728
     23  C         17.9350   23.1580   60.7850 C.2     5  ALA5        0.2616
     24  O         17.3210   23.5740   61.7700 O.2     5  ALA5       -0.2715
     25  CB        18.3460   20.7710   61.4490 C.3     5  ALA5        0.0334
     26  N         17.7290   23.6150   59.5460 N.am    6  ALA6       -0.1963
     27  CA        16.7300   24.6460   59.2370 C.3     6  ALA6        0.1728
     28  C         15.4920   24.5150   60.1360 C.2     6  ALA6        0.2617
     29  O         14.9440   23.4160   60.2920 O.2     6  ALA6       -0.2715
     30  CB        16.3370   24.5780   57.7620 C.3     6  ALA6        0.0334
     31  N         15.0340   25.6440   60.6850 N.am    7  ALA7       -0.1942
     32  CA        14.2340   25.6620   61.9210 C.3     7  ALA7        0.1979
     33  C         12.8610   24.9880   61.7770 C.2     7  ALA7        0.3842
     34  O         11.8040   25.5920   62.0210 O.co2   7  ALA7       -0.2437
     35  CB        14.0960   27.0880   62.4540 C.3     7  ALA7        0.0356
     36  OXT       12.7810   23.7940   61.4520 O.co2   7  ALA7       -0.2437
@<TRIPOS>BOND
     1     5     2    1
     2    30    27    1
     3    10     7    1
     4     2     3    1
     5     2     1    1
     6     7     6    1
     7     7     8    1
     8     6     3   am
     9    27    26    1
    10    27    28    1
    11     3     4    2
    12    26    23   am
    13     8     9    2
    14     8    11   am
    15    28    29    2
    16    28    31   am
    17    31    32    1
    18    15    12    1
    19    11    12    1
    20    23    22    1
    21    23    24    2
    22    12    13    1
    23    22    25    1
    24    22    21    1
    25    36    33   ar
    26    16    13   am
    27    16    17    1
    28    33    32    1
    29    33    34   ar
    30    21    18   am
    31    32    35    1
    32    13    14    2
    33    20    17    1
    34    18    17    1
    35    18    19    2
