@<TRIPOS>MOLECULE
4hon_AKG_A_1.pdb
 10 9 0 0 0
SMALL
GASTEIGER

@<TRIPOS>ATOM
      1  C1        -7.3000   -4.4680   26.4920 C.2   401  AKG401      0.4219
      2  O1        -6.9550   -5.5310   27.0680 O.co2 401  AKG401     -0.2373
      3  O2        -6.9370   -4.2160   25.3090 O.co2 401  AKG401     -0.2373
      4  C2        -8.1370   -3.4690   27.1980 C.2   401  AKG401      0.2526
      5  O5        -8.3800   -2.3940   26.6600 O.2   401  AKG401     -0.2843
      6  C3        -8.7220   -3.7650   28.5620 C.3   401  AKG401      0.0881
      7  C4        -7.8110   -3.2080   29.6710 C.3   401  AKG401      0.1224
      8  C5        -8.4910   -3.3910   31.0080 C.2   401  AKG401      0.3653
      9  O3        -8.7390   -4.5740   31.3630 O.co2 401  AKG401     -0.2456
     10  O4        -8.7600   -2.3710   31.6980 O.co2 401  AKG401     -0.2456
@<TRIPOS>BOND
     1     3     1   ar
     2     1     2   ar
     3     1     4    1
     4     5     4    2
     5     4     6    1
     6     6     7    1
     7     7     8    1
     8     8     9   ar
     9     8    10   ar
