@<TRIPOS>MOLECULE
4hon_III_G_1.pdb
 43 42 0 0 0
SMALL
GASTEIGER

@<TRIPOS>ATOM
      1  N        -43.8290  -50.5740   22.6010 N.3     7  ALA7       -0.1231
      2  CA       -42.4900  -50.0810   22.1350 C.3     7  ALA7        0.1694
      3  C        -42.1580  -48.7260   22.7830 C.2     7  ALA7        0.2592
      4  O        -42.9970  -47.8330   22.8410 O.2     7  ALA7       -0.2718
      5  CB       -42.4650  -49.9700   20.6120 C.3     7  ALA7        0.0304
      6  N        -40.9360  -48.5820   23.2810 N.am    8  ARG8       -0.1966
      7  CA       -40.5010  -47.2960   23.8370 C.3     8  ARG8        0.1728
      8  C        -39.0070  -47.1680   23.5840 C.2     8  ARG8        0.2616
      9  O        -38.3440  -48.1740   23.3220 O.2     8  ARG8       -0.2715
     10  CB       -40.8150  -47.2000   25.3370 C.3     8  ARG8        0.0334
     11  N        -38.4790  -45.9430   23.6240 N.am    9  LYS9       -0.1963
     12  CA       -37.0340  -45.7480   23.5340 C.3     9  LYS9        0.1728
     13  CB       -36.7380  -44.2550   23.6430 C.3     9  LYS9        0.0310
     14  CG       -35.2480  -43.9010   23.6530 C.3     9  LYS9        0.0001
     15  CD       -35.1340  -42.3840   23.6170 C.3     9  LYS9       -0.0222
     16  CE       -33.6810  -41.9490   23.7650 C.3     9  LYS9       -0.0733
     17  NZ       -33.5050  -40.4970   23.9850 N.4     9  LYS9        0.3857
     18  C        -36.3680  -46.5300   24.6470 C.2     9  LYS9        0.2617
     19  O        -36.9270  -46.6560   25.7620 O.2     9  LYS9       -0.2715
     20  CM1      -32.0550  -40.3010   24.2450 C.3     9  LYS9       -0.0960
     21  CM2      -34.3060  -39.9740   25.1240 C.3     9  LYS9       -0.0960
     22  CM3      -33.8270  -39.7370   22.7660 C.3     9  LYS9       -0.0960
     23  N        -35.1870  -47.0920   24.3650 N.am   10  SER10      -0.1936
     24  CA       -34.4430  -47.7710   25.4170 C.3    10  SER10       0.2055
     25  C        -32.9340  -47.6930   25.2240 C.2    10  SER10       0.2644
     26  O        -32.4430  -47.5350   24.0910 O.2    10  SER10      -0.2714
     27  CB       -34.9390  -49.2220   25.6220 C.3    10  SER10       0.2130
     28  OG       -34.4140  -50.0860   24.6450 O.3    10  SER10      -0.2179
     29  N        -32.2160  -47.7830   26.3430 N.am   11  THR11      -0.1936
     30  CA       -30.7360  -47.6520   26.3780 C.3    11  THR11       0.2028
     31  C        -29.9950  -48.8450   25.7670 C.2    11  THR11       0.2643
     32  O        -28.8830  -48.6810   25.2440 O.2    11  THR11      -0.2714
     33  CB       -30.2310  -47.3670   27.8350 C.3    11  THR11       0.1808
     34  OG1      -30.6820  -46.0630   28.2100 O.3    11  THR11      -0.2208
     35  CG2      -28.6410  -47.4360   27.9720 C.3    11  THR11       0.0379
     36  N        -30.6000  -50.0280   25.8350 N.am   12  GLY12      -0.1939
     37  CA       -29.9820  -51.2330   25.2790 C.3    12  GLY12       0.2014
     38  C        -30.8690  -52.4520   25.4230 C.2    12  GLY12       0.2639
     39  O        -32.0970  -52.3120   25.4720 O.2    12  GLY12      -0.2714
     40  N        -30.2490  -53.6360   25.5250 N.am   13  GLY13      -0.1954
     41  CA       -30.9750  -54.9230   25.5710 C.3    13  GLY13       0.1869
     42  C        -31.1180  -55.5790   26.9430 C.2    13  GLY13       0.2309
     43  O        -30.1470  -56.1040   27.5100 O.2    13  GLY13      -0.2863
@<TRIPOS>BOND
     1     5     2    1
     2     2     1    1
     3     2     3    1
     4    22    17    1
     5     3     4    2
     6     3     6   am
     7     6     7    1
     8     9     8    2
     9    12    11    1
    10    12    13    1
    11    12    18    1
    12     8    11   am
    13     8     7    1
    14    15    14    1
    15    15    16    1
    16    13    14    1
    17    16    17    1
    18     7    10    1
    19    17    20    1
    20    17    21    1
    21    26    25    2
    22    23    18   am
    23    23    24    1
    24    28    27    1
    25    18    19    2
    26    25    24    1
    27    25    29   am
    28    32    31    2
    29    37    38    1
    30    37    36    1
    31    24    27    1
    32    38    39    2
    33    38    40   am
    34    40    41    1
    35    41    42    1
    36    31    36   am
    37    31    30    1
    38    29    30    1
    39    30    33    1
    40    42    43    2
    41    33    35    1
    42    33    34    1
