@<TRIPOS>MOLECULE
4hov_HEM_A_1.pdb
 43 50 0 0 0
SMALL
GASTEIGER

@<TRIPOS>ATOM
      1  CHA       70.6890    7.0690   11.3240 C.2   401  HEM401      0.0000
      2  CHB       71.2010    2.2170   11.7930 C.2   401  HEM401      0.0000
      3  CHC       71.2060    1.8040    6.9070 C.2   401  HEM401      0.0000
      4  CHD       70.4560    6.5750    6.5200 C.2   401  HEM401      0.0000
      5  C1A       70.8420    5.7900   11.8450 C.2   401  HEM401      0.0000
      6  C2A       70.9800    5.5120   13.2300 C.2   401  HEM401      0.0000
      7  C3A       71.1210    4.1700   13.3760 C.2   401  HEM401      0.0000
      8  C4A       71.0630    3.5880   12.0770 C.2   401  HEM401      0.0000
      9  CMA       71.2680    3.3980   14.6790 C.3   401  HEM401      0.0000
     10  CAA       70.9740    6.5390   14.3470 C.3   401  HEM401      0.0000
     11  CBA       69.5720    6.9010   14.8610 C.3   401  HEM401      0.0000
     12  CGA       68.7680    7.6250   13.8200 C.2   401  HEM401      0.0000
     13  O1A       67.9940    6.9760   13.0520 O.co2 401  HEM401      0.0000
     14  O2A       68.8420    8.8760   13.7420 O.co2 401  HEM401      0.0000
     15  C1B       71.2530    1.6910   10.4850 C.ar  401  HEM401      0.0000
     16  C2B       71.4230    0.3060   10.1940 C.ar  401  HEM401      0.0000
     17  C3B       71.4220    0.1800    8.8250 C.ar  401  HEM401      0.0000
     18  C4B       71.2520    1.5480    8.2800 C.ar  401  HEM401      0.0000
     19  CMB       71.5710   -0.8010   11.2130 C.3   401  HEM401      0.0000
     20  CAB       71.5610   -1.0330    7.9730 C.2   401  HEM401      0.0000
     21  CBB       72.3600   -2.0510    8.2900 C.2   401  HEM401      0.0000
     22  C1C       71.0270    3.0670    6.3710 C.2   401  HEM401      0.0000
     23  C2C       71.0070    3.3650    4.9920 C.2   401  HEM401      0.0000
     24  C3C       70.7890    4.7310    4.8710 C.2   401  HEM401      0.0000
     25  C4C       70.6910    5.2490    6.2090 C.2   401  HEM401      0.0000
     26  CMC       71.1650    2.3490    3.8970 C.3   401  HEM401      0.0000
     27  CAC       70.7050    5.5490    3.6390 C.2   401  HEM401      0.0000
     28  CBC       70.3960    5.1000    2.4120 C.2   401  HEM401      0.0000
     29  C1D       70.4350    7.0250    7.8410 C.ar  401  HEM401      0.0000
     30  C2D       70.2220    8.4530    8.0850 C.ar  401  HEM401      0.0000
     31  C3D       70.2940    8.6130    9.4210 C.ar  401  HEM401      0.0000
     32  C4D       70.5570    7.2610    9.9670 C.ar  401  HEM401      0.0000
     33  CMD       69.9630    9.5220    7.0450 C.3   401  HEM401      0.0000
     34  CAD       70.1150    9.9290   10.1750 C.3   401  HEM401      0.0000
     35  CBD       71.4910   10.5880   10.3470 C.3   401  HEM401      0.0000
     36  CGD       71.3330   11.9870   10.8970 C.2   401  HEM401      0.0000
     37  O1D       70.9410   12.9300   10.1720 O.co2 401  HEM401      0.0000
     38  O2D       71.5540   12.2100   12.1020 O.co2 401  HEM401      0.0000
     39  NA        70.9440    4.6080   11.1450 N.2   401  HEM401      0.0000
     40  NB        71.1930    2.3780    9.3240 N.ar  401  HEM401      0.0000
     41  NC        70.8950    4.2260    7.0900 N.2   401  HEM401      0.0000
     42  ND        70.6520    6.3330    8.9870 N.ar  401  HEM401      0.0000
     43 FE         70.9180    4.4350    9.1560 Fe    401  HEM401      0.0000
@<TRIPOS>BOND
     1    28    27    2
     2    27    24    1
     3    26    23    1
     4    24    23    2
     5    24    25    1
     6    23    22    1
     7    25     4    1
     8    25    41    2
     9    22     3    2
    10    22    41    1
    11     4    29    2
    12     3    18    1
    13    33    30    1
    14    41    43    1
    15    29    30   ar
    16    29    42   ar
    17    20    21    2
    18    20    17    1
    19    30    31   ar
    20    18    17   ar
    21    18    40   ar
    22    17    16   ar
    23    42    43    1
    24    42    32   ar
    25    43    40    1
    26    43    39    1
    27    40    15   ar
    28    31    32   ar
    29    31    34    1
    30    32     1    2
    31    37    36   ar
    32    34    35    1
    33    16    15   ar
    34    16    19    1
    35    35    36    1
    36    15     2    1
    37    36    38   ar
    38    39     5    2
    39    39     8    1
    40     1     5    1
    41     2     8    2
    42     5     6    1
    43     8     7    1
    44    13    12   ar
    45     6     7    2
    46     6    10    1
    47     7     9    1
    48    14    12   ar
    49    12    11    1
    50    10    11    1
