@<TRIPOS>MOLECULE
4hp0_NOJ_A_1.pdb
 11 11 0 0 0
SMALL
GASTEIGER

@<TRIPOS>ATOM
      1  C1        23.6160    8.6300   -2.6920 C.3   201  NOJ201      0.1243
      2  C2        24.4030    8.8570   -3.9740 C.3   201  NOJ201      0.2020
      3  O2        24.4800   10.2670   -4.1840 O.3   201  NOJ201     -0.2188
      4  C3        23.7460    8.1510   -5.1600 C.3   201  NOJ201      0.2151
      5  O3        24.5050    8.3820   -6.3340 O.3   201  NOJ201     -0.2176
      6  C4        23.6930    6.6450   -4.9260 C.3   201  NOJ201      0.2031
      7  O4        23.0830    5.9390   -6.0110 O.3   201  NOJ201     -0.2187
      8  C5        22.8630    6.3870   -3.6900 C.3   201  NOJ201      0.1386
      9  N5        23.2940    7.2170   -2.5670 N.3   201  NOJ201     -0.2113
     10  C6        22.9620    4.9150   -3.3130 C.3   201  NOJ201      0.2020
     11  O6        24.2990    4.6870   -2.8740 O.3   201  NOJ201     -0.2188
@<TRIPOS>BOND
     1     5     4    1
     2     7     6    1
     3     4     6    1
     4     4     2    1
     5     6     8    1
     6     3     2    1
     7     2     1    1
     8     8    10    1
     9     8     9    1
    10    10    11    1
    11     1     9    1
