@<TRIPOS>MOLECULE
4hp8_NAP_A_1.pdb
 48 52 0 0 0
SMALL
GASTEIGER

@<TRIPOS>ATOM
      1  PA        23.9450   13.6100   18.3510 P.3   301  NAP301      0.2189
      2  O1A       23.6330   15.0380   18.0480 O.2   301  NAP301     -0.5170
      3  O2A       24.4500   13.3210   19.6790 O.3   301  NAP301     -0.4371
      4  O5B       24.9590   12.9810   17.3080 O.3   301  NAP301     -0.3112
      5  C5B       25.4200   13.6860   16.1750 C.3   301  NAP301      0.1813
      6  C4B       26.8490   13.1790   15.9460 C.3   301  NAP301      0.1820
      7  O4B       27.3460   13.8670   14.7990 O.3   301  NAP301     -0.3136
      8  C3B       27.7560   13.5630   17.0970 C.3   301  NAP301      0.2157
      9  O3B       28.7830   12.5730   17.1480 O.3   301  NAP301     -0.2175
     10  C2B       28.2950   14.8750   16.5790 C.3   301  NAP301      0.2314
     11  O2B       29.4950   15.3200   17.2480 O.3   301  NAP301     -0.2630
     12  C1B       28.5400   14.5660   15.1080 C.3   301  NAP301      0.3158
     13  N9A       28.7150   15.7710   14.3310 N.pl3 301  NAP301     -0.1439
     14  C8A       27.8730   16.8520   14.2250 C.3   301  NAP301      0.3377
     15  N7A       28.4470   17.8380   13.5290 N.2   301  NAP301     -0.2095
     16  C5A       29.6630   17.3750   13.1450 C.2   301  NAP301      0.2526
     17  C6A       30.6960   17.9470   12.4240 C.2   301  NAP301      0.4393
     18  N6A       30.6610   19.1980   11.9150 N.pl3 301  NAP301      0.2180
     19  N1A       31.8280   17.2080   12.2080 N.2   301  NAP301      0.0021
     20  C2A       31.9200   15.9320   12.7240 C.3   301  NAP301      0.5254
     21  N3A       30.9230   15.3500   13.4560 N.2   301  NAP301     -0.0055
     22  C4A       29.8360   16.0840   13.6520 C.2   301  NAP301      0.3518
     23  O3        22.6140   12.7990   18.0870 O.3   301  NAP301     -0.2703
     24  PN        22.3260   11.3710   17.4200 P.3   301  NAP301      0.2189
     25  O1N       23.2580   10.3270   17.8780 O.3   301  NAP301     -0.4371
     26  O2N       20.8740   11.1390   17.6830 O.2   301  NAP301     -0.5170
     27  O5D       22.5640   11.7060   15.8850 O.3   301  NAP301     -0.3112
     28  C5D       23.1900   10.7660   15.0050 C.3   301  NAP301      0.1813
     29  C4D       22.4570   10.7680   13.6780 C.3   301  NAP301      0.1799
     30  O4D       21.1430   10.2240   13.8690 O.3   301  NAP301     -0.3327
     31  C3D       22.2650   12.1650   13.0450 C.3   301  NAP301      0.2158
     32  O3D       22.4270   12.1360   11.6290 O.3   301  NAP301     -0.2175
     33  C2D       20.8280   12.4410   13.3780 C.3   301  NAP301      0.2309
     34  O2D       20.2530   13.3390   12.4570 O.3   301  NAP301     -0.2158
     35  C1D       20.2520   11.0540   13.1730 C.3   301  NAP301      0.2263
     36  N1N       18.9260   10.8190   13.7370 N.pl3 301  NAP301     -0.2787
     37  C2N       18.6560   10.9150   15.0810 C.3   301  NAP301      0.1244
     38  C3N       17.4010   10.6550   15.5720 C.2   301  NAP301      0.0544
     39  C7N       17.1360   10.6180   16.9920 C.2   301  NAP301      0.2818
     40  O7N       18.1400   10.6280   17.9460 O.2   301  NAP301     -0.2670
     41  N7N       15.8840   10.5240   17.3520 N.am  301  NAP301     -0.0839
     42  C4N       16.3420   10.3170   14.7160 C.2   301  NAP301      0.0033
     43  C5N       16.6650   10.1610   13.3710 C.2   301  NAP301      0.0157
     44  C6N       17.9410   10.3830   12.8720 C.2   301  NAP301      0.0633
     45  P2B       29.4410   16.0980   18.6710 P.3   301  NAP301      0.5328
     46  O1X       30.8140   16.6580   18.7830 O.3   301  NAP301     -0.1145
     47  O2X       28.3620   17.1550   18.5670 O.2   301  NAP301     -0.2224
     48  O3X       29.1160   15.0850   19.7030 O.3   301  NAP301     -0.1145
@<TRIPOS>BOND
     1    32    31    1
     2    18    17    1
     3    19    17    2
     4    19    20    1
     5    17    16    1
     6    34    33    1
     7    20    21    1
     8    44    43    2
     9    44    36    1
    10    31    33    1
    11    31    29    1
    12    16    15    2
    13    16    22    1
    14    35    33    1
    15    35    36    1
    16    35    30    1
    17    43    42    1
    18    21    22    2
    19    15    14    1
    20    22    13    1
    21    29    30    1
    22    29    28    1
    23    36    37    1
    24    14    13    1
    25    13    12    1
    26    42    38    2
    27     7    12    1
    28     7     6    1
    29    28    27    1
    30    37    38    1
    31    12    10    1
    32    38    39    1
    33    27    24    1
    34     6     5    1
    35     6     8    1
    36     5     4    1
    37    10     8    1
    38    10    11    1
    39    39    41   am
    40    39    40    2
    41     8     9    1
    42    11    45    1
    43     4     1    1
    44    24    26    2
    45    24    25    1
    46    24    23    1
    47     2     1    2
    48    23     1    1
    49     1     3    1
    50    47    45    2
    51    45    46    1
    52    45    48    1
