@<TRIPOS>MOLECULE
4hpi_NOJ_A_1.pdb
 11 11 0 0 0
SMALL
GASTEIGER

@<TRIPOS>ATOM
      1  C1       -23.7840   -8.7890   -3.8840 C.3   201  NOJ201      0.1243
      2  C2       -24.8820   -8.7590   -4.9460 C.3   201  NOJ201      0.2020
      3  O2       -25.0600  -10.0660   -5.5070 O.3   201  NOJ201     -0.2188
      4  C3       -24.5170   -7.8060   -6.0740 C.3   201  NOJ201      0.2151
      5  O3       -25.6230   -7.7520   -6.9880 O.3   201  NOJ201     -0.2176
      6  C4       -24.1760   -6.3970   -5.5690 C.3   201  NOJ201      0.2031
      7  O4       -23.5260   -5.6800   -6.6200 O.3   201  NOJ201     -0.2187
      8  C5       -23.2310   -6.3640   -4.3570 C.3   201  NOJ201      0.1386
      9  N5       -23.4830   -7.4470   -3.4160 N.3   201  NOJ201     -0.2113
     10  C6       -23.2830   -5.0280   -3.6080 C.3   201  NOJ201      0.2020
     11  O6       -24.5180   -4.8680   -2.8930 O.3   201  NOJ201     -0.2188
@<TRIPOS>BOND
     1     5     4    1
     2     7     6    1
     3     4     6    1
     4     4     2    1
     5     6     8    1
     6     3     2    1
     7     2     1    1
     8     8    10    1
     9     8     9    1
    10     1     9    1
    11    10    11    1
