@<TRIPOS>MOLECULE
4hpo_FUC_L_1.pdb
 10 10 0 0 0
SMALL
GASTEIGER

@<TRIPOS>ATOM
      1  C1       -12.3340   -9.9740  -25.5240 C.3   302  FUC302      0.1776
      2  C2       -13.7960  -10.0850  -25.9530 C.3   302  FUC302      0.2141
      3  C3       -14.7120   -9.7810  -24.7850 C.3   302  FUC302      0.2172
      4  C4       -14.3720   -8.4220  -24.1960 C.3   302  FUC302      0.2116
      5  C5       -12.8810   -8.3660  -23.8750 C.3   302  FUC302      0.1483
      6  C6       -12.5210   -6.9640  -23.4010 C.3   302  FUC302      0.0349
      7  O2       -14.0610  -11.4050  -26.3720 O.3   302  FUC302     -0.2176
      8  O3       -16.0650   -9.8280  -25.2230 O.3   302  FUC302     -0.2175
      9  O4       -14.6740   -7.3900  -25.1090 O.3   302  FUC302     -0.2177
     10  O5       -12.0880   -8.6820  -25.0050 O.3   302  FUC302     -0.3508
@<TRIPOS>BOND
     1     7     2    1
     2     2     1    1
     3     2     3    1
     4     1    10    1
     5     8     3    1
     6     9     4    1
     7    10     5    1
     8     3     4    1
     9     4     5    1
    10     5     6    1
