@<TRIPOS>MOLECULE
4hpp_GLU_A_1.pdb
 10 9 0 0 0
SMALL
GASTEIGER

@<TRIPOS>ATOM
      1  N         37.9140   12.8940    4.5840 N.3   503  GLU503     -0.1208
      2  CA        39.4070   13.1590    4.5000 C.3   503  GLU503      0.1949
      3  C         40.2990   11.9260    4.2280 C.2   503  GLU503      0.3819
      4  O         39.9990   11.0890    3.3850 O.co2 503  GLU503     -0.2441
      5  CB        39.8880   13.8520    5.7680 C.3   503  GLU503      0.0424
      6  CG        39.3980   15.2680    5.9000 C.3   503  GLU503      0.1161
      7  CD        39.7030   15.8420    7.2440 C.2   503  GLU503      0.3649
      8  OE1       40.5130   16.7810    7.2770 O.co2 503  GLU503     -0.2457
      9  OE2       39.1520   15.3480    8.2580 O.co2 503  GLU503     -0.2457
     10  OXT       41.3460   11.7160    4.8510 O.co2 503  GLU503     -0.2441
@<TRIPOS>BOND
     1     4     3   ar
     2     3     2    1
     3     3    10   ar
     4     2     1    1
     5     2     5    1
     6     5     6    1
     7     6     7    1
     8     7     8   ar
     9     7     9   ar
