@<TRIPOS>MOLECULE
4hql_FUC_B_1.pdb
 10 10 0 0 0
SMALL
GASTEIGER

@<TRIPOS>ATOM
      1  C1       -12.0850  -17.2130   13.6180 C.3   302  FUC302      0.1776
      2  C2       -11.6500  -16.0290   14.5170 C.3   302  FUC302      0.2141
      3  C3       -12.7440  -14.9880   14.6370 C.3   302  FUC302      0.2172
      4  C4       -14.0760  -15.6310   15.0620 C.3   302  FUC302      0.2116
      5  C5       -14.4500  -16.7050   14.0440 C.3   302  FUC302      0.1483
      6  C6       -15.7180  -17.4660   14.4350 C.3   302  FUC302      0.0349
      7  O2       -10.4760  -15.3960   14.0250 O.3   302  FUC302     -0.2176
      8  O3       -12.3820  -14.0340   15.6090 O.3   302  FUC302     -0.2175
      9  O4       -13.9290  -16.2390   16.3040 O.3   302  FUC302     -0.2177
     10  O5       -13.3910  -17.7030   13.8970 O.3   302  FUC302     -0.3508
@<TRIPOS>BOND
     1     1    10    1
     2     1     2    1
     3    10     5    1
     4     7     2    1
     5     5     6    1
     6     5     4    1
     7     2     3    1
     8     3     4    1
     9     3     8    1
    10     4     9    1
