@<TRIPOS>MOLECULE
4hql_BGC_A_1.pdb
 11 11 0 0 0
SMALL
GASTEIGER

@<TRIPOS>ATOM
      1  C2         6.2460  -57.8900  -68.8830 C.3   303  BGC303      0.2141
      2  C3         5.1190  -56.9120  -69.1880 C.3   303  BGC303      0.2173
      3  C4         4.9040  -55.9610  -68.0160 C.3   303  BGC303      0.2142
      4  C5         6.2340  -55.3480  -67.5910 C.3   303  BGC303      0.1810
      5  C6         6.0540  -54.4030  -66.4050 C.3   303  BGC303      0.2141
      6  C1         7.4740  -57.1720  -68.3570 C.3   303  BGC303      0.1777
      7  O2         6.6030  -58.6090  -70.0410 O.3   303  BGC303     -0.2176
      8  O3         3.9160  -57.6070  -69.4520 O.3   303  BGC303     -0.2175
      9  O4         3.9970  -54.9410  -68.3720 O.3   303  BGC303     -0.2176
     10  O5         7.1440  -56.3700  -67.2580 O.3   303  BGC303     -0.3481
     11  O6         7.3220  -53.9960  -65.9420 O.3   303  BGC303     -0.2176
@<TRIPOS>BOND
     1     7     1    1
     2     8     2    1
     3     2     1    1
     4     2     3    1
     5     1     6    1
     6     9     3    1
     7     6    10    1
     8     3     4    1
     9     4    10    1
    10     4     5    1
    11     5    11    1
