@<TRIPOS>MOLECULE
4hqm_17Z_A_1.pdb
 13 14 0 0 0
SMALL
GASTEIGER

@<TRIPOS>ATOM
      1  C8       -48.4590   29.6620  -14.0030 C.ar  201  17Z201      0.0409
      2  C13      -47.4810   28.5500  -13.8740 C.ar  201  17Z201      0.1955
      3  O20      -47.1020   28.1270  -12.6360 O.3   201  17Z201     -0.2866
      4  C12      -46.9240   27.8820  -15.0820 C.ar  201  17Z201      0.0420
      5  C17      -46.0130   26.8350  -14.9540 C.ar  201  17Z201      0.0033
      6  C16      -45.5090   26.2340  -16.1040 C.ar  201  17Z201      0.0001
      7  C15      -45.9010   26.6620  -17.3740 C.ar  201  17Z201      0.0001
      8  C14      -46.8120   27.7030  -17.5510 C.ar  201  17Z201      0.0033
      9  C11      -47.3460   28.3390  -16.4350 C.ar  201  17Z201      0.0417
     10  C10      -48.3230   29.4590  -16.5730 C.ar  201  17Z201      0.1918
     11  O19      -48.7100   29.8800  -17.8120 O.3   201  17Z201     -0.2869
     12  C9       -48.8830   30.1290  -15.3660 C.ar  201  17Z201      0.0202
     13  C18      -49.8640   31.2600  -15.5930 C.3   201  17Z201      0.0345
@<TRIPOS>BOND
     1    11    10    1
     2     8     7   ar
     3     8     9   ar
     4     7     6   ar
     5    10     9   ar
     6    10    12   ar
     7     9     4   ar
     8     6     5   ar
     9    13    12    1
    10    12     1   ar
    11     4     5   ar
    12     4     2   ar
    13     1     2   ar
    14     2     3    1
