@<TRIPOS>MOLECULE
4hqn_FUC_B_1.pdb
 10 10 0 0 0
SMALL
GASTEIGER

@<TRIPOS>ATOM
      1  C1       -12.2170  -16.8390   13.6150 C.3   302  FUC302      0.1776
      2  C2       -11.7760  -15.6620   14.5430 C.3   302  FUC302      0.2141
      3  C3       -12.8880  -14.6690   14.6880 C.3   302  FUC302      0.2172
      4  C4       -14.1950  -15.3790   15.1600 C.3   302  FUC302      0.2116
      5  C5       -14.5420  -16.4490   14.1360 C.3   302  FUC302      0.1483
      6  C6       -15.7760  -17.2770   14.4920 C.3   302  FUC302      0.0349
      7  O2       -10.6140  -14.9680   14.0550 O.3   302  FUC302     -0.2176
      8  O3       -12.4830  -13.6920   15.6240 O.3   302  FUC302     -0.2175
      9  O4       -14.0200  -16.0090   16.4140 O.3   302  FUC302     -0.2177
     10  O5       -13.4450  -17.3970   13.9590 O.3   302  FUC302     -0.3508
@<TRIPOS>BOND
     1     1    10    1
     2     1     2    1
     3    10     5    1
     4     7     2    1
     5     5     6    1
     6     5     4    1
     7     2     3    1
     8     3     4    1
     9     3     8    1
    10     4     9    1
