@<TRIPOS>MOLECULE
4hqn_BGC_A_1.pdb
 11 11 0 0 0
SMALL
GASTEIGER

@<TRIPOS>ATOM
      1  C2         6.5020  -57.1760  -68.7730 C.3   303  BGC303      0.2141
      2  C3         5.2540  -56.3610  -69.1050 C.3   303  BGC303      0.2173
      3  C4         5.0490  -55.1990  -68.1340 C.3   303  BGC303      0.2142
      4  C5         6.3570  -54.4370  -67.9530 C.3   303  BGC303      0.1810
      5  C6         6.2150  -53.2260  -67.0340 C.3   303  BGC303      0.2141
      6  C1         7.6930  -56.2950  -68.4070 C.3   303  BGC303      0.1777
      7  O2         6.8500  -57.9570  -69.8960 O.3   303  BGC303     -0.2176
      8  O3         4.1240  -57.2100  -69.0880 O.3   303  BGC303     -0.2175
      9  O4         4.0550  -54.3290  -68.6230 O.3   303  BGC303     -0.2176
     10  O5         7.3210  -55.3270  -67.4460 O.3   303  BGC303     -0.3481
     11  O6         6.8110  -53.5120  -65.7890 O.3   303  BGC303     -0.2176
@<TRIPOS>BOND
     1     7     1    1
     2     2     8    1
     3     2     1    1
     4     2     3    1
     5     1     6    1
     6     9     3    1
     7     6    10    1
     8     3     4    1
     9     4    10    1
    10     4     5    1
    11     5    11    1
