@<TRIPOS>MOLECULE
4hqo_FUC_A_1.pdb
 10 10 0 0 0
SMALL
GASTEIGER

@<TRIPOS>ATOM
      1  C1        12.1420  -58.3390  -69.8510 C.3   302  FUC302      0.1776
      2  C2        10.7090  -58.7920  -70.1100 C.3   302  FUC302      0.2141
      3  C3        10.1620  -58.1510  -71.3900 C.3   302  FUC302      0.2172
      4  C4        11.1100  -58.3950  -72.5870 C.3   302  FUC302      0.2116
      5  C5        12.5650  -58.0470  -72.2200 C.3   302  FUC302      0.1483
      6  C6        13.5720  -58.5540  -73.2520 C.3   302  FUC302      0.0349
      7  O2         9.8470  -58.5380  -69.0050 O.3   302  FUC302     -0.2176
      8  O3         8.8990  -58.7410  -71.7210 O.3   302  FUC302     -0.2175
      9  O4        11.0170  -59.7540  -73.0200 O.3   302  FUC302     -0.2177
     10  O5        12.9620  -58.6250  -70.9550 O.3   302  FUC302     -0.3508
@<TRIPOS>BOND
     1     6     5    1
     2     9     4    1
     3     4     5    1
     4     4     3    1
     5     5    10    1
     6     8     3    1
     7     3     2    1
     8    10     1    1
     9     2     1    1
    10     2     7    1
