@<TRIPOS>MOLECULE
4hqo_BGC_A_1.pdb
 11 11 0 0 0
SMALL
GASTEIGER

@<TRIPOS>ATOM
      1  C2         6.9480  -58.5030  -73.0020 C.3   303  BGC303      0.2141
      2  C3         5.7620  -57.6220  -73.3790 C.3   303  BGC303      0.2173
      3  C4         5.3060  -56.7660  -72.1960 C.3   303  BGC303      0.2142
      4  C5         6.4820  -56.0780  -71.5000 C.3   303  BGC303      0.1810
      5  C6         6.0190  -55.3640  -70.2320 C.3   303  BGC303      0.2141
      6  C1         8.0260  -57.6750  -72.3150 C.3   303  BGC303      0.1777
      7  O2         7.4770  -59.1090  -74.1610 O.3   303  BGC303     -0.2176
      8  O3         4.7030  -58.4320  -73.8420 O.3   303  BGC303     -0.2175
      9  O4         4.4380  -55.7620  -72.6710 O.3   303  BGC303     -0.2176
     10  O5         7.4960  -57.0100  -71.1830 O.3   303  BGC303     -0.3481
     11  O6         7.0940  -54.6510  -69.6540 O.3   303  BGC303     -0.2176
@<TRIPOS>BOND
     1     7     1    1
     2     8     2    1
     3     2     1    1
     4     2     3    1
     5     1     6    1
     6     9     3    1
     7     6    10    1
     8     3     4    1
     9     4    10    1
    10     4     5    1
    11     5    11    1
