@<TRIPOS>MOLECULE
4hqv_QEI_A_1.pdb
 13 14 0 0 0
SMALL
GASTEIGER

@<TRIPOS>ATOM
      1  C6        19.2320   16.7630   20.1730 C.3   406  QEI406      0.1351
      2  C9        17.1270   16.3620   21.6370 C.3   406  QEI406      0.2372
      3  C10       15.8120   16.0040   21.3630 C.1   406  QEI406      0.0973
      4  C11       17.5130   16.5780   22.9620 C.1   406  QEI406      0.2101
      5  N1        19.5380   16.5110   18.7580 N.3   406  QEI406     -0.1264
      6  C7        17.7850   16.4190   20.4140 C.2   406  QEI406      0.0258
      7  C8        16.8610   16.0960   19.4300 C.2   406  QEI406      0.1053
      8  N2        15.6760   15.8500   20.0320 N.2   406  QEI406     -0.1847
      9  N3        14.9310   15.8760   22.3870 N.2   406  QEI406     -0.2733
     10  C12       15.3360   16.0930   23.6600 C.1   406  QEI406      0.2602
     11  N5        14.3600   15.9470   24.7740 N.pl3 406  QEI406     -0.0221
     12  N4        16.6050   16.4360   23.9350 N.2   406  QEI406     -0.2525
     13  O3        18.6880   16.9000   23.2590 O.2   406  QEI406     -0.2120
@<TRIPOS>BOND
     1     5     1    1
     2     7     8    1
     3     7     6    2
     4     8     3    2
     5     1     6    1
     6     6     2    1
     7     3     2    1
     8     3     9    2
     9     2     4    1
    10     9    10    2
    11     4    13    2
    12     4    12    2
    13    10    12    2
    14    10    11    1
