@<TRIPOS>MOLECULE
4hr2_ADP_A_1.pdb
 27 29 0 0 0
SMALL
GASTEIGER

@<TRIPOS>ATOM
      1  PB        13.6300   12.4010   11.8950 P.3   601  ADP601      0.5373
      2  O1B       13.2400   13.0810   10.5830 O.2   601  ADP601     -0.2221
      3  O2B       15.1290   12.1760   12.0500 O.3   601  ADP601     -0.1143
      4  O3B       13.0140   13.0880   13.1030 O.3   601  ADP601     -0.1143
      5  PA        13.4730    9.5890   11.1200 P.3   601  ADP601      0.2231
      6  O1A       14.8610    9.7950   10.5430 O.2   601  ADP601     -0.5169
      7  O2A       13.2010    8.4140   12.0580 O.3   601  ADP601     -0.4370
      8  O3A       12.9490   10.9380   11.8700 O.3   601  ADP601     -0.2261
      9  O5'       12.4800    9.4030    9.8730 O.3   601  ADP601     -0.3111
     10  C5'       12.6810   10.2260    8.7230 C.3   601  ADP601      0.1813
     11  C4'       11.3490   10.7370    8.2250 C.3   601  ADP601      0.1821
     12  O4'       10.5040    9.6480    7.8420 O.3   601  ADP601     -0.3135
     13  C3'       10.5550   11.5330    9.2450 C.3   601  ADP601      0.2184
     14  O3'       11.0140   12.8680    9.4640 O.3   601  ADP601     -0.2174
     15  C2'        9.1850   11.4610    8.6230 C.3   601  ADP601      0.2570
     16  O2'        9.0360   12.4580    7.5790 O.3   601  ADP601     -0.2130
     17  C1'        9.1440   10.0370    8.0550 C.3   601  ADP601      0.3186
     18  N9         8.4400    9.1120    8.9990 N.pl3 601  ADP601     -0.1439
     19  C8         8.9610    8.5700   10.1220 C.3   601  ADP601      0.3377
     20  N7         8.0370    7.8140   10.7480 N.2   601  ADP601     -0.2095
     21  C5         6.9080    7.8590   10.0120 C.2   601  ADP601      0.2526
     22  C6         5.5530    7.2740   10.1070 C.2   601  ADP601      0.4393
     23  N6         5.2850    6.4620   11.1690 N.pl3 601  ADP601      0.2180
     24  N1         4.6370    7.5690    9.1340 N.2   601  ADP601      0.0021
     25  C2         4.9370    8.3780    8.0940 C.3   601  ADP601      0.5254
     26  N3         6.1630    8.9500    7.9680 N.2   601  ADP601     -0.0055
     27  C4         7.1670    8.7200    8.8610 C.2   601  ADP601      0.3518
@<TRIPOS>BOND
     1    16    15    1
     2    12    17    1
     3    12    11    1
     4    26    25    1
     5    26    27    2
     6    17    15    1
     7    17    18    1
     8    25    24    1
     9    11    10    1
    10    11    13    1
    11    15    13    1
    12    10     9    1
    13    27    18    1
    14    27    21    1
    15    18    19    1
    16    24    22    2
    17    13    14    1
    18     9     5    1
    19    21    22    1
    20    21    20    2
    21    22    23    1
    22    19    20    1
    23     6     5    2
    24     2     1    2
    25     5     8    1
    26     5     7    1
    27     8     1    1
    28     1     3    1
    29     1     4    1
