@<TRIPOS>MOLECULE
4hrt_HEM_A_1.pdb
 43 50 0 0 0
SMALL
GASTEIGER

@<TRIPOS>ATOM
      1  CHA        6.1030   81.0600   66.5550 C.2   201  HEM201      0.0000
      2  CHB        5.3380   81.9760   61.8490 C.2   201  HEM201      0.0000
      3  CHC        4.8490   86.7340   62.8940 C.2   201  HEM201      0.0000
      4  CHD        5.2420   85.7440   67.6120 C.2   201  HEM201      0.0000
      5  C1A        5.8660   80.8820   65.1920 C.ar  201  HEM201      0.0000
      6  C2A        5.9700   79.6360   64.5070 C.ar  201  HEM201      0.0000
      7  C3A        5.7670   79.8960   63.1730 C.ar  201  HEM201      0.0000
      8  C4A        5.5330   81.2980   63.0570 C.ar  201  HEM201      0.0000
      9  CMA        5.7480   78.8940   62.0220 C.3   201  HEM201      0.0000
     10  CAA        6.2220   78.2530   65.0950 C.3   201  HEM201      0.0000
     11  CBA        4.8910   77.5050   65.3480 C.3   201  HEM201      0.0000
     12  CGA        4.1100   78.1360   66.4720 C.2   201  HEM201      0.0000
     13  O1A        4.4890   77.9920   67.6510 O.co2 201  HEM201      0.0000
     14  O2A        3.0770   78.8030   66.2530 O.co2 201  HEM201      0.0000
     15  C1B        5.2290   83.3800   61.7200 C.2   201  HEM201      0.0000
     16  C2B        5.1530   84.0690   60.4530 C.2   201  HEM201      0.0000
     17  C3B        5.0340   85.4090   60.7390 C.2   201  HEM201      0.0000
     18  C4B        5.0110   85.5080   62.2280 C.2   201  HEM201      0.0000
     19  CMB        5.2330   83.4260   59.0770 C.3   201  HEM201      0.0000
     20  CAB        4.9250   86.5870   59.8410 C.2   201  HEM201      0.0000
     21  CBB        5.4810   86.6380   58.6270 C.2   201  HEM201      0.0000
     22  C1C        4.8680   86.8910   64.2840 C.ar  201  HEM201      0.0000
     23  C2C        4.8630   88.1400   64.9450 C.ar  201  HEM201      0.0000
     24  C3C        4.9570   87.8570   66.3180 C.ar  201  HEM201      0.0000
     25  C4C        5.0430   86.4290   66.4300 C.ar  201  HEM201      0.0000
     26  CMC        4.7380   89.4920   64.2720 C.3   201  HEM201      0.0000
     27  CAC        4.9760   88.8030   67.4750 C.2   201  HEM201      0.0000
     28  CBC        4.4300   90.0200   67.4540 C.2   201  HEM201      0.0000
     29  C1D        5.6240   84.3900   67.6400 C.2   201  HEM201      0.0000
     30  C2D        6.1070   83.7690   68.9060 C.2   201  HEM201      0.0000
     31  C3D        6.3400   82.4690   68.6180 C.2   201  HEM201      0.0000
     32  C4D        6.0110   82.3190   67.1650 C.2   201  HEM201      0.0000
     33  CMD        6.2650   84.4640   70.2450 C.3   201  HEM201      0.0000
     34  CAD        6.8890   81.4060   69.5530 C.3   201  HEM201      0.0000
     35  CBD        8.4240   81.6740   69.5880 C.3   201  HEM201      0.0000
     36  CGD        9.2980   80.6900   70.3550 C.2   201  HEM201      0.0000
     37  O1D        9.3460   80.7390   71.6020 O.co2 201  HEM201      0.0000
     38  O2D       10.0230   79.8360   69.7860 O.co2 201  HEM201      0.0000
     39  NA         5.5260   81.8900   64.3130 N.ar  201  HEM201      0.0000
     40  NB         5.0020   84.2520   62.7300 N.2   201  HEM201      0.0000
     41  NC         4.9480   85.8650   65.1840 N.ar  201  HEM201      0.0000
     42  ND         5.4610   83.4690   66.6260 N.2   201  HEM201      0.0000
     43 FE          5.1920   83.8350   64.7540 Fe    201  HEM201      0.0000
@<TRIPOS>BOND
     1    21    20    2
     2    19    16    1
     3    20    17    1
     4    16    17    2
     5    16    15    1
     6    17    18    1
     7    15     2    1
     8    15    40    2
     9     2     8    2
    10     9     7    1
    11    18    40    1
    12    18     3    2
    13    40    43    1
    14     3    22    1
    15     8     7   ar
    16     8    39   ar
    17     7     6   ar
    18    26    23    1
    19    22    23   ar
    20    22    41   ar
    21    39    43    1
    22    39     5   ar
    23     6    10    1
    24     6     5   ar
    25    43    41    1
    26    43    42    1
    27    23    24   ar
    28    10    11    1
    29    41    25   ar
    30     5     1    2
    31    11    12    1
    32    14    12   ar
    33    24    25   ar
    34    24    27    1
    35    25     4    1
    36    12    13   ar
    37     1    32    1
    38    42    32    2
    39    42    29    1
    40    32    31    1
    41    28    27    2
    42     4    29    2
    43    29    30    1
    44    31    30    2
    45    31    34    1
    46    30    33    1
    47    34    35    1
    48    35    36    1
    49    38    36   ar
    50    36    37   ar
