@<TRIPOS>MOLECULE
4hs4_FMN_B_1.pdb
 31 33 0 0 0
SMALL
GASTEIGER

@<TRIPOS>ATOM
      1  N1       -21.1540  -12.8420   78.5140 N.2   201  FMN201     -0.2887
      2  C2       -19.8310  -13.2130   78.3480 C.1   201  FMN201      0.3669
      3  O2       -18.9790  -12.8510   79.1650 O.2   201  FMN201     -0.1744
      4  N3       -19.4610  -13.9970   77.2700 N.2   201  FMN201     -0.2300
      5  C4       -20.4050  -14.4110   76.3500 C.1   201  FMN201      0.2513
      6  O4       -20.0600  -15.1060   75.3880 O.2   201  FMN201     -0.2057
      7  C4A      -21.7410  -14.0430   76.5230 C.2   201  FMN201      0.2706
      8  N5       -22.7050  -14.4470   75.6210 N.2   201  FMN201     -0.3841
      9  C5A      -24.0280  -14.0730   75.7710 C.2   201  FMN201      0.1452
     10  C6       -24.9810  -14.4880   74.8380 C.2   201  FMN201      0.0252
     11  C7       -26.3130  -14.1150   74.9820 C.2   201  FMN201     -0.0375
     12  C7M      -27.3190  -14.5690   73.9660 C.3   201  FMN201      0.0268
     13  C8       -26.6920  -13.3280   76.0660 C.3   201  FMN201      0.0417
     14  C8M      -28.1220  -12.9120   76.2360 C.3   201  FMN201      0.0091
     15  C9       -25.7410  -12.9140   77.0000 C.2   201  FMN201     -0.0049
     16  C9A      -24.4020  -13.2800   76.8560 C.2   201  FMN201      0.0795
     17  N10      -23.4370  -12.8700   77.7690 N.pl3 201  FMN201     -0.2545
     18  C10      -22.1150  -13.2530   77.6070 C.2   201  FMN201      0.2449
     19  C1'      -23.8030  -12.0430   78.9650 C.3   201  FMN201      0.1336
     20  C2'      -23.9320  -10.5610   78.6760 C.3   201  FMN201      0.2048
     21  O2'      -22.6540   -9.9640   78.6680 O.3   201  FMN201     -0.2185
     22  C3'      -24.7820   -9.9600   79.7830 C.3   201  FMN201      0.2165
     23  O3'      -26.1330  -10.2880   79.5470 O.3   201  FMN201     -0.2175
     24  C4'      -24.6330   -8.4550   79.7840 C.3   201  FMN201      0.2147
     25  O4'      -25.2120   -7.8970   80.9520 O.3   201  FMN201     -0.2176
     26  C5'      -25.3490   -7.9370   78.5500 C.3   201  FMN201      0.1892
     27  O5'      -25.0400   -6.5720   78.4250 O.3   201  FMN201     -0.2674
     28  P        -26.1360   -5.4980   78.8700 P.3   201  FMN201      0.5327
     29  O1P      -26.2710   -5.5780   80.3800 O.3   201  FMN201     -0.1145
     30  O2P      -25.6410   -4.1180   78.4620 O.3   201  FMN201     -0.1145
     31  O3P      -27.4780   -5.7920   78.2110 O.2   201  FMN201     -0.2224
@<TRIPOS>BOND
     1    12    11    1
     2    10    11    2
     3    10     9    1
     4    11    13    1
     5     6     5    2
     6     8     9    2
     7     8     7    2
     8     9    16    1
     9    13    14    1
    10    13    15    1
    11     5     7    1
    12     5     4    2
    13     7    18    1
    14    16    15    2
    15    16    17    1
    16     4     2    2
    17    18    17    1
    18    18     1    2
    19    17    19    1
    20    31    28    2
    21     2     1    2
    22     2     3    2
    23    27    26    1
    24    27    28    1
    25    30    28    1
    26    26    24    1
    27    21    20    1
    28    20    19    1
    29    20    22    1
    30    28    29    1
    31    23    22    1
    32    22    24    1
    33    24    25    1
