@<TRIPOS>MOLECULE
4hse_ADP_A_1.pdb
 27 29 0 0 0
SMALL
GASTEIGER

@<TRIPOS>ATOM
      1  PB         2.1760   10.4210  -14.9940 P.3   602  ADP602      0.5373
      2  O1B        0.9550    9.8830  -15.7150 O.2   602  ADP602     -0.2221
      3  O2B        2.0580   11.8640  -14.6390 O.3   602  ADP602     -0.1143
      4  O3B        2.6480    9.4780  -13.9190 O.3   602  ADP602     -0.1143
      5  PA         4.3610   11.5010  -16.5020 P.3   602  ADP602      0.2231
      6  O1A        3.6670   12.7060  -17.0750 O.2   602  ADP602     -0.5169
      7  O2A        5.2620   11.6850  -15.3180 O.3   602  ADP602     -0.4370
      8  O3A        3.3200   10.3380  -16.1310 O.3   602  ADP602     -0.2261
      9  O5'        5.1400   10.7530  -17.7030 O.3   602  ADP602     -0.3111
     10  C5'        6.0610    9.6820  -17.4660 C.3   602  ADP602      0.1813
     11  C4'        7.4070    9.9960  -18.1240 C.3   602  ADP602      0.1821
     12  O4'        7.2540    9.9100  -19.5410 O.3   602  ADP602     -0.3135
     13  C3'        7.8710   11.4260  -17.8350 C.3   602  ADP602      0.2184
     14  O3'        9.3000   11.4840  -17.8900 O.3   602  ADP602     -0.2174
     15  C2'        7.3370   12.2350  -18.9940 C.3   602  ADP602      0.2570
     16  O2'        8.1340   13.4030  -19.2510 O.3   602  ADP602     -0.2130
     17  C1'        7.3740   11.2230  -20.1200 C.3   602  ADP602      0.3186
     18  N9         6.2760   11.4170  -21.0890 N.pl3 602  ADP602     -0.1439
     19  C8         5.0200   10.9290  -20.9850 C.3   602  ADP602      0.3377
     20  N7         4.2850   11.2910  -22.0580 N.2   602  ADP602     -0.2095
     21  C5         5.0870   12.0190  -22.8690 C.2   602  ADP602      0.2526
     22  C6         4.9510   12.7090  -24.1650 C.2   602  ADP602      0.4393
     23  N6         3.7700   12.6850  -24.8280 N.pl3 602  ADP602      0.2180
     24  N1         6.0400   13.3650  -24.6550 N.2   602  ADP602      0.0021
     25  C2         7.2240   13.4050  -24.0050 C.3   602  ADP602      0.5254
     26  N3         7.4120   12.7850  -22.8220 N.2   602  ADP602     -0.0055
     27  C4         6.4030   12.0980  -22.2260 C.2   602  ADP602      0.3518
@<TRIPOS>BOND
     1    23    22    1
     2    24    22    2
     3    24    25    1
     4    22    21    1
     5    25    26    1
     6    21    27    1
     7    21    20    2
     8    26    27    2
     9    27    18    1
    10    20    19    1
    11    18    19    1
    12    18    17    1
    13    17    12    1
    14    17    15    1
    15    12    11    1
    16    16    15    1
    17    15    13    1
    18    11    13    1
    19    11    10    1
    20    14    13    1
    21     9    10    1
    22     9     5    1
    23     6     5    2
    24     5     8    1
    25     5     7    1
    26     8     1    1
    27     2     1    2
    28     1     3    1
    29     1     4    1
