@<TRIPOS>MOLECULE
4hsg_KTD_A_1.pdb
 22 24 0 0 0
SMALL
GASTEIGER

@<TRIPOS>ATOM
      1  CAJ       -1.4140   -5.3520   29.4270 C.ar  601  KTD601      0.0262
      2  CAV       -0.9150   -5.7190   28.2210 C.ar  601  KTD601      0.0697
      3  SAP       -1.6730   -6.4270   26.7910 S.2   601  KTD601      0.0373
      4  N1        -0.2570   -6.4970   25.9210 N.ar  601  KTD601     -0.1094
      5  N2         0.7100   -6.0090   26.6600 N.ar  601  KTD601     -0.1405
      6  CAU        0.3980   -5.5780   27.9110 C.ar  601  KTD601      0.1109
      7  CAI        1.2290   -5.0610   28.8210 C.ar  601  KTD601      0.0228
      8  CAH        0.7690   -4.6600   30.0740 C.ar  601  KTD601      0.0183
      9  CAS       -0.5800   -4.7930   30.4070 C.ar  601  KTD601      0.0756
     10  N3        -0.9400   -4.4020   31.6610 N.am  601  KTD601     -0.1609
     11  CAR       -2.2070   -4.2120   32.1440 C.2   601  KTD601      0.3439
     12  OAB       -3.2350   -4.3410   31.4770 O.2   601  KTD601     -0.2488
     13  N         -2.2720   -3.8680   33.4450 N.am  601  KTD601     -0.1785
     14  CA        -3.5310   -3.5600   34.1680 C.3   601  KTD601      0.1854
     15  C         -4.0280   -4.7340   35.0420 C.2   601  KTD601      0.1949
     16  O         -3.3780   -5.7700   35.1390 O.2   601  KTD601     -0.2895
     17  CAT       -5.2580   -4.5760   35.7010 C.ar  601  KTD601      0.0365
     18  CAF       -5.7050   -5.5690   36.5940 C.ar  601  KTD601      0.0029
     19  CAD       -6.9310   -5.4320   37.2560 C.ar  601  KTD601      0.0001
     20  CAC       -7.7210   -4.2990   37.0360 C.ar  601  KTD601      0.0000
     21  CAE       -7.2810   -3.3130   36.1470 C.ar  601  KTD601      0.0001
     22  CAG       -6.0610   -3.4480   35.4840 C.ar  601  KTD601      0.0029
@<TRIPOS>BOND
     1     4     5   ar
     2     4     3   ar
     3     5     6   ar
     4     3     2   ar
     5     6     2    1
     6     6     7   ar
     7     2     1   ar
     8     7     8   ar
     9     1     9   ar
    10     8     9   ar
    11     9    10    2
    12    12    11    2
    13    10    11    1
    14    11    13   am
    15    13    14    1
    16    14    15    1
    17    15    16    2
    18    15    17    1
    19    22    17   ar
    20    22    21   ar
    21    17    18   ar
    22    21    20   ar
    23    18    19   ar
    24    20    19   ar
