@<TRIPOS>MOLECULE
4hsh_QEI_A_1.pdb
 12 13 0 0 0
SMALL
GASTEIGER

@<TRIPOS>ATOM
      1  C6        19.5700   18.1210   19.6990 C.3   409  QEI409      0.0303
      2  C9        17.5130   17.7840   21.2730 C.3   409  QEI409      0.2358
      3  C10       16.1740   17.4870   21.0150 C.1   409  QEI409      0.0973
      4  C11       17.9140   17.9600   22.6170 C.1   409  QEI409      0.2101
      5  C7        18.1330   17.8310   20.0150 C.2   409  QEI409      0.0071
      6  C8        17.1720   17.5610   19.0390 C.2   409  QEI409      0.1039
      7  N2        15.9940   17.3580   19.6680 N.2   409  QEI409     -0.1847
      8  N3        15.2980   17.3750   22.0500 N.2   409  QEI409     -0.2733
      9  C12       15.7120   17.5550   23.3250 C.1   409  QEI409      0.2602
     10  N5        14.7060   17.4100   24.4150 N.pl3 409  QEI409     -0.0221
     11  N4        17.0050   17.8340   23.5970 N.2   409  QEI409     -0.2525
     12  O3        19.0920   18.2390   22.9480 O.2   409  QEI409     -0.2120
@<TRIPOS>BOND
     1     6     7    1
     2     6     5    2
     3     7     3    2
     4     1     5    1
     5     5     2    1
     6     3     2    1
     7     3     8    2
     8     2     4    1
     9     8     9    2
    10     4    12    2
    11     4    11    2
    12     9    11    2
    13     9    10    1
