@<TRIPOS>MOLECULE
4hsr_GLJ_B_1.pdb
 10 9 0 0 0
SMALL
GASTEIGER

@<TRIPOS>ATOM
      1  N         16.1280   54.0470  126.0650 N.3   601  GLJ601     -0.1208
      2  CA        15.4070   53.9240  124.7820 C.3   601  GLJ601      0.1946
      3  C         15.2540   55.2320  124.3250 C.2   601  GLJ601      0.3819
      4  O         15.5280   55.3310  123.0800 O.co2 601  GLJ601     -0.2441
      5  CB        14.0130   53.3810  124.7910 C.3   601  GLJ601      0.0387
      6  CG        14.3820   52.1240  124.0740 C.3   601  GLJ601      0.1019
      7  CD        15.5810   51.5110  124.8490 C.3   601  GLJ601      0.4260
      8  OE1       16.6780   52.4900  125.1330 O.2   601  GLJ601     -0.2671
      9  OE2       16.0120   50.5040  123.9860 O.2   601  GLJ601     -0.2671
     10  OXT       14.9310   56.0210  125.2930 O.co2 601  GLJ601     -0.2441
@<TRIPOS>BOND
     1     4     3   ar
     2     9     7    1
     3     6     5    1
     4     6     7    1
     5     3     2    1
     6     3    10   ar
     7     2     5    1
     8     2     1    1
     9     7     8    1
