@<TRIPOS>MOLECULE
4hst_GLJ_B_1.pdb
 10 9 0 0 0
SMALL
GASTEIGER

@<TRIPOS>ATOM
      1  N         16.1010   55.0250  125.7540 N.3   601  GLJ601     -0.1208
      2  CA        15.2000   54.6970  124.6950 C.3   601  GLJ601      0.1946
      3  C         14.6860   55.6520  124.1430 C.2   601  GLJ601      0.3819
      4  O         15.0320   55.7010  122.9790 O.co2 601  GLJ601     -0.2441
      5  CB        14.1030   53.7320  124.9330 C.3   601  GLJ601      0.0387
      6  CG        14.6830   52.7160  124.1290 C.3   601  GLJ601      0.1019
      7  CD        15.7320   51.9050  124.7790 C.3   601  GLJ601      0.4260
      8  OE1       16.8770   52.6990  125.0480 O.2   601  GLJ601     -0.2671
      9  OE2       16.0670   50.8380  123.8300 O.2   601  GLJ601     -0.2671
     10  OXT       14.3030   56.5140  124.9770 O.co2 601  GLJ601     -0.2441
@<TRIPOS>BOND
     1     4     3   ar
     2     9     7    1
     3     6     7    1
     4     6     5    1
     5     3     2    1
     6     3    10   ar
     7     2     5    1
     8     2     1    1
     9     7     8    1
