@<TRIPOS>MOLECULE
4htf_SAM_A_1.pdb
 27 29 0 0 0
SMALL
GASTEIGER

@<TRIPOS>ATOM
      1  N         12.0400   -1.4150   15.4530 N.3   301  SAM301     -0.1208
      2  CA        13.0480   -2.4710   15.5280 C.3   301  SAM301      0.1952
      3  C         14.2320   -1.9740   16.2940 C.2   301  SAM301      0.3819
      4  O         15.2330   -2.7150   16.3770 O.co2 301  SAM301     -0.2441
      5  OXT       14.2060   -0.8670   16.8700 O.co2 301  SAM301     -0.2441
      6  CB        13.4910   -3.0100   14.1470 C.3   301  SAM301      0.0414
      7  CG        14.1860   -1.9590   13.2480 C.3   301  SAM301      0.0503
      8  SD        14.6360   -2.4610   11.6890 S.3   301  SAM301     -0.1761
      9  CE        16.1040   -1.7580   11.3060 C.3   301  SAM301      0.0590
     10  C5'       13.4670   -1.8990   10.6270 C.3   301  SAM301      0.0806
     11  C4'       12.2260   -2.7880   10.6360 C.3   301  SAM301      0.1622
     12  O4'       11.1230   -2.1210   10.0260 O.3   301  SAM301     -0.3153
     13  C3'       12.4080   -4.0960    9.8720 C.3   301  SAM301      0.2168
     14  O3'       12.0080   -5.2140   10.7020 O.3   301  SAM301     -0.2175
     15  C2'       11.5290   -3.9800    8.6540 C.3   301  SAM301      0.2569
     16  O2'       11.0960   -5.2960    8.2100 O.3   301  SAM301     -0.2130
     17  C1'       10.4400   -3.0640    9.1500 C.3   301  SAM301      0.3185
     18  N9         9.7720   -2.1960    8.1740 N.pl3 301  SAM301     -0.1439
     19  C8        10.3860   -1.4570    7.2200 C.3   301  SAM301      0.3377
     20  N7         9.4910   -0.7260    6.5540 N.2   301  SAM301     -0.2095
     21  C5         8.2900   -0.9510    7.1430 C.2   301  SAM301      0.2526
     22  C6         6.9380   -0.4540    6.9060 C.2   301  SAM301      0.4393
     23  N6         6.7000    0.4230    5.9380 N.pl3 301  SAM301      0.2180
     24  N1         5.9450   -0.9520    7.6800 N.2   301  SAM301      0.0021
     25  C2         6.2140   -1.8640    8.6120 C.3   301  SAM301      0.5254
     26  N3         7.4220   -2.3480    8.9030 N.2   301  SAM301     -0.0055
     27  C4         8.4840   -1.9340    8.1790 C.2   301  SAM301      0.3518
@<TRIPOS>BOND
     1    23    22    1
     2    20    21    2
     3    20    19    1
     4    22    21    1
     5    22    24    2
     6    21    27    1
     7    19    18    1
     8    24    25    1
     9    18    27    1
    10    18    17    1
    11    27    26    2
    12    16    15    1
    13    25    26    1
    14    15    17    1
    15    15    13    1
    16    17    12    1
    17    13    11    1
    18    13    14    1
    19    12    11    1
    20    10    11    1
    21    10     8    1
    22     9     8    1
    23     8     7    1
    24     7     6    1
    25     6     2    1
    26     1     2    1
    27     2     3    1
    28     3     4   ar
    29     3     5   ar
