@<TRIPOS>MOLECULE
4htg_18W_A_1.pdb
 31 32 0 0 0
SMALL
GASTEIGER

@<TRIPOS>ATOM
      1  O3A      -25.6490   -6.1720   30.9170 O.co2 401  18W401     -0.2456
      2  C9A      -26.7100   -6.8370   30.8480 C.2   401  18W401      0.3652
      3  O4A      -27.4500   -7.1000   31.8280 O.co2 401  18W401     -0.2456
      4  C8A      -27.1920   -7.1760   29.4130 C.3   401  18W401      0.1188
      5  C7A      -27.8000   -8.5440   29.4120 C.3   401  18W401      0.0402
      6  C3A      -28.2570   -8.9700   27.9280 C.2   401  18W401      0.0029
      7  C2A      -27.4770   -9.6860   27.0160 C.2   401  18W401      0.0127
      8  C5A      -26.0320  -10.1840   27.2370 C.3   401  18W401      0.1423
      9  C6A      -24.8840   -9.2190   26.8080 C.2   401  18W401      0.3693
     10  O2A      -23.7250   -9.6000   27.0520 O.co2 401  18W401     -0.2453
     11  O1A      -25.1310   -8.1690   26.2120 O.co2 401  18W401     -0.2453
     12  C1A      -28.2290   -9.8660   25.9000 C.2   401  18W401      0.1053
     13  CHA      -27.8760  -10.6080   24.6600 C.3   401  18W401      0.0660
     14  NA       -29.3890   -9.2730   26.1690 N.2   401  18W401     -0.4108
     15  C4A      -29.4560   -8.7370   27.4040 C.2   401  18W401      0.1114
     16  CHB      -30.5710   -8.0680   27.9710 C.3   401  18W401      0.1181
     17  C1B      -31.6260   -7.3910   27.3280 C.2   401  18W401      0.1260
     18  C2B      -32.4210   -6.4100   27.8360 C.2   401  18W401      0.0238
     19  C5B      -32.3620   -5.8830   29.3060 C.3   401  18W401      0.1430
     20  C6B      -33.0900   -6.8170   30.3330 C.2   401  18W401      0.3693
     21  O2B      -34.0700   -7.4880   29.9340 O.co2 401  18W401     -0.2453
     22  O1B      -32.6070   -6.9210   31.5060 O.co2 401  18W401     -0.2453
     23  NB       -32.0660   -7.5830   26.0010 N.2   401  18W401     -0.3374
     24  C4B      -33.0970   -6.7630   25.7150 C.1   401  18W401      0.2000
     25  O5B      -33.7820   -6.6910   24.5940 O.2   401  18W401     -0.2096
     26  C3B      -33.3190   -6.0430   26.8380 C.2   401  18W401      0.0717
     27  C7B      -34.3690   -4.9150   26.9520 C.3   401  18W401      0.0508
     28  C8B      -33.7040   -3.5510   26.5240 C.3   401  18W401      0.1195
     29  C9B      -34.7000   -2.4440   26.3080 C.2   401  18W401      0.3652
     30  O4B      -34.5290   -1.3540   26.8970 O.co2 401  18W401     -0.2456
     31  O3B      -35.5830   -2.6690   25.4020 O.co2 401  18W401     -0.2456
@<TRIPOS>BOND
     1    25    24    2
     2    13    12    1
     3    31    29   ar
     4    24    23    2
     5    24    26    1
     6    12    14    2
     7    12     7    1
     8    23    17    2
     9    14    15    2
    10    11     9   ar
    11    29    28    1
    12    29    30   ar
    13    28    27    1
    14     9    10   ar
    15     9     8    1
    16    26    27    1
    17    26    18    2
    18     7     8    1
    19     7     6    2
    20    17    18    1
    21    17    16    1
    22    15     6    1
    23    15    16    1
    24    18    19    1
    25     6     5    1
    26    19    20    1
    27     5     4    1
    28     4     2    1
    29    21    20   ar
    30    20    22   ar
    31     2     1   ar
    32     2     3   ar
