@<TRIPOS>MOLECULE
4hth_THP_A_1.pdb
 25 26 0 0 0
SMALL
GASTEIGER

@<TRIPOS>ATOM
      1  P2        17.8830   10.8310    4.9640 P.3   201  THP201      0.5327
      2  O4P       17.8300    9.4040    5.2560 O.2   201  THP201     -0.2224
      3  O5P       16.6330   11.5830    5.4170 O.3   201  THP201     -0.1145
      4  O6P       19.1040   11.5220    5.4200 O.3   201  THP201     -0.1145
      5  P1        21.1970   14.4380    1.1530 P.3   201  THP201      0.5326
      6  O1P       22.1850   14.9430    0.1510 O.2   201  THP201     -0.2224
      7  O2P       21.8760   13.3570    1.9760 O.3   201  THP201     -0.1145
      8  O3P       20.4910   15.4300    2.0100 O.3   201  THP201     -0.1145
      9  O5'       17.9310   10.9070    3.3430 O.3   201  THP201     -0.2675
     10  C5'       18.0110   12.1710    2.6850 C.3   201  THP201      0.1857
     11  C4'       18.9660   12.0770    1.5040 C.3   201  THP201      0.1748
     12  O4'       18.4750   11.0010    0.7460 O.3   201  THP201     -0.3340
     13  C3'       18.8630   13.3400    0.6560 C.3   201  THP201      0.1600
     14  O3'       20.1700   13.6500    0.1600 O.3   201  THP201     -0.2700
     15  C2'       18.0090   12.8930   -0.5340 C.3   201  THP201      0.0847
     16  C1'       18.2080   11.3940   -0.6220 C.3   201  THP201      0.2089
     17  N1        16.9140   10.7860   -0.9570 N.am  201  THP201     -0.1794
     18  C2        16.6260   10.5760   -2.3510 C.1   201  THP201      0.2844
     19  O2        17.5320   10.9400   -3.1470 O.2   201  THP201     -0.1918
     20  N3        15.4430   10.0450   -2.7460 N.2   201  THP201     -0.2455
     21  C4        14.4600    9.8120   -1.8170 C.1   201  THP201      0.2134
     22  O4        13.3690    9.3950   -2.2200 O.2   201  THP201     -0.2088
     23  C5        14.7400    9.9620   -0.3840 C.2   201  THP201      0.0891
     24  C5M       13.7170    9.6160    0.7000 C.3   201  THP201      0.0462
     25  C6        15.9930   10.4970   -0.0140 C.2   201  THP201      0.0877
@<TRIPOS>BOND
     1    19    18    2
     2    20    18    2
     3    20    21    2
     4    18    17   am
     5    22    21    2
     6    21    23    1
     7    17    16    1
     8    17    25    1
     9    16    15    1
    10    16    12    1
    11    15    13    1
    12    23    25    2
    13    23    24    1
    14     6     5    2
    15    14    13    1
    16    14     5    1
    17    13    11    1
    18    12    11    1
    19     5     7    1
    20     5     8    1
    21    11    10    1
    22    10     9    1
    23     9     1    1
    24     1     2    2
    25     1     3    1
    26     1     4    1
