@<TRIPOS>MOLECULE
4htp_III_E_1.pdb
 31 33 0 0 0
SMALL
GASTEIGER

@<TRIPOS>ATOM
      1  N         31.4240   16.2240   22.5060 N.3   487  PRO487     -0.2102
      2  CA        32.2150   15.2190   23.2290 C.3   487  PRO487      0.1504
      3  C         31.8530   13.7960   22.7990 C.2   487  PRO487      0.2576
      4  O         30.7020   13.5480   22.4200 O.2   487  PRO487     -0.2718
      5  CB        31.8130   15.4460   24.6920 C.3   487  PRO487      0.0282
      6  CG        30.4120   15.9730   24.6160 C.3   487  PRO487      0.0208
      7  CD        30.3370   16.7790   23.3340 C.3   487  PRO487      0.0893
      8  N         32.8230   12.8840   22.8480 N.am  488  GLN488     -0.1966
      9  CA        32.5760   11.4710   22.5480 C.3   488  GLN488      0.1728
     10  C         32.5170   10.6300   23.8360 C.2   488  GLN488      0.2616
     11  O         33.2950   10.8570   24.7660 O.2   488  GLN488     -0.2715
     12  CB        33.6450   10.9260   21.5910 C.3   488  GLN488      0.0334
     13  N         31.6070    9.6530   23.8880 N.am  489  TRP489     -0.1960
     14  CA        31.4310    8.8190   25.0820 C.3   489  TRP489      0.1768
     15  C         32.7280    8.0500   25.3980 C.2   489  TRP489      0.2619
     16  O         32.8540    7.4150   26.4540 O.2   489  TRP489     -0.2715
     17  CB        30.1840    7.9220   24.9330 C.3   489  TRP489      0.0553
     18  CG        30.0540    6.7600   25.9020 C.2   489  TRP489     -0.0136
     19  CD1       30.2810    5.4290   25.6250 C.2   489  TRP489      0.0907
     20  CD2       29.6550    6.8150   27.2850 C.3   489  TRP489      0.0819
     21  NE1       30.0570    4.6650   26.7480 N.2   489  TRP489     -0.2482
     22  CE2       29.6750    5.4840   27.7820 C.2   489  TRP489      0.0665
     23  CE3       29.2860    7.8520   28.1490 C.2   489  TRP489     -0.0164
     24  CZ2       29.3480    5.1660   29.1120 C.2   489  TRP489      0.0153
     25  CZ3       28.9570    7.5330   29.4680 C.2   489  TRP489     -0.0038
     26  CH2       28.9910    6.2010   29.9330 C.2   489  TRP489      0.0009
     27  N         33.6900    8.1460   24.4720 N.am  490  GLU490     -0.1977
     28  CA        35.0960    7.7730   24.6900 C.3   490  GLU490      0.1597
     29  C         35.3180    6.2860   24.9080 C.2   490  GLU490      0.2287
     30  O         36.4130    5.8740   25.2900 O.2   490  GLU490     -0.2864
     31  CB        35.7230    8.5980   25.8460 C.3   490  GLU490      0.0319
@<TRIPOS>BOND
     1    12     9    1
     2     4     3    2
     3     1     2    1
     4     1     7    1
     5     9     8    1
     6     9    10    1
     7     3     8   am
     8     3     2    1
     9     2     5    1
    10     7     6    1
    11    10    13   am
    12    10    11    2
    13    13    14    1
    14    27    28    1
    15    27    15   am
    16     6     5    1
    17    28    29    1
    18    28    31    1
    19    29    30    2
    20    17    14    1
    21    17    18    1
    22    14    15    1
    23    15    16    2
    24    19    18    2
    25    19    21    1
    26    18    20    1
    27    21    22    2
    28    20    22    1
    29    20    23    1
    30    22    24    1
    31    23    25    2
    32    24    26    2
    33    25    26    1
