@<TRIPOS>MOLECULE
4hu0_CTT_A_1.pdb
 45 48 0 0 0
SMALL
GASTEIGER

@<TRIPOS>ATOM
      1  O1B      -70.2400  -48.6560  -29.9950 O.3   401  CTT401     -0.1869
      2  C1B      -69.3310  -48.4300  -28.9210 C.3   401  CTT401      0.3023
      3  C2B      -68.5240  -49.7630  -29.0150 C.3   401  CTT401      0.2433
      4  O2B      -69.2860  -50.9490  -28.7880 O.3   401  CTT401     -0.2148
      5  C3B      -67.3650  -49.6520  -28.0750 C.3   401  CTT401      0.2168
      6  O3B      -66.6580  -50.8700  -28.1210 O.3   401  CTT401     -0.2175
      7  O5B      -68.4410  -47.3980  -29.4630 O.3   401  CTT401     -0.3237
      8  C5B      -67.4110  -47.1840  -28.5190 C.3   401  CTT401      0.1804
      9  C6B      -66.6570  -45.9470  -28.9310 C.3   401  CTT401      0.2141
     10  O6B      -67.6840  -45.0330  -29.2310 O.3   401  CTT401     -0.2176
     11  C4B      -66.5300  -48.4320  -28.4450 C.3   401  CTT401      0.1804
     12  O4B      -65.5670  -48.1620  -27.4310 O.3   401  CTT401     -0.3257
     13  C1C      -64.3000  -48.8420  -27.5660 C.3   401  CTT401      0.2695
     14  C2C      -63.3250  -47.9550  -26.8020 C.3   401  CTT401      0.2404
     15  O2C      -63.2370  -46.6880  -27.4780 O.3   401  CTT401     -0.2149
     16  C3C      -61.9780  -48.6550  -26.7500 C.3   401  CTT401      0.2167
     17  O3C      -61.0490  -47.7730  -26.1170 O.3   401  CTT401     -0.2175
     18  O5C      -64.3310  -50.1150  -26.9060 O.3   401  CTT401     -0.3257
     19  C5C      -63.0830  -50.8010  -26.7090 C.3   401  CTT401      0.1803
     20  C6C      -63.4520  -52.1000  -26.0430 C.3   401  CTT401      0.2141
     21  O6C      -64.5660  -52.6250  -26.8000 O.3   401  CTT401     -0.2176
     22  C4C      -62.0570  -49.9810  -25.9720 C.3   401  CTT401      0.1804
     23  O4C      -60.7010  -50.4810  -26.0350 O.3   401  CTT401     -0.3257
     24  C1D      -59.9450  -51.5880  -25.2980 C.3   401  CTT401      0.2695
     25  C2D      -58.3770  -51.4740  -25.4320 C.3   401  CTT401      0.2404
     26  O2D      -57.8580  -52.6790  -25.9980 O.3   401  CTT401     -0.2149
     27  C3D      -57.6560  -51.1050  -24.1210 C.3   401  CTT401      0.2167
     28  O3D      -56.4250  -50.5200  -24.5840 O.3   401  CTT401     -0.2175
     29  O5D      -60.1090  -52.0560  -23.9080 O.3   401  CTT401     -0.3257
     30  C5D      -59.8670  -51.0960  -22.8530 C.3   401  CTT401      0.1803
     31  C6D      -61.1790  -50.3580  -22.3960 C.3   401  CTT401      0.2141
     32  O6D      -61.2560  -50.9300  -21.0790 O.3   401  CTT401     -0.2176
     33  C4D      -58.6260  -50.2440  -23.1920 C.3   401  CTT401      0.1804
     34  O4D      -58.1330  -49.7480  -21.9240 O.3   401  CTT401     -0.3257
     35  C1E      -57.4880  -48.4310  -21.8340 C.3   401  CTT401      0.2695
     36  C2E      -57.3970  -47.9960  -20.3660 C.3   401  CTT401      0.2406
     37  O2E      -58.6750  -48.2490  -19.7920 O.3   401  CTT401     -0.2149
     38  C3E      -56.8850  -46.5250  -20.2200 C.3   401  CTT401      0.2198
     39  O3E      -57.3030  -46.0710  -18.8430 O.3   401  CTT401     -0.2174
     40  C4E      -55.3740  -46.5870  -20.7500 C.3   401  CTT401      0.2144
     41  O4E      -54.7480  -45.4410  -21.2590 O.3   401  CTT401     -0.2176
     42  O5E      -56.1350  -48.3960  -22.3400 O.3   401  CTT401     -0.3256
     43  C5E      -55.3030  -47.2190  -22.1260 C.3   401  CTT401      0.1835
     44  C6E      -53.9430  -47.7580  -22.5230 C.3   401  CTT401      0.2142
     45  O6E      -54.1560  -48.5260  -23.7590 O.3   401  CTT401     -0.2176
@<TRIPOS>BOND
     1     1     2    1
     2     7     2    1
     3     7     8    1
     4    10     9    1
     5     3     2    1
     6     3     4    1
     7     3     5    1
     8     9     8    1
     9     8    11    1
    10    11     5    1
    11    11    12    1
    12     6     5    1
    13    13    12    1
    14    13    18    1
    15    13    14    1
    16    15    14    1
    17    18    19    1
    18    14    16    1
    19    21    20    1
    20    16    17    1
    21    16    22    1
    22    19    20    1
    23    19    22    1
    24    23    22    1
    25    23    24    1
    26    26    25    1
    27    25    24    1
    28    25    27    1
    29    24    29    1
    30    28    27    1
    31    27    33    1
    32    29    30    1
    33    45    44    1
    34    33    30    1
    35    33    34    1
    36    30    31    1
    37    44    43    1
    38    31    32    1
    39    42    43    1
    40    42    35    1
    41    43    40    1
    42    34    35    1
    43    35    36    1
    44    41    40    1
    45    40    38    1
    46    36    38    1
    47    36    37    1
    48    38    39    1
