@<TRIPOS>MOLECULE
4huk_P4P_A_1.pdb
 25 28 0 0 0
SMALL
GASTEIGER

@<TRIPOS>ATOM
      1  P         20.0570  -47.0400   31.6610 P.3   501  P4P501     -0.0109
      2  C1A       20.0350  -48.7980   31.8090 C.ar  501  P4P501      0.0017
      3  C2A       20.4250  -49.4290   32.9950 C.ar  501  P4P501      0.0005
      4  C3A       20.4430  -50.8160   33.1030 C.ar  501  P4P501      0.0000
      5  C4A       20.1020  -51.5800   31.9970 C.ar  501  P4P501      0.0000
      6  C5A       19.7380  -50.9740   30.7970 C.ar  501  P4P501      0.0000
      7  C6A       19.7140  -49.5910   30.7020 C.ar  501  P4P501      0.0005
      8  C1C       20.1870  -46.8460   29.9240 C.ar  501  P4P501      0.0017
      9  C6C       19.0100  -46.9620   29.1640 C.ar  501  P4P501      0.0005
     10  C5C       19.0310  -46.8290   27.7840 C.ar  501  P4P501      0.0000
     11  C4C       20.2560  -46.5980   27.1680 C.ar  501  P4P501      0.0000
     12  C3C       21.4380  -46.4890   27.9070 C.ar  501  P4P501      0.0000
     13  C2C       21.4110  -46.6170   29.2940 C.ar  501  P4P501      0.0005
     14  C1D       21.4770  -46.5710   32.6070 C.ar  501  P4P501      0.0017
     15  C6D       21.4470  -45.4790   33.4870 C.ar  501  P4P501      0.0005
     16  C5D       22.5760  -45.1470   34.2380 C.ar  501  P4P501      0.0000
     17  C4D       23.7410  -45.9110   34.1350 C.ar  501  P4P501      0.0000
     18  C3D       23.7910  -47.0050   33.2750 C.ar  501  P4P501      0.0000
     19  C2D       22.6600  -47.3290   32.5240 C.ar  501  P4P501      0.0005
     20  C6B       18.3050  -45.8540   33.4630 C.ar  501  P4P501      0.0005
     21  C5B       17.1930  -45.0720   33.7760 C.ar  501  P4P501      0.0000
     22  C4B       16.4310  -44.4950   32.7560 C.ar  501  P4P501      0.0000
     23  C3B       16.7730  -44.6900   31.4210 C.ar  501  P4P501      0.0000
     24  C2B       17.8820  -45.4730   31.1220 C.ar  501  P4P501      0.0005
     25  C1B       18.6510  -46.0790   32.1270 C.ar  501  P4P501      0.0017
@<TRIPOS>BOND
     1    11    10   ar
     2    11    12   ar
     3    10     9   ar
     4    12    13   ar
     5     9     8   ar
     6    13     8   ar
     7     8     1    1
     8     7     6   ar
     9     7     2   ar
    10     6     5   ar
    11    24    23   ar
    12    24    25   ar
    13    23    22   ar
    14     1     2    1
    15     1    25    1
    16     1    14    1
    17     2     3   ar
    18     5     4   ar
    19    25    20   ar
    20    19    14   ar
    21    19    18   ar
    22    14    15   ar
    23    22    21   ar
    24     3     4   ar
    25    18    17   ar
    26    20    21   ar
    27    15    16   ar
    28    17    16   ar
