@<TRIPOS>MOLECULE
4hum_ET_A_1.pdb
 24 27 0 0 0
SMALL
GASTEIGER

@<TRIPOS>ATOM
      1  C1        23.0310  -50.1500   34.0350 C.2   501  ET501      -0.0010
      2  C2        24.2240  -49.9060   34.7130 C.2   501  ET501       0.0175
      3  C3        24.6460  -48.5940   34.9450 C.2   501  ET501       0.0868
      4  C4        23.8910  -47.4900   34.5080 C.2   501  ET501       0.0158
      5  N5        21.8660  -46.5410   33.3550 N.pl3 501  ET501      -0.3018
      6  C6        20.6840  -46.7430   32.6870 C.2   501  ET501       0.0482
      7  C7        18.9650  -48.3190   31.7080 C.ar  501  ET501       0.0193
      8  C8        18.5080  -49.6120   31.4550 C.ar  501  ET501       0.0891
      9  C9        19.2460  -50.7170   31.8780 C.ar  501  ET501       0.0180
     10  C10       20.4560  -50.5890   32.5630 C.ar  501  ET501       0.0012
     11  C11       20.1740  -48.1220   32.3930 C.ar  501  ET501       0.0144
     12  C12       20.9560  -49.3130   32.8410 C.ar  501  ET501      -0.0008
     13  C13       22.2410  -49.0800   33.5780 C.2   501  ET501      -0.0000
     14  C14       22.6740  -47.6560   33.8170 C.3   501  ET501       0.1192
     15  C15       19.8010  -45.6590   32.1510 C.ar  501  ET501       0.0133
     16  C16       18.7990  -45.0520   32.9090 C.ar  501  ET501       0.0012
     17  C17       18.0010  -44.0670   32.3210 C.ar  501  ET501       0.0000
     18  C18       18.1810  -43.6990   30.9860 C.ar  501  ET501       0.0000
     19  C19       19.1660  -44.3220   30.2270 C.ar  501  ET501       0.0000
     20  C20       19.9650  -45.3020   30.8100 C.ar  501  ET501       0.0012
     21  C21       22.3170  -45.1570   33.6100 C.3   501  ET501       0.0914
     22  C22       21.7240  -44.5980   34.8940 C.3   501  ET501       0.0232
     23  N23       25.8110  -48.3970   35.6090 N.pl3 501  ET501      -0.1283
     24  N24       17.3460  -49.8190   30.7950 N.pl3 501  ET501      -0.1281
@<TRIPOS>BOND
     1    19    20   ar
     2    19    18   ar
     3    24     8    1
     4    20    15   ar
     5    18    17   ar
     6     8     7   ar
     7     8     9   ar
     8     7    11   ar
     9     9    10   ar
    10    15     6    1
    11    15    16   ar
    12    17    16   ar
    13    11     6    2
    14    11    12   ar
    15    10    12   ar
    16     6     5    1
    17    12    13    2
    18     5    21    1
    19     5    14    1
    20    13    14    1
    21    13     1    1
    22    21    22    1
    23    14     4    1
    24     1     2    2
    25     4     3    2
    26     2     3    1
    27     3    23    1
