@<TRIPOS>MOLECULE
4hun_RHQ_A_1.pdb
 33 36 0 0 0
SMALL
GASTEIGER

@<TRIPOS>ATOM
      1  C1        21.0330  -45.4680   32.6840 C.ar  501  RHQ501      0.1405
      2  C2        20.7270  -46.9270   32.4850 C.ar  501  RHQ501      0.0336
      3  C3        19.5100  -47.2640   31.8680 C.ar  501  RHQ501      0.0000
      4  C4        18.5740  -46.3200   31.4300 C.ar  501  RHQ501     -0.0068
      5  C5        18.8880  -44.8600   31.6330 C.ar  501  RHQ501      0.0643
      6  C6        20.1020  -44.5140   32.2500 C.ar  501  RHQ501      0.0527
      7  O1        22.2140  -45.0540   33.2850 O.3   501  RHQ501     -0.4702
      8  C7        23.1890  -45.9320   33.7420 C.3   501  RHQ501      0.2115
      9  C8        22.9980  -47.4100   33.5980 C.2   501  RHQ501      0.0214
     10  C9        21.7460  -47.9530   32.9570 C.2   501  RHQ501      0.0028
     11  C10       24.3710  -45.4670   34.3470 C.2   501  RHQ501      0.0369
     12  C11       25.3660  -46.3460   34.8270 C.2   501  RHQ501      0.0608
     13  C12       25.1640  -47.8280   34.6650 C.2   501  RHQ501     -0.0074
     14  C13       23.9950  -48.2830   34.0640 C.2   501  RHQ501     -0.0035
     15  N1        26.5030  -45.8280   35.3830 N.pl3 501  RHQ501     -0.2381
     16  C14       21.6620  -49.4660   32.8640 C.ar  501  RHQ501      0.0061
     17  C15       22.3640  -50.1950   33.8480 C.ar  501  RHQ501      0.0002
     18  C16       22.4120  -51.5860   33.8870 C.ar  501  RHQ501      0.0000
     19  C17       21.7400  -52.3180   32.9140 C.ar  501  RHQ501      0.0002
     20  C18       21.0330  -51.6670   31.8950 C.ar  501  RHQ501      0.0064
     21  C19       20.9500  -50.2750   31.8030 C.ar  501  RHQ501      0.0756
     22  C20       26.1660  -48.8620   35.1290 C.3   501  RHQ501      0.0324
     23  C21       17.3080  -46.8420   30.7810 C.3   501  RHQ501      0.0324
     24  C22       26.8080  -45.7260   36.8050 C.3   501  RHQ501      0.1122
     25  C23       28.2030  -45.1660   37.0240 C.3   501  RHQ501      0.0251
     26  N2        18.0950  -43.8080   31.2680 N.pl3 501  RHQ501     -0.2378
     27  C24       16.7920  -43.8280   30.6150 C.3   501  RHQ501      0.1122
     28  C25       16.3260  -42.4110   30.2410 C.3   501  RHQ501      0.0251
     29  C26       20.1420  -49.7070   30.6500 C.2   501  RHQ501      0.3412
     30  O27       18.9070  -49.7380   30.6730 O.2   501  RHQ501     -0.2449
     31  O2        20.8340  -49.1330   29.4880 O.3   501  RHQ501     -0.4454
     32  C28       20.1340  -48.4360   28.4440 C.3   501  RHQ501      0.2089
     33  C29       21.0120  -47.2610   27.9800 C.3   501  RHQ501      0.0513
@<TRIPOS>BOND
     1    33    32    1
     2    32    31    1
     3    31    29    1
     4    28    27    1
     5    27    26    1
     6    29    30    2
     7    29    21    1
     8    23     4    1
     9    26     5    1
    10     4     5   ar
    11     4     3   ar
    12     5     6   ar
    13    21    20   ar
    14    21    16   ar
    15     3     2   ar
    16    20    19   ar
    17     6     1   ar
    18     2     1   ar
    19     2    10    1
    20     1     7    1
    21    16    10    1
    22    16    17   ar
    23    19    18   ar
    24    10     9    2
    25     7     8    1
    26     9     8    1
    27     9    14    1
    28     8    11    1
    29    17    18   ar
    30    14    13    2
    31    11    12    2
    32    13    12    1
    33    13    22    1
    34    12    15    1
    35    15    24    1
    36    24    25    1
