@<TRIPOS>MOLECULE
4huo_RS8_X_1.pdb
 30 32 0 0 0
SMALL
GASTEIGER

@<TRIPOS>ATOM
      1  C1        10.2230  -25.1850   -6.2510 C.1   301  RS8301      0.2617
      2  N1         9.9030  -25.8170   -5.1240 N.pl3 301  RS8301     -0.0220
      3  O1        11.9750  -25.7440   -9.1310 O.2   301  RS8301     -0.2062
      4  C2        11.2920  -25.1490   -8.2610 C.1   301  RS8301      0.2452
      5  N2        10.9810  -25.8140   -7.1800 N.2   301  RS8301     -0.2474
      6  C3        10.9540  -23.7750   -8.4620 C.2   301  RS8301      0.2585
      7  N3         9.9580  -23.9010   -6.2960 N.2   301  RS8301     -0.2561
      8  O2         8.5520  -19.4870   -8.0740 O.2   301  RS8301     -0.2658
      9  C4        10.0990  -23.1920   -7.4240 C.1   301  RS8301      0.1811
     10  N4         9.7310  -21.9070   -7.5150 N.2   301  RS8301     -0.3352
     11  C5         9.9730  -21.2670   -8.6480 C.2   301  RS8301      0.2005
     12  N5        11.2320  -23.1060   -9.5860 N.2   301  RS8301     -0.2401
     13  C6        10.7990  -21.8550   -9.6690 C.3   301  RS8301      0.1914
     14  C7         9.4330  -19.8800   -8.8460 C.2   301  RS8301      0.2937
     15  N6         9.7240  -19.2280   -9.9620 N.am  301  RS8301     -0.1897
     16  C8         9.3090  -17.8400  -10.1430 C.3   301  RS8301      0.2017
     17  C9         8.5890  -17.6540  -11.4750 C.2   301  RS8301      0.2640
     18  O3         8.3810  -16.4950  -11.7810 O.2   301  RS8301     -0.2714
     19  N7         8.2710  -18.7730  -12.1610 N.am  301  RS8301     -0.1937
     20  C10        7.5130  -18.8120  -13.4200 C.3   301  RS8301      0.2021
     21  C18        6.0840  -19.1790  -13.0790 C.2   301  RS8301      0.3845
     22  O5         5.1650  -19.1800  -13.8930 O.co2 301  RS8301     -0.2437
     23  C11        8.3770  -19.6520  -14.4210 C.3   301  RS8301      0.0596
     24  C12        8.3770  -21.1350  -13.9190 C.ar  301  RS8301     -0.0199
     25  C13        7.3480  -22.0300  -14.2370 C.ar  301  RS8301     -0.0042
     26  C17        9.3870  -21.6130  -13.1130 C.ar  301  RS8301     -0.0042
     27  C14        7.3080  -23.3730  -13.8440 C.ar  301  RS8301     -0.0003
     28  C16        9.3370  -22.9400  -12.6630 C.ar  301  RS8301     -0.0003
     29  C15        8.3360  -23.8540  -13.0090 C.ar  301  RS8301     -0.0000
     30  O4         5.7740  -19.4920  -11.8240 O.co2 301  RS8301     -0.2437
@<TRIPOS>BOND
     1    23    24    1
     2    23    20    1
     3    25    24   ar
     4    25    27   ar
     5    24    26   ar
     6    22    21   ar
     7    27    29   ar
     8    20    21    1
     9    20    19    1
    10    26    28   ar
    11    21    30   ar
    12    29    28   ar
    13    19    17   am
    14    18    17    2
    15    17    16    1
    16    16    15    1
    17    15    14   am
    18    13    12    1
    19    13    11    1
    20    12     6    2
    21     3     4    2
    22    14    11    1
    23    14     8    2
    24    11    10    2
    25     6     4    1
    26     6     9    1
    27     4     5    2
    28    10     9    2
    29     9     7    2
    30     5     1    2
    31     7     1    2
    32     1     2    1
