@<TRIPOS>MOLECULE
4hup_19M_X_1.pdb
 41 44 0 0 0
SMALL
GASTEIGER

@<TRIPOS>ATOM
      1  C1       -23.7290    8.6940   -6.1490 C.1   301  19M301      0.2617
      2  N1       -24.0720    8.0420   -5.0030 N.pl3 301  19M301     -0.0220
      3  O1       -21.8960    8.1280   -9.1170 O.2   301  19M301     -0.2062
      4  C2       -22.6010    8.6830   -8.2430 C.1   301  19M301      0.2452
      5  N2       -22.9600    8.0680   -7.0950 N.2   301  19M301     -0.2474
      6  C3       -23.0660   10.0690   -8.4410 C.2   301  19M301      0.2585
      7  N3       -24.1700    9.9520   -6.2910 N.2   301  19M301     -0.2561
      8  O2       -25.2570   14.4580   -8.0050 O.2   301  19M301     -0.2658
      9  C4       -23.8910   10.6680   -7.3770 C.1   301  19M301      0.1811
     10  N4       -24.3280   11.9260   -7.5320 N.2   301  19M301     -0.3352
     11  C5       -24.0050   12.5970   -8.6550 C.2   301  19M301      0.2005
     12  N5       -22.7640   10.7720   -9.5430 N.2   301  19M301     -0.2401
     13  C6       -23.2230   12.0170   -9.6540 C.3   301  19M301      0.1914
     14  C7       -24.5230   13.9830   -8.8520 C.2   301  19M301      0.2937
     15  N6       -24.2460   14.6340   -9.9780 N.am  301  19M301     -0.1897
     16  C8       -24.6640   16.0160  -10.1030 C.3   301  19M301      0.2017
     17  C9       -25.3350   16.2820  -11.4230 C.2   301  19M301      0.2639
     18  O3       -25.6160   17.4230  -11.7340 O.2   301  19M301     -0.2714
     19  N7       -25.5850   15.2290  -12.1980 N.am  301  19M301     -0.1959
     20  C10      -26.0930   15.3790  -13.5530 C.3   301  19M301      0.1771
     21  C18      -27.5760   15.1340  -13.6010 C.2   301  19M301      0.2620
     22  O4       -28.1820   15.1680  -14.6600 O.2   301  19M301     -0.2715
     23  C11      -25.3560   14.4420  -14.5140 C.3   301  19M301      0.0574
     24  C12      -25.4520   13.0260  -13.9880 C.ar  301  19M301     -0.0200
     25  C13      -26.4880   12.1920  -14.4060 C.ar  301  19M301     -0.0042
     26  C17      -24.5100   12.5540  -13.0820 C.ar  301  19M301     -0.0042
     27  C14      -26.5860   10.8930  -13.9280 C.ar  301  19M301     -0.0003
     28  C16      -24.6090   11.2500  -12.6050 C.ar  301  19M301     -0.0003
     29  C15      -25.6430   10.4220  -13.0200 C.ar  301  19M301     -0.0000
     30  N8       -28.1640   14.8810  -12.4330 N.am  301  19M301     -0.1938
     31  C19      -29.5980   14.7180  -12.2950 C.3   301  19M301      0.2021
     32  C27      -30.3230   16.0350  -12.3410 C.2   301  19M301      0.3845
     33  O6       -31.5000   16.0890  -12.6680 O.co2 301  19M301     -0.2437
     34  C20      -29.8850   14.0270  -10.9670 C.3   301  19M301      0.0596
     35  C21      -29.3480   12.6110  -10.9950 C.ar  301  19M301     -0.0199
     36  C22      -30.0010   11.6300  -11.7390 C.ar  301  19M301     -0.0042
     37  C26      -28.2010   12.2830  -10.2720 C.ar  301  19M301     -0.0042
     38  C23      -29.5100   10.3270  -11.7630 C.ar  301  19M301     -0.0003
     39  C25      -27.7110   10.9780  -10.3000 C.ar  301  19M301     -0.0003
     40  C24      -28.3650    9.9990  -11.0410 C.ar  301  19M301     -0.0000
     41  O5       -29.6900   17.1630  -12.0170 O.co2 301  19M301     -0.2437
@<TRIPOS>BOND
     1    22    21    2
     2    23    24    1
     3    23    20    1
     4    25    24   ar
     5    25    27   ar
     6    24    26   ar
     7    27    29   ar
     8    21    20    1
     9    21    30   am
    10    20    19    1
    11    26    28   ar
    12    29    28   ar
    13    33    32   ar
    14    30    31    1
    15    32    31    1
    16    32    41   ar
    17    31    34    1
    18    19    17   am
    19    38    36   ar
    20    38    40   ar
    21    36    35   ar
    22    18    17    2
    23    17    16    1
    24    40    39   ar
    25    35    34    1
    26    35    37   ar
    27    39    37   ar
    28    16    15    1
    29    15    14   am
    30    13    12    1
    31    13    11    1
    32    12     6    2
    33     3     4    2
    34    14    11    1
    35    14     8    2
    36    11    10    2
    37     6     4    1
    38     6     9    1
    39     4     5    2
    40    10     9    2
    41     9     7    2
    42     5     1    2
    43     7     1    2
    44     1     2    1
