@<TRIPOS>MOLECULE
4hus_VIR_A_1.pdb
 38 40 0 0 0
SMALL
GASTEIGER

@<TRIPOS>ATOM
      1  C1        33.9820   14.0980    0.1860 C.3   316  VIR316      0.1750
      2  C10       36.5590   17.9180   -3.4190 C.2   316  VIR316      0.2602
      3  C12       37.7480   16.6290   -2.1570 C.3   316  VIR316      0.2708
      4  C13       36.3020   18.9530   -4.4830 C.3   316  VIR316      0.1633
      5  C14       34.9690   18.9540   -5.1800 C.2   316  VIR316      0.1637
      6  C16       34.2750   20.3020   -5.2830 C.3   316  VIR316      0.0979
      7  C17       32.8020   20.0590   -5.2680 C.3   316  VIR316      0.1593
      8  C19       32.3330   19.7940   -3.9010 C.3   316  VIR316      0.0333
      9  C2        32.9350   13.4980   -0.4990 C.3   316  VIR316      0.0331
     10  C20       31.4930   18.7260   -3.6950 C.3   316  VIR316      0.0026
     11  C21       30.9660   17.9260   -4.8370 C.3   316  VIR316      0.0001
     12  C22       31.3720   18.1620   -2.2880 C.3   316  VIR316      0.0022
     13  C23       30.1250   17.6980   -1.9650 C.3   316  VIR316      0.0272
     14  C24       29.7010   17.6750   -0.5140 C.3   316  VIR316      0.1379
     15  C26       30.3870   16.0030    1.1530 C.1   316  VIR316      0.1504
     16  C28       30.5610   14.5550    1.5360 C.2   316  VIR316      0.0892
     17  C29       31.6530   14.2740    2.3650 C.2   316  VIR316     -0.0105
     18  C3        32.9050   14.0950   -1.8960 C.3   316  VIR316      0.0238
     19  C30       31.7280   12.9610    3.0670 C.3   316  VIR316      0.0629
     20  C31       31.3440   11.8800    2.1520 C.3   316  VIR316      0.0084
     21  C32       33.1420   12.7640    3.4550 C.3   316  VIR316      0.1727
     22  C33       33.2340   11.5230    4.2950 C.3   316  VIR316      0.0405
     23  C34       34.6570   11.3550    4.7630 C.3   316  VIR316      0.0037
     24  C35       32.2870   11.5450    5.4750 C.3   316  VIR316      0.0037
     25  C37       34.3800   13.8480    1.6320 C.2   316  VIR316      0.3351
     26  C4        33.5710   15.4050   -1.7020 C.3   316  VIR316      0.0943
     27  C6        35.9480   15.5040   -0.7910 C.2   316  VIR316      0.2787
     28  C8        36.4150   16.4530   -1.8470 C.2   316  VIR316      0.2092
     29  N25       29.8530   16.2880   -0.1590 N.2   316  VIR316     -0.2025
     30  N5        34.5870   15.0420   -0.7620 N.am  316  VIR316     -0.2660
     31  N9        35.6950   17.2600   -2.6530 N.2   316  VIR316     -0.3670
     32  O11       37.8010   17.5460   -3.1200 O.2   316  VIR316     -0.4465
     33  O15       34.5110   17.9310   -5.6860 O.2   316  VIR316     -0.2954
     34  O18       32.0240   20.9440   -5.9550 O.3   316  VIR316     -0.2227
     35  O27       30.6850   16.9040    1.9030 O.2   316  VIR316     -0.2222
     36  O36       33.9170   12.6920    2.3120 O.3   316  VIR316     -0.4508
     37  O38       34.8150   14.8160    2.2660 O.2   316  VIR316     -0.2483
     38  O7        36.7590   15.1390    0.0410 O.2   316  VIR316     -0.2673
@<TRIPOS>BOND
     1    34     7    1
     2    33     5    2
     3     6     7    1
     4     6     5    1
     5     7     8    1
     6     5     4    1
     7    11    10    1
     8     4     2    1
     9     8    10    1
    10    10    12    1
    11     2    32    1
    12     2    31    2
    13    32     3    1
    14    31    28    2
    15    12    13    1
    16     3    28    1
    17    13    14    1
    18    18    26    1
    19    18     9    1
    20    28    27    1
    21    26    30    1
    22    27    30   am
    23    27    38    2
    24    30     1    1
    25    14    29    1
    26     9     1    1
    27    29    15    2
    28     1    25    1
    29    15    16    1
    30    15    35    2
    31    16    17    2
    32    25    37    2
    33    25    36    1
    34    20    19    1
    35    36    21    1
    36    17    19    1
    37    19    21    1
    38    21    22    1
    39    22    23    1
    40    22    24    1
