@<TRIPOS>MOLECULE
4hut_ATP_A_1.pdb
 31 33 0 0 0
SMALL
GASTEIGER

@<TRIPOS>ATOM
      1  PG       -25.6120   -4.7630   17.7490 P.3   202  ATP202      0.5373
      2  O1G      -24.5830   -4.0160   16.9450 O.2   202  ATP202     -0.2221
      3  O2G      -25.2430   -5.0930   19.1520 O.3   202  ATP202     -0.1143
      4  O3G      -27.0380   -4.3510   17.5580 O.3   202  ATP202     -0.1143
      5  PB       -24.5880   -7.4140   17.2680 P.3   202  ATP202      0.2277
      6  O1B      -24.9580   -8.3610   18.3860 O.3   202  ATP202     -0.4368
      7  O2B      -23.1300   -6.9090   17.2540 O.2   202  ATP202     -0.5168
      8  O3B      -25.6620   -6.2320   17.1110 O.3   202  ATP202     -0.2258
      9  PA       -24.2140   -8.4110   14.5120 P.3   202  ATP202      0.2189
     10  O1A      -24.4730   -9.8150   13.9410 O.2   202  ATP202     -0.5170
     11  O2A      -22.8200   -7.7530   14.4680 O.3   202  ATP202     -0.4371
     12  O3A      -24.8760   -8.4050   16.0210 O.3   202  ATP202     -0.2700
     13  O5'      -25.1350   -7.2890   13.8510 O.3   202  ATP202     -0.3112
     14  C5'      -25.4660   -7.1260   12.4280 C.3   202  ATP202      0.1813
     15  C4'      -26.7680   -6.3230   12.3550 C.3   202  ATP202      0.1821
     16  O4'      -27.9640   -7.1220   12.5650 O.3   202  ATP202     -0.3135
     17  C3'      -26.9270   -5.1610   13.3400 C.3   202  ATP202      0.2184
     18  O3'      -27.8210   -4.1480   12.7910 O.3   202  ATP202     -0.2174
     19  C2'      -27.6520   -5.8030   14.4490 C.3   202  ATP202      0.2570
     20  O2'      -28.3460   -4.8880   15.3350 O.3   202  ATP202     -0.2130
     21  C1'      -28.6240   -6.7560   13.7770 C.3   202  ATP202      0.3186
     22  N9       -28.7260   -8.0280   14.4890 N.pl3 202  ATP202     -0.1439
     23  C8       -27.8690   -8.6100   15.3890 C.3   202  ATP202      0.3377
     24  N7       -28.3890   -9.8550   15.7240 N.2   202  ATP202     -0.2095
     25  C5       -29.5480  -10.0400   15.0160 C.2   202  ATP202      0.2526
     26  C6       -30.5800  -11.1360   14.8640 C.2   202  ATP202      0.4393
     27  N6       -30.4650  -12.2530   15.6190 N.pl3 202  ATP202      0.2180
     28  N1       -31.6440  -10.9180   14.0470 N.2   202  ATP202      0.0021
     29  C2       -31.7440   -9.7690   13.3310 C.3   202  ATP202      0.5254
     30  N3       -30.8310   -8.7350   13.3670 N.2   202  ATP202     -0.0055
     31  C4       -29.7420   -8.8470   14.2040 C.2   202  ATP202      0.3518
@<TRIPOS>BOND
     1    15    14    1
     2    15    16    1
     3    15    17    1
     4    14    13    1
     5    16    21    1
     6    18    17    1
     7    29    30    1
     8    29    28    1
     9    17    19    1
    10    30    31    2
    11    21    19    1
    12    21    22    1
    13    13     9    1
    14    10     9    2
    15    28    26    2
    16    31    22    1
    17    31    25    1
    18    19    20    1
    19    11     9    1
    20    22    23    1
    21     9    12    1
    22    26    25    1
    23    26    27    1
    24    25    24    2
    25    23    24    1
    26    12     5    1
    27     2     1    2
    28     8     5    1
    29     8     1    1
    30     7     5    2
    31     5     6    1
    32     4     1    1
    33     1     3    1
