@<TRIPOS>MOLECULE
4hv3_19L_A_1.pdb
 35 38 0 0 0
SMALL
GASTEIGER

@<TRIPOS>ATOM
      1  C        -23.9110    8.5960   -6.3990 C.1   301  19L301      0.2617
      2  N        -24.3050    7.8790   -5.3000 N.pl3 301  19L301     -0.0220
      3  O        -21.8480    8.1820   -9.1300 O.2   301  19L301     -0.2062
      4  C1       -22.6770    8.6610   -8.3050 C.1   301  19L301      0.2452
      5  N1       -23.0650    7.9420   -7.2440 N.2   301  19L301     -0.2474
      6  C2       -23.0880    9.9870   -8.5260 C.2   301  19L301      0.2585
      7  N2       -24.3040    9.8540   -6.4840 N.2   301  19L301     -0.2561
      8  O1       -25.5700   14.2960   -8.2110 O.2   301  19L301     -0.2658
      9  C3       -23.9840   10.5640   -7.5590 C.1   301  19L301      0.1811
     10  N3       -24.5470   11.7530   -7.7420 N.2   301  19L301     -0.3352
     11  C4       -24.2210   12.4840   -8.8460 C.2   301  19L301      0.2005
     12  N4       -22.7240   10.8510   -9.6080 N.2   301  19L301     -0.2401
     13  C5       -23.2180   12.0520   -9.7890 C.3   301  19L301      0.1914
     14  C6       -24.9410   13.7600   -9.0920 C.2   301  19L301      0.2937
     15  N5       -25.0360   14.1760  -10.4020 N.am  301  19L301     -0.1893
     16  C7       -25.7620   15.3370  -10.7980 C.3   301  19L301      0.2058
     17  C9       -27.2770   15.0800  -10.8580 C.2   301  19L301      0.2644
     18  O3       -27.9960   16.0920  -11.0440 O.2   301  19L301     -0.2714
     19  C8       -25.2270   15.8220  -12.1800 C.3   301  19L301      0.2130
     20  O2       -25.6420   14.8600  -13.1670 O.3   301  19L301     -0.2179
     21  N6       -27.7870   13.8860  -10.5900 N.am  301  19L301     -0.1937
     22  C10      -29.2460   13.7420  -10.5720 C.3   301  19L301      0.2022
     23  C20      -29.4780   12.7090   -9.4960 C.2   301  19L301      0.3845
     24  O4       -30.7460   12.5620   -9.0910 O.co2 301  19L301     -0.2437
     25  C11      -29.9400   13.3720  -11.9070 C.3   301  19L301      0.0612
     26  C12      -29.4980   12.0250  -12.4710 C.2   301  19L301      0.0004
     27  C13      -29.8510   10.7800  -12.0240 C.2   301  19L301      0.0946
     28  C15      -28.5060   11.7760  -13.5580 C.2   301  19L301      0.0113
     29  N7       -29.2230    9.7480  -12.6950 N.2   301  19L301     -0.2442
     30  C14      -28.4040   10.3080  -13.6280 C.2   301  19L301      0.0804
     31  C16      -27.7190   12.6530  -14.3280 C.2   301  19L301     -0.0202
     32  C19      -27.4980    9.7360  -14.5270 C.2   301  19L301      0.0148
     33  C17      -26.8850   12.0330  -15.2900 C.3   301  19L301      0.0521
     34  C18      -26.8160   10.6080  -15.3650 C.2   301  19L301     -0.0199
     35  O5       -28.6010   11.9650   -8.9830 O.co2 301  19L301     -0.2437
@<TRIPOS>BOND
     1    34    33    1
     2    34    32    2
     3    33    31    1
     4    32    30    1
     5    31    28    2
     6    30    28    1
     7    30    29    2
     8    28    26    1
     9    20    19    1
    10    29    27    1
    11    26    27    2
    12    26    25    1
    13    19    16    1
    14    25    22    1
    15    18    17    2
    16    17    16    1
    17    17    21   am
    18    16    15    1
    19    21    22    1
    20    22    23    1
    21    15    14   am
    22    13    12    1
    23    13    11    1
    24    12     6    2
    25    23    24   ar
    26    23    35   ar
    27     3     4    2
    28    14    11    1
    29    14     8    2
    30    11    10    2
    31     6     4    1
    32     6     9    1
    33     4     5    2
    34    10     9    2
    35     9     7    2
    36     5     1    2
    37     7     1    2
    38     1     2    1
