@<TRIPOS>MOLECULE
4hv4_AMP_A_1.pdb
 23 25 0 0 0
SMALL
GASTEIGER

@<TRIPOS>ATOM
      1  P         21.1730   35.2800   10.1750 P.3   501  AMP501      0.5327
      2  O1P       22.3250   35.5920   11.1030 O.3   501  AMP501     -0.1145
      3  O2P       19.8430   35.6160   10.8040 O.3   501  AMP501     -0.1145
      4  O3P       21.2010   33.9420    9.4910 O.2   501  AMP501     -0.2224
      5  O5'       21.4770   36.1970    8.8970 O.3   501  AMP501     -0.2675
      6  C5'       20.4540   36.4180    7.9150 C.3   501  AMP501      0.1860
      7  C4'       20.7460   37.7100    7.1640 C.3   501  AMP501      0.1823
      8  O4'       22.1600   37.8610    6.9970 O.3   501  AMP501     -0.3135
      9  C3'       20.1890   37.6410    5.7630 C.3   501  AMP501      0.2184
     10  O3'       19.9170   38.9600    5.2680 O.3   501  AMP501     -0.2174
     11  C2'       21.2980   37.0500    4.9200 C.3   501  AMP501      0.2570
     12  O2'       21.2990   37.6120    3.6030 O.3   501  AMP501     -0.2130
     13  C1'       22.5450   37.4830    5.6470 C.3   501  AMP501      0.3186
     14  N9        23.5700   36.4210    5.7660 N.pl3 501  AMP501     -0.1439
     15  C8        23.3930   35.1420    6.1600 C.3   501  AMP501      0.3377
     16  N7        24.5870   34.5240    6.1950 N.2   501  AMP501     -0.2095
     17  C5        25.5070   35.4420    5.8400 C.2   501  AMP501      0.2526
     18  C6        26.9780   35.4270    5.6990 C.2   501  AMP501      0.4393
     19  N6        27.6680   34.2880    5.9230 N.pl3 501  AMP501      0.2180
     20  N1        27.6000   36.5730    5.3120 N.2   501  AMP501      0.0021
     21  C2        26.8940   37.6930    5.0680 C.3   501  AMP501      0.5254
     22  N3        25.5550   37.7350    5.2040 N.2   501  AMP501     -0.0055
     23  C4        24.8630   36.6360    5.5770 C.2   501  AMP501      0.3518
@<TRIPOS>BOND
     1    12    11    1
     2    11    13    1
     3    11     9    1
     4    21    22    1
     5    21    20    1
     6    22    23    2
     7    10     9    1
     8    20    18    2
     9    23    14    1
    10    23    17    1
    11    13    14    1
    12    13     8    1
    13    18    17    1
    14    18    19    1
    15     9     7    1
    16    14    15    1
    17    17    16    2
    18    15    16    1
    19     8     7    1
    20     7     6    1
    21     6     5    1
    22     5     1    1
    23     4     1    2
    24     1     3    1
    25     1     2    1
