@<TRIPOS>MOLECULE
4hv7_19J_X_1.pdb
 23 24 0 0 0
SMALL
GASTEIGER

@<TRIPOS>ATOM
      1  C1        23.8700   -8.8480   -6.3700 C.1   301  19J301      0.2617
      2  N1        24.2250   -8.1530   -5.2580 N.pl3 301  19J301     -0.0220
      3  O1        21.8830   -8.3280   -9.2430 O.2   301  19J301     -0.2062
      4  C2        22.6450   -8.8680   -8.4120 C.1   301  19J301      0.2452
      5  N2        23.0550   -8.2390   -7.2910 N.2   301  19J301     -0.2474
      6  C3        23.1370  -10.2310   -8.6420 C.2   301  19J301      0.2585
      7  N3        24.3500  -10.0950   -6.5310 N.2   301  19J301     -0.2561
      8  O2        25.3720  -14.6180   -8.2330 O.2   301  19J301     -0.2658
      9  C4        24.0330  -10.8070   -7.6270 C.1   301  19J301      0.1811
     10  N4        24.4920  -12.0530   -7.8230 N.2   301  19J301     -0.3352
     11  C5        24.1430  -12.7410   -8.9250 C.2   301  19J301      0.2005
     12  N5        22.8010  -10.9420   -9.7360 N.2   301  19J301     -0.2401
     13  C6        23.3000  -12.1810   -9.8850 C.3   301  19J301      0.1914
     14  C7        24.7240  -14.1080   -9.1210 C.2   301  19J301      0.2937
     15  N6        24.5970  -14.6950  -10.3000 N.am  301  19J301     -0.1897
     16  C8        25.2720  -15.9400  -10.6230 C.3   301  19J301      0.2017
     17  C9        26.7740  -15.8320  -10.8240 C.2   301  19J301      0.2640
     18  O3        27.4630  -16.8410  -10.8340 O.2   301  19J301     -0.2714
     19  N7        27.3060  -14.6220  -10.9840 N.am  301  19J301     -0.1917
     20  C10       28.6910  -14.4470  -11.3920 C.3   301  19J301      0.2285
     21  C11       28.8950  -14.7050  -12.8740 C.2   301  19J301      0.3865
     22  O5        29.3110  -13.8120  -13.6010 O.co2 301  19J301     -0.2437
     23  O4        28.6280  -15.8990  -13.4130 O.co2 301  19J301     -0.2437
@<TRIPOS>BOND
     1    22    21   ar
     2    23    21   ar
     3    21    20    1
     4    20    19    1
     5    19    17   am
     6    18    17    2
     7    17    16    1
     8    16    15    1
     9    15    14   am
    10    13    12    1
    11    13    11    1
    12    12     6    2
    13     3     4    2
    14    14    11    1
    15    14     8    2
    16    11    10    2
    17     6     4    1
    18     6     9    1
    19     4     5    2
    20    10     9    2
    21     9     7    2
    22     5     1    2
    23     7     1    2
    24     1     2    1
