@<TRIPOS>MOLECULE
4hvc_HFG_A_1.pdb
 24 26 0 0 0
SMALL
GASTEIGER

@<TRIPOS>ATOM
      1  O4'       -0.9360   12.0380   22.7190 O.2   1602  HFG1602    -0.2942
      2  C21       -2.0550   12.3510   23.1320 C.2   1602  HFG1602     0.1722
      3  C3'       -3.1680   11.3130   23.2190 C.3   1602  HFG1602     0.0862
      4  C2'       -2.7210    9.8640   23.4520 C.3   1602  HFG1602     0.1104
      5  N1'       -2.0620    9.3040   22.2820 N.3   1602  HFG1602    -0.2164
      6  C6'       -1.6750    7.9020   22.3130 C.3   1602  HFG1602     0.0888
      7  C5'       -0.8740    7.5510   23.5700 C.3   1602  HFG1602     0.0215
      8  C4'       -1.4770    8.1730   24.8380 C.3   1602  HFG1602     0.0358
      9  C39       -1.8230    9.6540   24.6720 C.3   1602  HFG1602     0.1683
     10  O7'       -2.4750   10.1370   25.8540 O.3   1602  HFG1602    -0.2216
     11  C1'       -2.3600   13.7900   23.5420 C.3   1602  HFG1602     0.1600
     12  N3        -1.3750   14.6400   22.8720 N.am  1602  HFG1602    -0.2480
     13  C4        -1.4600   14.8390   21.4740 C.2   1602  HFG1602     0.2519
     14  O11       -2.3650   14.3410   20.7800 O.2   1602  HFG1602    -0.2698
     15  C10       -0.4340   15.6730   20.8320 C.2   1602  HFG1602     0.0680
     16  C5        -0.4490   15.9120   19.4640 C.2   1602  HFG1602     0.0173
     17  C2        -0.3790   15.1900   23.5920 C.3   1602  HFG1602     0.2221
     18  N1         0.5850   15.9510   23.0400 N.2   1602  HFG1602    -0.2518
     19  C9         0.6170   16.2260   21.7230 C.2   1602  HFG1602     0.0650
     20  C8         1.6180   17.0110   21.1870 C.3   1602  HFG1602     0.0795
     21  C7         1.5940   17.2570   19.8260 C.2   1602  HFG1602     0.0289
     22 BR1         2.9430   18.2990   19.0490 Br    1602  HFG1602    -0.0524
     23  C6         0.5480   16.7070   18.9360 C.2   1602  HFG1602     0.0604
     24 CL1         0.6020   17.0760   17.1800 Cl    1602  HFG1602    -0.0820
@<TRIPOS>BOND
     1    24    23    1
     2    23    16    1
     3    23    21    2
     4    22    21    1
     5    16    15    2
     6    21    20    1
     7    14    13    2
     8    15    13    1
     9    15    19    1
    10    20    19    1
    11    13    12   am
    12    19    18    2
    13     5     6    1
    14     5     4    1
    15     6     7    1
    16     1     2    2
    17    12    11    1
    18    12    17    1
    19    18    17    1
    20     2     3    1
    21     2    11    1
    22     3     4    1
    23     4     9    1
    24     7     8    1
    25     9     8    1
    26     9    10    1
