@<TRIPOS>MOLECULE
4hvc_ANP_A_1.pdb
 31 33 0 0 0
SMALL
GASTEIGER

@<TRIPOS>ATOM
      1  PG         0.9010   17.2210   29.9650 P.3   1601  ANP1601     0.4884
      2  O1G        2.0540   17.4990   29.0230 O.2   1601  ANP1601    -0.2331
      3  O2G        1.2380   17.1460   31.4300 O.3   1601  ANP1601    -0.1240
      4  O3G       -0.3050   18.0640   29.6070 O.3   1601  ANP1601    -0.1240
      5  PB        -0.0810   15.0570   28.0980 P.3   1601  ANP1601     0.4669
      6  O1B        0.6790   15.8860   27.0890 O.2   1601  ANP1601    -0.2351
      7  O2B       -1.5840   15.0900   28.0240 O.3   1601  ANP1601    -0.1253
      8  N3B        0.4070   15.5730   29.6860 N.3   1601  ANP1601    -0.0163
      9  PA        -0.2480   12.4600   26.9480 P.3   1601  ANP1601     0.2220
     10  O1A        0.1130   12.9630   25.5830 O.2   1601  ANP1601    -0.5170
     11  O2A       -1.6840   12.2040   27.2930 O.3   1601  ANP1601    -0.4370
     12  O3A        0.3540   13.5000   28.0320 O.3   1601  ANP1601    -0.2360
     13  O5'        0.4690   11.0590   27.2250 O.3   1601  ANP1601    -0.3111
     14  C5'        1.7810   10.9940   27.7180 C.3   1601  ANP1601     0.1813
     15  C4'        1.8460   10.4010   29.1170 C.3   1601  ANP1601     0.1821
     16  O4'        3.2490   10.4480   29.3230 O.3   1601  ANP1601    -0.3135
     17  C3'        1.2200   11.2490   30.2290 C.3   1601  ANP1601     0.2184
     18  O3'        0.2610   10.5020   30.9900 O.3   1601  ANP1601    -0.2174
     19  C2'        2.3620   11.6390   31.1470 C.3   1601  ANP1601     0.2570
     20  O2'        2.4310   10.7610   32.2750 O.3   1601  ANP1601    -0.2130
     21  C1'        3.6140   11.3640   30.3480 C.3   1601  ANP1601     0.3186
     22  N9         4.2140   12.5440   29.6880 N.pl3 1601  ANP1601    -0.1439
     23  C8         3.5930   13.5570   29.0480 C.3   1601  ANP1601     0.3377
     24  N7         4.4970   14.4410   28.5710 N.2   1601  ANP1601    -0.2095
     25  C5         5.7190   13.9890   28.9030 C.2   1601  ANP1601     0.2526
     26  C6         7.1180   14.4340   28.7170 C.2   1601  ANP1601     0.4393
     27  N6         7.3940   15.5710   28.0460 N.pl3 1601  ANP1601     0.2180
     28  N1         8.1080   13.6570   29.2180 N.2   1601  ANP1601     0.0021
     29  C2         7.8550   12.5160   29.8840 C.3   1601  ANP1601     0.5254
     30  N3         6.6100   12.0560   30.0940 N.2   1601  ANP1601    -0.0055
     31  C4         5.5280   12.7350   29.6320 C.2   1601  ANP1601     0.3518
@<TRIPOS>BOND
     1    10     9    2
     2     9    13    1
     3     9    11    1
     4     9    12    1
     5     6     5    2
     6    13    14    1
     7    14    15    1
     8     7     5    1
     9    12     5    1
    10    27    26    1
    11     5     8    1
    12    24    25    2
    13    24    23    1
    14    26    25    1
    15    26    28    2
    16    25    31    1
    17     2     1    2
    18    23    22    1
    19    15    16    1
    20    15    17    1
    21    28    29    1
    22    16    21    1
    23     4     1    1
    24    31    22    1
    25    31    30    2
    26     8     1    1
    27    22    21    1
    28    29    30    1
    29     1     3    1
    30    17    18    1
    31    17    19    1
    32    21    19    1
    33    19    20    1
