@<TRIPOS>MOLECULE
4hvd_PHU_A_1.pdb
 10 10 0 0 0
SMALL
GASTEIGER

@<TRIPOS>ATOM
      1  C1         7.0730  -22.3240  -28.2990 C.2   1201  PHU1201     0.3632
      2  C2         8.1600  -24.3490  -27.3720 C.ar  1201  PHU1201     0.0750
      3  C3         8.1720  -24.9870  -26.1260 C.ar  1201  PHU1201     0.0167
      4  C4         8.4280  -25.0940  -28.5230 C.ar  1201  PHU1201     0.0167
      5  C5         8.7010  -26.4520  -28.4120 C.ar  1201  PHU1201     0.0013
      6  C6         8.4440  -26.3430  -26.0210 C.ar  1201  PHU1201     0.0013
      7  C7         8.7070  -27.0770  -27.1670 C.ar  1201  PHU1201     0.0001
      8  N1         7.8760  -22.9700  -27.4070 N.am  1201  PHU1201    -0.1596
      9  N2         6.8980  -20.9910  -28.1610 N.am  1201  PHU1201    -0.0676
     10  O1         6.5040  -22.9000  -29.2200 O.2   1201  PHU1201    -0.2471
@<TRIPOS>BOND
     1    10     1    2
     2     4     5   ar
     3     4     2   ar
     4     5     7   ar
     5     1     9   am
     6     1     8   am
     7     8     2    1
     8     2     3   ar
     9     7     6   ar
    10     3     6   ar
