@<TRIPOS>MOLECULE
4hvd_933_A_1.pdb
 21 23 0 0 0
SMALL
GASTEIGER

@<TRIPOS>ATOM
      1  N1        -2.5420  -14.1910   -2.9650 N.2   1202  9331202    -0.2106
      2  C2        -2.5830  -15.5120   -3.0440 C.3   1202  9331202     0.1902
      3  C3        -1.4890  -16.2390   -3.5060 C.2   1202  9331202     0.1124
      4  N4        -0.3810  -15.6060   -3.8580 N.2   1202  9331202    -0.3983
      5  C5        -1.4340  -13.5390   -3.3250 C.1   1202  9331202     0.0621
      6  C6        -0.3210  -14.2810   -3.7840 C.2   1202  9331202     0.1976
      7  C7         0.7280  -13.3020   -4.0960 C.2   1202  9331202     0.1140
      8  C8         0.1950  -12.0720   -3.8260 C.2   1202  9331202     0.1175
      9  N9        -1.0800  -12.2110   -3.3600 N.2   1202  9331202    -0.1901
     10  C10       -1.5740  -17.7450   -3.5760 C.3   1202  9331202     0.0503
     11  C11       -0.9150  -18.4610   -4.7600 C.3   1202  9331202     0.0071
     12  C12       -0.2820  -18.5370   -3.3650 C.3   1202  9331202     0.0071
     13  C13        2.0510  -13.6480   -4.6290 C.2   1202  9331202     0.2695
     14  N14        2.2790  -14.9630   -4.8710 N.am  1202  9331202    -0.2033
     15  O15        2.8890  -12.7890   -4.8560 O.2   1202  9331202    -0.2682
     16  C16        3.5110  -15.5210   -5.4450 C.3   1202  9331202     0.0956
     17  C17        3.2050  -15.9840   -6.8900 C.3   1202  9331202     0.0185
     18  C18        2.7250  -14.7860   -7.7210 C.3   1202  9331202     0.0017
     19  C19        4.4610  -16.5270   -7.5750 C.3   1202  9331202     0.0017
     20  C20        2.1180  -17.0660   -6.9360 C.3   1202  9331202     0.0017
     21  C21        4.0060  -16.6720   -4.5550 C.3   1202  9331202     0.0234
@<TRIPOS>BOND
     1    18    17    1
     2    19    17    1
     3    20    17    1
     4    17    16    1
     5    16    14    1
     6    16    21    1
     7    14    13   am
     8    15    13    2
     9    11    10    1
    10    11    12    1
    11    13     7    1
    12     7     8    2
    13     7     6    1
    14     4     6    2
    15     4     3    2
    16     8     9    1
    17     6     5    1
    18    10     3    1
    19    10    12    1
    20     3     2    1
    21     9     5    2
    22     5     1    2
    23     2     1    1
