@<TRIPOS>MOLECULE
4hvg_19Q_A_1.pdb
 21 23 0 0 0
SMALL
GASTEIGER

@<TRIPOS>ATOM
      1  C1         0.6510  -13.5190   -4.1670 C.2   1201  19Q1201     0.1140
      2  C2         0.1020  -12.2920   -3.9310 C.2   1201  19Q1201     0.1175
      3  N3        -1.2010  -12.4440   -3.5100 N.2   1201  19Q1201    -0.1901
      4  C4        -0.3870  -14.5150   -3.8740 C.2   1201  19Q1201     0.1976
      5  C5        -1.5380  -13.7980   -3.4570 C.1   1201  19Q1201     0.0621
      6  N6        -2.6510  -14.4810   -3.1060 N.2   1201  19Q1201    -0.2106
      7  C7        -2.6680  -15.8080   -3.1590 C.3   1201  19Q1201     0.1902
      8  C8        -1.5380  -16.4990   -3.5800 C.2   1201  19Q1201     0.1124
      9  N9        -0.4200  -15.8340   -3.9220 N.2   1201  19Q1201    -0.3983
     10  C10        2.0020  -13.8590   -4.6440 C.2   1201  19Q1201     0.2695
     11  N11        2.1850  -15.1770   -4.8970 N.am  1201  19Q1201    -0.2008
     12  O12        2.8870  -13.0180   -4.8080 O.2   1201  19Q1201    -0.2682
     13  C13        3.4240  -15.7350   -5.4330 C.3   1201  19Q1201     0.1235
     14  C14        3.8760  -16.9330   -4.5730 C.3   1201  19Q1201     0.0260
     15  C15        3.1120  -16.1720   -6.9000 C.3   1201  19Q1201     0.1450
     16  C16        1.8600  -17.0690   -7.0110 C.3   1201  19Q1201     0.0347
     17  C17        2.7840  -14.9570   -7.7540 C.3   1201  19Q1201     0.0347
     18  O18        4.2720  -16.8680   -7.4240 O.3   1201  19Q1201    -0.2239
     19  C19       -1.5720  -18.0120   -3.6410 C.3   1201  19Q1201     0.0503
     20  C20       -1.0430  -18.7110   -4.8960 C.3   1201  19Q1201     0.0071
     21  C21       -0.2070  -18.7400   -3.6080 C.3   1201  19Q1201     0.0071
@<TRIPOS>BOND
     1    17    15    1
     2    18    15    1
     3    16    15    1
     4    15    13    1
     5    13    11    1
     6    13    14    1
     7    11    10   am
     8    20    19    1
     9    20    21    1
    10    12    10    2
    11    10     1    1
    12     1     2    2
    13     1     4    1
    14     2     3    1
    15     9     4    2
    16     9     8    2
    17     4     5    1
    18    19    21    1
    19    19     8    1
    20     8     7    1
    21     3     5    2
    22     5     6    2
    23     7     6    1
