@<TRIPOS>MOLECULE
4hvh_19R_A_1.pdb
 21 23 0 0 0
SMALL
GASTEIGER

@<TRIPOS>ATOM
      1  C1        -2.6400  -15.4800   -3.0690 C.3   1201  19R1201     0.1902
      2  C2        -1.6140  -16.2060   -3.6600 C.2   1201  19R1201     0.1124
      3  N3        -0.5440  -15.5790   -4.1140 N.2   1201  19R1201    -0.3983
      4  N4        -2.5860  -14.1620   -2.9550 N.2   1201  19R1201    -0.2106
      5  C5        -1.5190  -13.5090   -3.4130 C.1   1201  19R1201     0.0621
      6  C6        -0.4650  -14.2450   -4.0070 C.2   1201  19R1201     0.1976
      7  C7         0.5350  -13.2440   -4.3840 C.2   1201  19R1201     0.1140
      8  C8         0.0410  -12.0250   -4.0130 C.2   1201  19R1201     0.1175
      9  N9        -1.1700  -12.1780   -3.4340 N.2   1201  19R1201    -0.1901
     10  C10        1.8090  -13.4930   -5.0660 C.2   1201  19R1201     0.2695
     11  O11        2.6070  -12.5790   -5.2010 O.2   1201  19R1201    -0.2682
     12  C12       -1.7520  -17.7060   -3.7520 C.3   1201  19R1201     0.0503
     13  N13        2.0350  -14.7320   -5.5540 N.am  1201  19R1201    -0.2008
     14  C14       -1.0660  -18.4290   -4.9170 C.3   1201  19R1201     0.0071
     15  C15       -0.5140  -18.5650   -3.4910 C.3   1201  19R1201     0.0071
     16  C16        3.2530  -15.1170   -6.2850 C.3   1201  19R1201     0.1235
     17  C17        3.6120  -16.5860   -5.9860 C.3   1201  19R1201     0.1450
     18  C18        4.6920  -17.0810   -6.9600 C.3   1201  19R1201     0.0347
     19  C19        4.1230  -16.7180   -4.5460 C.3   1201  19R1201     0.0347
     20  O20        2.4530  -17.4070   -6.1070 O.3   1201  19R1201    -0.2239
     21  C21        2.9780  -14.9270   -7.7850 C.3   1201  19R1201     0.0260
@<TRIPOS>BOND
     1    21    16    1
     2    18    17    1
     3    16    17    1
     4    16    13    1
     5    20    17    1
     6    17    19    1
     7    13    10   am
     8    11    10    2
     9    10     7    1
    10    14    12    1
    11    14    15    1
    12     7     8    2
    13     7     6    1
    14     3     6    2
    15     3     2    2
    16     8     9    1
    17     6     5    1
    18    12     2    1
    19    12    15    1
    20     2     1    1
    21     9     5    2
    22     5     4    2
    23     1     4    1
