@<TRIPOS>MOLECULE
4hvi_19S_A_1.pdb
 25 28 0 0 0
SMALL
GASTEIGER

@<TRIPOS>ATOM
      1  N1         5.3540  -16.0890   -5.5840 N.am  1201  19S1201    -0.2782
      2  C2         6.1610  -15.2020   -6.4320 C.3   1201  19S1201     0.0934
      3  C3         7.1600  -14.5010   -5.5090 C.3   1201  19S1201     0.0216
      4  C4         8.0360  -15.5530   -4.8150 C.3   1201  19S1201     0.0035
      5  C5         7.2170  -16.6180   -4.0670 C.3   1201  19S1201     0.0216
      6  C6         6.0760  -17.1920   -4.9350 C.3   1201  19S1201     0.0934
      7  N7        -2.5350  -14.2800   -3.0510 N.2   1201  19S1201    -0.2106
      8  C8        -1.2720  -16.1750   -3.7370 C.2   1201  19S1201     0.1124
      9  C9        -2.4230  -15.6060   -3.1920 C.3   1201  19S1201     0.1902
     10  N10       -0.2630  -15.3960   -4.1300 N.2   1201  19S1201    -0.3983
     11  C11       -0.3650  -14.0710   -4.0040 C.2   1201  19S1201     0.1976
     12  C12       -1.5310  -13.4810   -3.4500 C.1   1201  19S1201     0.0621
     13  N13       -1.3390  -12.1110   -3.4490 N.2   1201  19S1201    -0.1901
     14  C14       -0.1230  -11.8150   -3.9890 C.2   1201  19S1201     0.1175
     15  C15        0.5350  -12.9630   -4.3340 C.2   1201  19S1201     0.1140
     16  C16        1.8490  -13.1240   -4.9750 C.2   1201  19S1201     0.2699
     17  N17        2.1250  -14.3530   -5.4270 N.am  1201  19S1201    -0.1939
     18  O18        2.6350  -12.2040   -5.1260 O.2   1201  19S1201    -0.2682
     19  C19        3.3400  -14.7410   -6.1370 C.3   1201  19S1201     0.1716
     20  C20       -1.1870  -17.6730   -3.8990 C.3   1201  19S1201     0.0503
     21  C21       -0.4850  -18.1880   -5.1630 C.3   1201  19S1201     0.0071
     22  C22        0.1630  -18.3930   -3.7840 C.3   1201  19S1201     0.0071
     23  C23        4.0160  -15.8860   -5.4180 C.2   1201  19S1201     0.2455
     24  C24        2.8670  -15.2650   -7.5040 C.3   1201  19S1201     0.0333
     25  O25        3.3230  -16.6190   -4.7190 O.2   1201  19S1201    -0.2730
@<TRIPOS>BOND
     1    24    19    1
     2     2     1    1
     3     2     3    1
     4    19    17    1
     5    19    23    1
     6     1    23   am
     7     1     6    1
     8     3     4    1
     9    17    16   am
    10    23    25    2
    11    21    20    1
    12    21    22    1
    13    18    16    2
    14    16    15    1
    15     6     5    1
    16     4     5    1
    17    15    11    1
    18    15    14    2
    19    10    11    2
    20    10     8    2
    21    11    12    1
    22    14    13    1
    23    20    22    1
    24    20     8    1
    25     8     9    1
    26    12    13    2
    27    12     7    2
    28     9     7    1
