@<TRIPOS>MOLECULE
4hvj_AMP_A_1.pdb
 23 25 0 0 0
SMALL
GASTEIGER

@<TRIPOS>ATOM
      1  P         -5.4690   11.3770   76.9040 P.3   300  AMP300      0.5327
      2  O1P       -6.9340   11.1370   77.1950 O.3   300  AMP300     -0.1145
      3  O2P       -4.7200   12.3520   77.8100 O.3   300  AMP300     -0.1145
      4  O3P       -5.2100   11.7200   75.4440 O.2   300  AMP300     -0.2224
      5  O5'       -4.9370    9.8650   77.2020 O.3   300  AMP300     -0.2675
      6  C5'       -3.7160    9.5370   77.8670 C.3   300  AMP300      0.1860
      7  C4'       -3.2470    8.1100   77.5620 C.3   300  AMP300      0.1823
      8  O4'       -4.0940    7.1670   78.2440 O.3   300  AMP300     -0.3135
      9  C3'       -3.2380    7.7050   76.0800 C.3   300  AMP300      0.2184
     10  O3'       -2.0120    8.0260   75.3850 O.3   300  AMP300     -0.2174
     11  C2'       -3.5690    6.2010   76.1100 C.3   300  AMP300      0.2570
     12  O2'       -2.4340    5.3110   76.1300 O.3   300  AMP300     -0.2130
     13  C1'       -4.4010    6.0520   77.3870 C.3   300  AMP300      0.3186
     14  N9        -5.8440    6.0550   77.0150 N.pl3 300  AMP300     -0.1439
     15  C8        -6.7430    7.0590   77.1960 C.3   300  AMP300      0.3377
     16  N7        -7.9550    6.6890   76.7170 N.2   300  AMP300     -0.2095
     17  C5        -7.8380    5.4460   76.2220 C.2   300  AMP300      0.2526
     18  C6        -8.7300    4.4580   75.5790 C.2   300  AMP300      0.4393
     19  N6       -10.0240    4.7690   75.3680 N.pl3 300  AMP300      0.2180
     20  N1        -8.2130    3.2650   75.1990 N.2   300  AMP300      0.0021
     21  C2        -6.9160    2.9490   75.3950 C.3   300  AMP300      0.5254
     22  N3        -6.0550    3.7970   75.9960 N.2   300  AMP300     -0.0055
     23  C4        -6.4480    5.0290   76.4160 C.2   300  AMP300      0.3518
@<TRIPOS>BOND
     1    20    21    1
     2    20    18    2
     3    19    18    1
     4    10     9    1
     5    21    22    1
     6     4     1    2
     7    18    17    1
     8    22    23    2
     9     9    11    1
    10     9     7    1
    11    11    12    1
    12    11    13    1
    13    17    23    1
    14    17    16    2
    15    23    14    1
    16    16    15    1
    17     1     2    1
    18     1     5    1
    19     1     3    1
    20    14    15    1
    21    14    13    1
    22     5     6    1
    23    13     8    1
    24     7     6    1
    25     7     8    1
