@<TRIPOS>MOLECULE
4hvk_PMP_A_1.pdb
 16 16 0 0 0
SMALL
GASTEIGER

@<TRIPOS>ATOM
      1  N1        24.6400   18.7080   16.2810 N.ar  404  PMP404     -0.2452
      2  C2        23.6050   18.0470   15.9590 C.ar  404  PMP404      0.0978
      3  C2A       23.1000   18.2990   14.5730 C.3   404  PMP404      0.0555
      4  C3        22.8950   17.2740   16.9060 C.ar  404  PMP404      0.2063
      5  O3        21.8440   16.6160   16.4330 O.3   404  PMP404     -0.2856
      6  C4        23.5150   17.1550   18.2600 C.ar  404  PMP404      0.0369
      7  C4A       22.8970   16.3080   19.3230 C.3   404  PMP404      0.1386
      8  N4A       22.7950   15.0560   18.7000 N.3   404  PMP404     -0.1261
      9  C5        24.7660   17.8590   18.4870 C.ar  404  PMP404      0.0275
     10  C6        25.2380   18.7110   17.5560 C.ar  404  PMP404      0.0965
     11  C5A       25.4220   17.9290   19.8280 C.3   404  PMP404      0.1816
     12  O4P       25.7340   16.5480   20.0080 O.3   404  PMP404     -0.2653
     13  P         26.2360   15.9460   21.4650 P.3   404  PMP404      0.5329
     14  O1P       26.5930   14.4280   21.0370 O.2   404  PMP404     -0.2224
     15  O2P       27.4600   16.6390   22.0480 O.3   404  PMP404     -0.1145
     16  O3P       25.0360   16.1690   22.3700 O.3   404  PMP404     -0.1145
@<TRIPOS>BOND
     1     3     2    1
     2     2     1   ar
     3     2     4   ar
     4     1    10   ar
     5     5     4    1
     6     4     6   ar
     7    10     9   ar
     8     6     9   ar
     9     6     7    1
    10     9    11    1
    11     8     7    1
    12    11    12    1
    13    12    13    1
    14    14    13    2
    15    13    15    1
    16    13    16    1
