@<TRIPOS>MOLECULE
4hvx_QEI_A_1.pdb
 13 14 0 0 0
SMALL
GASTEIGER

@<TRIPOS>ATOM
      1  C6        19.1750   17.0780   20.1280 C.3   405  QEI405      0.1351
      2  C9        17.1520   16.6170   21.7320 C.3   405  QEI405      0.2372
      3  C10       15.8290   16.2570   21.4910 C.1   405  QEI405      0.0973
      4  C11       17.5820   16.7980   23.0580 C.1   405  QEI405      0.2101
      5  N1        19.2870   16.9460   18.6620 N.3   405  QEI405     -0.1264
      6  C7        17.7520   16.7220   20.4700 C.2   405  QEI405      0.0258
      7  C8        16.7850   16.4190   19.5170 C.2   405  QEI405      0.1053
      8  N2        15.6320   16.1470   20.1680 N.2   405  QEI405     -0.1847
      9  N3        14.9780   16.0920   22.5250 N.2   405  QEI405     -0.2733
     10  C12       15.4200   16.2740   23.7880 C.1   405  QEI405      0.2602
     11  N5        14.4460   16.0730   24.8780 N.pl3 405  QEI405     -0.0221
     12  N4        16.6980   16.6130   24.0550 N.2   405  QEI405     -0.2525
     13  O3        18.7670   17.1240   23.3370 O.2   405  QEI405     -0.2120
@<TRIPOS>BOND
     1     5     1    1
     2     7     8    1
     3     7     6    2
     4     1     6    1
     5     8     3    2
     6     6     2    1
     7     3     2    1
     8     3     9    2
     9     2     4    1
    10     9    10    2
    11     4    13    2
    12     4    12    2
    13    10    12    2
    14    10    11    1
