@<TRIPOS>MOLECULE
4hw2_19H_A_1.pdb
 26 28 0 0 0
SMALL
GASTEIGER

@<TRIPOS>ATOM
      1  OAC        3.7600  -49.5330    7.5860 O.co2 401  19H401     -0.2377
      2  CAQ        2.9430  -48.9400    6.7730 C.2   401  19H401      0.4165
      3  OAD        3.5330  -47.9320    6.2220 O.co2 401  19H401     -0.2377
      4  CAW        1.7290  -49.2630    6.5600 C.2   401  19H401      0.2067
      5  NAO        1.2340  -50.5470    6.7450 N.2   401  19H401     -0.3955
      6  CAY       -0.1110  -50.6150    6.4660 C.ar  401  19H401      0.1322
      7  CAK       -0.9270  -51.6300    6.5230 C.ar  401  19H401      0.0434
      8  CAT       -2.2910  -51.4890    6.2030 C.ar  401  19H401      0.0602
      9 CL2        -3.3730  -52.8300    6.2960 Cl    401  19H401     -0.0822
     10  CAG       -2.7220  -50.2300    5.8260 C.ar  401  19H401      0.0116
     11  CAH       -1.7440  -49.1970    5.7920 C.ar  401  19H401      0.0032
     12  CAZ       -0.4770  -49.3850    6.1030 C.ar  401  19H401      0.0283
     13  CAX        0.6300  -48.6620    6.1910 C.2   401  19H401      0.0166
     14  CAN        0.6710  -47.1110    5.7890 C.3   401  19H401      0.0331
     15  CAL        0.5970  -46.0940    6.9260 C.3   401  19H401      0.0521
     16  CAM       -0.8190  -45.8160    7.4150 C.3   401  19H401      0.2057
     17  OAP       -1.7580  -45.6270    6.3100 O.3   401  19H401     -0.4755
     18  CAU       -2.9990  -45.3600    6.6860 C.ar  401  19H401      0.1380
     19  CAI       -3.5450  -45.8500    7.8670 C.ar  401  19H401      0.0335
     20  CAR       -4.9010  -45.5940    8.2350 C.ar  401  19H401     -0.0086
     21  CAA       -5.3490  -46.0550    9.3820 C.3   401  19H401      0.0320
     22  CAV       -5.6660  -44.8270    7.3110 C.ar  401  19H401      0.0499
     23 CL1        -7.2880  -44.4330    7.6530 Cl    401  19H401     -0.0829
     24  CAS       -5.1630  -44.3310    6.0660 C.ar  401  19H401     -0.0086
     25  CAB       -5.8960  -43.6320    5.2320 C.3   401  19H401      0.0320
     26  CAJ       -3.8090  -44.6640    5.7800 C.ar  401  19H401      0.0335
@<TRIPOS>BOND
     1    25    24    1
     2    26    24   ar
     3    26    18   ar
     4    14    13    1
     5    14    15    1
     6    11    10   ar
     7    11    12   ar
     8    10     8   ar
     9    24    22   ar
    10    12    13    2
    11    12     6   ar
    12    13     4    1
    13     8     9    1
    14     8     7   ar
    15     3     2   ar
    16    17    18    1
    17    17    16    1
    18     6     7   ar
    19     6     5    2
    20     4     5    2
    21     4     2    1
    22    18    19   ar
    23     2     1   ar
    24    15    16    1
    25    22    23    1
    26    22    20   ar
    27    19    20   ar
    28    20    21    1
