@<TRIPOS>MOLECULE
4hw3_19G_A_1.pdb
 25 27 0 0 0
SMALL
GASTEIGER

@<TRIPOS>ATOM
      1  OAC       34.2990   -7.9750   18.8340 O.co2 400  19G400     -0.2400
      2  CAQ       35.1510   -8.3700   19.6660 C.2   400  19G400      0.3933
      3  OAD       36.1100   -9.0960   19.2990 O.co2 400  19G400     -0.2400
      4  CAW       34.9500   -7.9270   21.0700 C.ar  400  19G400      0.1053
      5  S         33.4380   -7.5230   21.7050 S.2   400  19G400     -0.0807
      6  CAX       33.8970   -7.0980   23.2830 C.ar  400  19G400      0.0293
      7  CAH       33.2060   -6.6510   24.4070 C.ar  400  19G400      0.0065
      8  CAF       33.8750   -6.3910   25.5950 C.ar  400  19G400      0.0005
      9  CAG       35.2640   -6.5680   25.6470 C.ar  400  19G400      0.0000
     10  CAI       35.9680   -6.9970   24.5290 C.ar  400  19G400      0.0002
     11  CAY       35.2930   -7.2720   23.3400 C.ar  400  19G400      0.0027
     12  CAV       35.8870   -7.7310   22.1150 C.ar  400  19G400     -0.0092
     13  CAN       37.3510   -7.9920   21.9630 C.3   400  19G400      0.0309
     14  CAL       37.7700   -9.4210   22.1080 C.3   400  19G400      0.0520
     15  CAM       37.8260  -10.0100   23.4830 C.3   400  19G400      0.2057
     16  OAO       38.7230   -9.3180   24.2740 O.3   400  19G400     -0.4755
     17  CAT       38.9470   -9.6210   25.5900 C.ar  400  19G400      0.1380
     18  CAJ       38.0490  -10.3920   26.2950 C.ar  400  19G400      0.0335
     19  CAR       38.3180  -10.6800   27.6320 C.ar  400  19G400     -0.0086
     20  CAA       37.3480  -11.5030   28.4200 C.3   400  19G400      0.0320
     21  CAU       39.4700  -10.2020   28.2590 C.ar  400  19G400      0.0499
     22 CL         39.8080  -10.5630   29.9270 Cl    400  19G400     -0.0829
     23  CAS       40.3630   -9.4280   27.5350 C.ar  400  19G400     -0.0086
     24  CAB       41.5970   -8.9100   28.2090 C.3   400  19G400      0.0320
     25  CAK       40.1020   -9.1430   26.1950 C.ar  400  19G400      0.0335
@<TRIPOS>BOND
     1     1     2   ar
     2     3     2   ar
     3     2     4    1
     4     4     5   ar
     5     4    12   ar
     6     5     6   ar
     7    13    14    1
     8    13    12    1
     9    14    15    1
    10    12    11   ar
    11     6    11   ar
    12     6     7   ar
    13    11    10   ar
    14    15    16    1
    15    16    17    1
    16     7     8   ar
    17    10     9   ar
    18    17    25   ar
    19    17    18   ar
    20     8     9   ar
    21    25    23   ar
    22    18    19   ar
    23    23    24    1
    24    23    21   ar
    25    19    21   ar
    26    19    20    1
    27    21    22    1
