@<TRIPOS>MOLECULE
4hw8_MAL_A_1.pdb
 23 24 0 0 0
SMALL
GASTEIGER

@<TRIPOS>ATOM
      1  C1        63.2660  -20.8550   -9.4610 C.3   506  MAL506      0.2695
      2  C2        64.4600  -21.7010   -9.8980 C.3   506  MAL506      0.2406
      3  C3        64.6670  -21.6690  -11.4130 C.3   506  MAL506      0.2198
      4  C4        63.3600  -21.8700  -12.1810 C.3   506  MAL506      0.2144
      5  C5        62.2700  -20.9470  -11.6340 C.3   506  MAL506      0.1835
      6  C6        60.9200  -21.1520  -12.3190 C.3   506  MAL506      0.2142
      7  O1        63.5540  -19.4730   -9.6600 O.3   506  MAL506     -0.3257
      8  O2        65.6570  -21.2420   -9.2510 O.3   506  MAL506     -0.2149
      9  O3        65.6050  -22.6960  -11.7540 O.3   506  MAL506     -0.2174
     10  O4        63.5750  -21.6270  -13.5780 O.3   506  MAL506     -0.2176
     11  O5        62.1150  -21.1920  -10.2320 O.3   506  MAL506     -0.3256
     12  O6        61.0630  -20.9910  -13.7340 O.3   506  MAL506     -0.2176
     13  C1'       63.1810  -16.0290   -7.2620 C.3   506  MAL506      0.3023
     14  C2'       64.3820  -16.9510   -6.9900 C.3   506  MAL506      0.2433
     15  C3'       64.6050  -18.0480   -8.0280 C.3   506  MAL506      0.2168
     16  C4'       63.2870  -18.6190   -8.5480 C.3   506  MAL506      0.1804
     17  C5'       62.3860  -17.4750   -8.9800 C.3   506  MAL506      0.1804
     18  C6'       61.1160  -17.9470   -9.6790 C.3   506  MAL506      0.2141
     19  O1'       63.5610  -14.9540   -8.1400 O.3   506  MAL506     -0.1869
     20  O2'       65.5650  -16.1440   -6.9550 O.3   506  MAL506     -0.2148
     21  O3'       65.4120  -19.0910   -7.4590 O.3   506  MAL506     -0.2175
     22  O5'       62.0560  -16.7340   -7.8060 O.3   506  MAL506     -0.3237
     23  O6'       60.2020  -16.8460   -9.7800 O.3   506  MAL506     -0.2176
@<TRIPOS>BOND
     1    12     6    1
     2    10     4    1
     3     6     5    1
     4     4     5    1
     5     4     3    1
     6     9     3    1
     7     5    11    1
     8     3     2    1
     9    11     1    1
    10     2     1    1
    11     2     8    1
    12    23    18    1
    13    18    17    1
    14     7     1    1
    15     7    16    1
    16    17    16    1
    17    17    22    1
    18    16    15    1
    19    19    13    1
    20    15    21    1
    21    15    14    1
    22    22    13    1
    23    13    14    1
    24    14    20    1
