@<TRIPOS>MOLECULE
4hx2_1AX_A_1.pdb
 11 10 0 0 0
SMALL
GASTEIGER

@<TRIPOS>ATOM
      1  OAA      -35.2390  -36.4160   -4.0070 O.3   305  1AX305     -0.2175
      2  CAE      -35.3940  -37.0610   -5.2810 C.3   305  1AX305      0.2174
      3  CAJ      -35.5410  -36.0250   -6.4090 C.3   305  1AX305      0.2141
      4  OAC      -34.6940  -36.3950   -7.5120 O.3   305  1AX305     -0.2176
      5  CAG      -37.0050  -35.9520   -6.8790 C.3   305  1AX305      0.1777
      6  OAI      -37.2310  -34.7220   -7.5990 O.3   305  1AX305     -0.3482
      7  CAH      -38.5900  -34.5210   -8.0050 C.3   305  1AX305      0.1777
      8  CAK      -39.1860  -33.3020   -7.2880 C.3   305  1AX305      0.2141
      9  OAD      -39.8700  -33.7440   -6.1050 O.3   305  1AX305     -0.2176
     10  CAF      -40.1660  -32.5760   -8.2220 C.3   305  1AX305      0.2174
     11  OAB      -39.4760  -31.5730   -8.9780 O.3   305  1AX305     -0.2175
@<TRIPOS>BOND
     1    11    10    1
     2    10     8    1
     3     7     6    1
     4     7     8    1
     5     6     5    1
     6     4     3    1
     7     8     9    1
     8     5     3    1
     9     3     2    1
    10     2     1    1
