@<TRIPOS>MOLECULE
4hxj_III_C_1.pdb
 23 22 0 0 0
SMALL
GASTEIGER

@<TRIPOS>ATOM
      1  N         12.9530  -17.0970   14.1460 N.3   760  ARG760     -0.1231
      2  CA        14.1870  -17.1600   14.9270 C.3   760  ARG760      0.1694
      3  C         13.8560  -17.2050   16.4190 C.2   760  ARG760      0.2593
      4  O         12.9190  -16.5530   16.8690 O.2   760  ARG760     -0.2718
      5  CB        15.0900  -15.9730   14.5920 C.3   760  ARG760      0.0321
      6  CG        16.5720  -16.2860   14.6360 C.3   760  ARG760      0.0489
      7  CD        17.3900  -15.1310   14.0820 C.3   760  ARG760      0.2205
      8  NE        18.7650  -15.1630   14.5720 N.pl3 760  ARG760     -0.0865
      9  CZ        19.7830  -15.7160   13.9200 C.cat 760  ARG760      0.5346
     10  NH1       19.5920  -16.2840   12.7360 N.pl3 760  ARG760      0.1354
     11  NH2       20.9970  -15.6960   14.4510 N.pl3 760  ARG760      0.1354
     12  N         14.6310  -17.9720   17.1800 N.am  761  GLY761     -0.1942
     13  CA        14.2260  -18.3770   18.5160 C.3   761  GLY761      0.2014
     14  C         14.5480  -17.5100   19.7240 C.2   761  GLY761      0.2640
     15  O         13.8710  -16.5160   19.9860 O.2   761  GLY761     -0.2714
     16  N         15.5970  -17.9030   20.4450 N.am  762  THR762     -0.1914
     17  CA        15.8220  -17.5440   21.8500 C.3   762  THR762      0.2278
     18  C         15.1770  -18.6270   22.7100 C.2   762  THR762      0.3868
     19  O         15.5380  -18.8570   23.8650 O.co2 762  THR762     -0.2437
     20  CB        15.2400  -16.1720   22.2580 C.3   762  THR762      0.1829
     21  OG1       15.9290  -15.1230   21.5690 O.3   762  THR762     -0.2207
     22  CG2       15.3950  -15.9610   23.7540 C.3   762  THR762      0.0380
     23  OXT       14.2650  -19.3110   22.2500 O.co2 762  THR762     -0.2437
@<TRIPOS>BOND
     1    10     9    1
     2     9    11    1
     3     9     8    2
     4     7     8    1
     5     7     6    1
     6     1     2    1
     7     5     6    1
     8     5     2    1
     9     2     3    1
    10     3     4    2
    11     3    12   am
    12    12    13    1
    13    13    14    1
    14    14    15    2
    15    14    16   am
    16    16    17    1
    17    21    20    1
    18    17    20    1
    19    17    18    1
    20    23    18   ar
    21    20    22    1
    22    18    19   ar
