@<TRIPOS>MOLECULE
4hxw_1A0_A_1.pdb
 29 33 0 0 0
SMALL
GASTEIGER

@<TRIPOS>ATOM
      1 CL1       -10.2520   -2.0580  -11.6330 Cl    301  1A0301     -0.0790
      2  C4       -11.4390   -3.2190  -12.3830 C.2   301  1A0301      0.0990
      3  C5       -12.8360   -3.2850  -11.9440 C.2   301  1A0301      0.1327
      4  C6       -13.5160   -2.3860  -10.9470 C.3   301  1A0301      0.0609
      5  C7       -14.5220   -3.1800  -10.1330 C.3   301  1A0301      0.0079
      6  N1       -13.3700   -4.3050  -12.6490 N.2   301  1A0301     -0.3427
      7  C3       -11.1370   -4.2570  -13.3710 C.2   301  1A0301      0.1438
      8  C8       -10.0280   -4.8160  -14.2030 C.2   301  1A0301      0.2087
      9  N13       -8.7430   -4.2900  -14.3300 N.pl3 301  1A0301     -0.2807
     10  C17       -8.4080   -2.9320  -13.9180 C.3   301  1A0301      0.1121
     11  C16       -7.4600   -2.5140  -15.0450 C.3   301  1A0301      0.1133
     12  N18       -8.2050   -1.8840  -16.1230 N.3   301  1A0301     -0.1310
     13  C15       -6.8560   -3.8070  -15.5810 C.3   301  1A0301      0.0423
     14  C14       -7.7370   -4.9760  -15.1360 C.3   301  1A0301      0.0948
     15  N9       -10.3350   -5.8590  -14.9960 N.2   301  1A0301     -0.3180
     16  C10      -11.5680   -6.4050  -15.0230 C.1   301  1A0301      0.1839
     17  N11      -12.6020   -5.9440  -14.3050 N.2   301  1A0301     -0.2684
     18  C2       -12.4680   -4.9010  -13.4590 C.1   301  1A0301      0.1543
     19  S19      -11.8630   -7.7780  -15.9510 S.3   301  1A0301      0.0073
     20  C20      -10.6030   -8.1070  -17.0530 C.2   301  1A0301      0.0452
     21  C25       -9.9860   -7.0450  -17.7180 C.2   301  1A0301      0.1128
     22  N24       -9.0010   -7.2200  -18.6120 N.2   301  1A0301     -0.1910
     23  C23       -8.5770   -8.4700  -18.9000 C.1   301  1A0301      0.0497
     24  N26       -7.5850   -8.6720  -19.8070 N.2   301  1A0301     -0.1896
     25  C27       -7.1730   -9.9130  -20.0790 C.2   301  1A0301      0.1302
     26  C28       -7.7580  -11.0140  -19.4530 C.2   301  1A0301      0.1207
     27  N29       -8.7450  -10.8690  -18.5510 N.2   301  1A0301     -0.2362
     28  C22       -9.1980   -9.6380  -18.2290 C.2   301  1A0301      0.1257
     29  C21      -10.2230   -9.4300  -17.3010 C.3   301  1A0301      0.0914
@<TRIPOS>BOND
     1    25    24    1
     2    25    26    2
     3    24    23    2
     4    26    27    1
     5    23    22    2
     6    23    28    1
     7    22    21    1
     8    27    28    2
     9    28    29    1
    10    21    20    2
    11    29    20    1
    12    20    19    1
    13    12    11    1
    14    19    16    1
    15    13    14    1
    16    13    11    1
    17    14     9    1
    18    11    10    1
    19    16    15    2
    20    16    17    2
    21    15     8    2
    22     9     8    1
    23     9    10    1
    24    17    18    2
    25     8     7    1
    26    18     7    1
    27    18     6    2
    28     7     2    2
    29     6     3    2
    30     2     3    1
    31     2     1    1
    32     3     4    1
    33     4     5    1
