@<TRIPOS>MOLECULE
4hxz_19Y_A_1.pdb
 22 24 0 0 0
SMALL
GASTEIGER

@<TRIPOS>ATOM
      1  O20       15.1290  -36.5950    0.7120 O.2   1401  19Y1401    -0.2830
      2  C19       15.5690  -35.4540    0.8460 C.2   1401  19Y1401     0.2373
      3  C5        14.6590  -34.2730    0.9490 C.2   1401  19Y1401     0.0855
      4  C1        13.1870  -34.2060    0.9360 C.2   1401  19Y1401     0.1254
      5  C21       12.2290  -35.3620    0.8170 C.3   1401  19Y1401     0.0601
      6  C22       10.9600  -34.9380    0.1260 C.3   1401  19Y1401     0.0079
      7  C4        15.1700  -32.8970    1.1020 C.2   1401  19Y1401     0.1582
      8  C6        16.4690  -32.2010    1.1940 C.2   1401  19Y1401     0.3003
      9  O17       17.6620  -32.8740    1.1460 O.2   1401  19Y1401    -0.4466
     10  C18       18.7380  -32.3440    1.9390 C.3   1401  19Y1401     0.2554
     11  N7        16.4440  -30.8460    1.3400 N.2   1401  19Y1401    -0.2960
     12  C8        15.2970  -30.1030    1.3920 C.1   1401  19Y1401     0.1858
     13  N9        14.0730  -30.7200    1.3130 N.2   1401  19Y1401    -0.2683
     14  C3        13.9470  -32.0680    1.1690 C.1   1401  19Y1401     0.1555
     15  N2        12.8740  -32.8870    1.0730 N.2   1401  19Y1401    -0.3434
     16  S10       15.4430  -28.3950    1.5820 S.3   1401  19Y1401     0.0113
     17  C11       17.0570  -28.0330    2.0300 C.ar  1401  19Y1401     0.0600
     18  C16       17.7570  -28.8550    2.9150 C.ar  1401  19Y1401     0.0103
     19  C15       19.0740  -28.5170    3.2370 C.ar  1401  19Y1401     0.0212
     20  C14       19.6830  -27.3870    2.6840 C.ar  1401  19Y1401     0.0989
     21  N13       19.0030  -26.6060    1.8300 N.ar  1401  19Y1401    -0.2418
     22  C12       17.7290  -26.9110    1.5000 C.ar  1401  19Y1401     0.1060
@<TRIPOS>BOND
     1     6     5    1
     2     1     2    2
     3     5     4    1
     4     2     3    1
     5     4     3    1
     6     4    15    2
     7     3     7    2
     8    15    14    2
     9     7    14    1
    10     7     8    1
    11     9     8    1
    12     9    10    1
    13    14    13    2
    14     8    11    2
    15    13    12    2
    16    11    12    2
    17    12    16    1
    18    22    21   ar
    19    22    17   ar
    20    16    17    1
    21    21    20   ar
    22    17    18   ar
    23    20    19   ar
    24    18    19   ar
