@<TRIPOS>MOLECULE
4hy0_1AQ_A_1.pdb
 43 47 0 0 0
SMALL
GASTEIGER

@<TRIPOS>ATOM
      1  C1       -11.1230   -1.6940  -28.9500 C.3   403  1AQ403      0.0346
      2  C2       -11.4560   -0.2230  -29.2390 C.3   403  1AQ403      0.1422
      3  O3       -10.3180    0.6050  -28.9410 O.3   403  1AQ403     -0.3548
      4  C4        -9.7770    1.3780  -30.0270 C.3   403  1AQ403      0.1325
      5  C6        -8.6680    0.5900  -30.7870 C.3   403  1AQ403      0.0487
      6  C7        -7.5250    1.6170  -30.9320 C.3   403  1AQ403      0.0800
      7  C9        -6.1410    0.9540  -30.9850 C.3   403  1AQ403      0.1098
      8  N10       -5.0520    1.8590  -30.5190 N.am  403  1AQ403     -0.2691
      9  C11       -5.3330    3.0550  -29.6980 C.3   403  1AQ403      0.1697
     10  C13       -6.7840    3.5530  -29.8050 C.3   403  1AQ403      0.1017
     11  N14       -7.6410    2.4010  -29.6760 N.3   403  1AQ403     -0.2684
     12  C15       -9.0710    2.6360  -29.4700 C.3   403  1AQ403      0.1021
     13  C16       -5.0590    2.7500  -28.2590 C.2   403  1AQ403      0.2611
     14  O17       -4.9910    1.5980  -27.8890 O.2   403  1AQ403     -0.2715
     15  N18       -4.9000    3.7880  -27.4160 N.am  403  1AQ403     -0.2010
     16  C19       -4.6400    3.5980  -25.9890 C.3   403  1AQ403      0.1241
     17  C21       -6.0100    3.4290  -25.3180 C.3   403  1AQ403      0.0736
     18  C22       -5.9720    3.9200  -23.8650 C.3   403  1AQ403      0.2075
     19  O23       -5.5330    5.2810  -23.8350 O.3   403  1AQ403     -0.4757
     20  C24       -4.3300    5.5540  -24.4030 C.ar  403  1AQ403      0.1361
     21  C25       -3.5870    6.6290  -23.9200 C.ar  403  1AQ403      0.0366
     22  C26       -2.3660    6.9270  -24.4920 C.ar  403  1AQ403      0.0031
     23  C27       -1.8870    6.1510  -25.5380 C.ar  403  1AQ403     -0.0001
     24  C28       -2.6220    5.0800  -26.0170 C.ar  403  1AQ403      0.0004
     25  C29       -3.8540    4.7790  -25.4520 C.ar  403  1AQ403      0.0315
     26  C30       -3.7440    1.6040  -30.8120 C.2   403  1AQ403      0.2459
     27  O31       -2.8940    2.3680  -30.4040 O.2   403  1AQ403     -0.2730
     28  C32       -3.2610    0.4440  -31.6520 C.3   403  1AQ403      0.1712
     29  N34       -2.1060    0.9380  -32.3920 N.am  403  1AQ403     -0.1967
     30  C35       -2.1150    1.2870  -33.6820 C.2   403  1AQ403      0.2576
     31  O36       -3.1210    1.2180  -34.3460 O.2   403  1AQ403     -0.2718
     32  C37       -0.8190    1.7640  -34.2770 C.3   403  1AQ403      0.1505
     33  C39       -0.8940    3.2770  -34.4810 C.3   403  1AQ403      0.0287
     34  N40       -0.5860    1.0650  -35.5510 N.3   403  1AQ403     -0.2087
     35  C41       -0.2600   -0.3650  -35.3670 C.3   403  1AQ403      0.1080
     36  C42       -2.6380   -0.7250  -30.8870 C.3   403  1AQ403      0.0293
     37  C43       -3.2880   -1.1050  -29.5580 C.3   403  1AQ403      0.0078
     38  C44       -2.2940   -2.0640  -28.8800 C.3   403  1AQ403      0.0666
     39  C45       -1.9300   -3.2640  -29.7840 C.3   403  1AQ403      0.2639
     40  F46       -0.8660   -3.9690  -29.2260 F     403  1AQ403     -0.2043
     41  F47       -3.0350   -4.1100  -29.8740 F     403  1AQ403     -0.2043
     42  C48       -1.5130   -2.8730  -31.2030 C.3   403  1AQ403      0.0666
     43  C49       -2.5900   -1.9630  -31.7900 C.3   403  1AQ403      0.0078
@<TRIPOS>BOND
     1    34    35    1
     2    34    32    1
     3    33    32    1
     4    31    30    2
     5    32    30    1
     6    30    29   am
     7    29    28    1
     8    43    42    1
     9    43    36    1
    10    28    36    1
    11    28    26    1
    12    42    39    1
    13     7     6    1
    14     7     8    1
    15     6     5    1
    16     6    11    1
    17    36    37    1
    18    26     8   am
    19    26    27    2
    20     5     4    1
    21     8     9    1
    22     4    12    1
    23     4     3    1
    24    41    39    1
    25    10     9    1
    26    10    11    1
    27    39    40    1
    28    39    38    1
    29     9    13    1
    30    11    12    1
    31    37    38    1
    32     2     1    1
    33     2     3    1
    34    13    14    2
    35    13    15   am
    36    15    16    1
    37    24    23   ar
    38    24    25   ar
    39    16    25    1
    40    16    17    1
    41    23    22   ar
    42    25    20   ar
    43    17    18    1
    44    22    21   ar
    45    20    21   ar
    46    20    19    1
    47    18    19    1
