@<TRIPOS>MOLECULE
4hy1_19X_A_1.pdb
 29 33 0 0 0
SMALL
GASTEIGER

@<TRIPOS>ATOM
      1  O29        6.3450    0.7690  -16.4740 O.2   1401  19X1401    -0.2222
      2  C28        5.9950    0.1290  -15.4050 C.1   1401  19X1401     0.1501
      3  C22        6.8420    0.2250  -14.2080 C.ar  1401  19X1401     0.0813
      4  C21        7.9980    0.8980  -13.8910 C.ar  1401  19X1401     0.0185
      5  N27        4.8920   -0.6610  -15.2490 N.2   1401  19X1401    -0.1976
      6  C26        4.8810   -1.1760  -13.8540 C.3   1401  19X1401     0.1649
      7  C23        6.0970   -0.6130  -13.2650 C.ar  1401  19X1401     0.0139
      8  C24        6.5800   -0.7570  -11.9760 C.ar  1401  19X1401    -0.0011
      9  C25        7.7890   -0.1010  -11.6700 C.ar  1401  19X1401     0.0070
     10  C20        8.4670    0.7250  -12.5780 C.ar  1401  19X1401     0.0415
     11  S19        9.9350    1.4790  -12.1750 S.3   1401  19X1401     0.0097
     12  C10        9.9650    1.9110  -10.5260 C.1   1401  19X1401     0.1841
     13  N11       11.1870    2.1850  -10.0260 N.2   1401  19X1401    -0.2684
     14  C2        11.3350    2.6630   -8.7910 C.1   1401  19X1401     0.1543
     15  N9         8.8180    2.0220   -9.8440 N.2   1401  19X1401    -0.3180
     16  C8         8.7810    2.4430   -8.5690 C.2   1401  19X1401     0.2087
     17  N13        7.5780    2.3260   -7.9160 N.pl3 1401  19X1401    -0.2807
     18  C17        7.4690    2.2020   -6.4470 C.3   1401  19X1401     0.1121
     19  C16        6.3140    1.2200   -6.2490 C.3   1401  19X1401     0.1133
     20  N18        6.7730   -0.1890   -6.1170 N.3   1401  19X1401    -0.1310
     21  C15        5.5230    1.3420   -7.5520 C.3   1401  19X1401     0.0423
     22  C14        6.3900    1.9410   -8.6530 C.3   1401  19X1401     0.0948
     23  C3        10.1020    2.7920   -7.9820 C.2   1401  19X1401     0.1438
     24  C4        10.7170    3.3170   -6.7770 C.2   1401  19X1401     0.0990
     25 CL1         9.8360    3.9240   -5.3390 Cl    1401  19X1401    -0.0790
     26  C5        12.1690    3.4810   -6.8740 C.2   1401  19X1401     0.1327
     27  N1        12.4370    3.0660   -8.1140 N.2   1401  19X1401    -0.3427
     28  C6        13.1050    3.9350   -5.7600 C.3   1401  19X1401     0.0609
     29  C7        14.0900    4.9790   -6.2470 C.3   1401  19X1401     0.0079
@<TRIPOS>BOND
     1     1     2    2
     2     2     5    2
     3     2     3    1
     4     5     6    1
     5     3     4   ar
     6     3     7   ar
     7     4    10   ar
     8     6     7    1
     9     7     8   ar
    10    10    11    1
    11    10     9   ar
    12    11    12    1
    13     8     9   ar
    14    12    13    2
    15    12    15    2
    16    13    14    2
    17    15    16    2
    18    14    27    2
    19    14    23    1
    20    22    17    1
    21    22    21    1
    22    16    23    1
    23    16    17    1
    24    27    26    2
    25    23    24    2
    26    17    18    1
    27    21    19    1
    28    26    24    1
    29    26    28    1
    30    24    25    1
    31    18    19    1
    32    19    20    1
    33    29    28    1
