@<TRIPOS>MOLECULE
4hy4_1BG_A_1.pdb
 38 42 0 0 0
SMALL
GASTEIGER

@<TRIPOS>ATOM
      1  C1        24.4500   -4.5360   -9.3930 C.3   402  1BG402      0.1080
      2  N2        23.0060   -4.6830   -9.6420 N.3   402  1BG402     -0.2087
      3  C3        22.6160   -6.0490  -10.0410 C.3   402  1BG402      0.1505
      4  C5        21.0900   -6.1960   -9.9970 C.3   402  1BG402      0.0287
      5  C6        23.1040   -6.3560  -11.4330 C.2   402  1BG402      0.2576
      6  O7        23.4170   -5.4390  -12.1780 O.2   402  1BG402     -0.2718
      7  N8        23.2020   -7.6530  -11.7760 N.am  402  1BG402     -0.1967
      8  C9        23.6430   -8.0910  -13.1150 C.3   402  1BG402      0.1712
      9  C11       24.9740   -8.8740  -13.0600 C.3   402  1BG402      0.0289
     10  C12       26.0910   -8.0110  -12.4420 C.3   402  1BG402      0.0022
     11  C13       27.4120   -8.7920  -12.4230 C.3   402  1BG402      0.0001
     12  C14       27.1990  -10.0520  -11.5750 C.3   402  1BG402      0.0000
     13  C15       26.1630  -10.9650  -12.2280 C.3   402  1BG402      0.0001
     14  C16       24.8230  -10.2130  -12.3080 C.3   402  1BG402      0.0022
     15  C17       22.5430   -8.9690  -13.6820 C.2   402  1BG402      0.2459
     16  O18       21.7110   -9.4540  -12.9200 O.2   402  1BG402     -0.2730
     17  N19       22.4860   -9.2290  -15.0130 N.am  402  1BG402     -0.2691
     18  C20       23.5460   -8.7630  -15.9540 C.3   402  1BG402      0.1098
     19  C21       22.9340   -8.4860  -17.3150 C.3   402  1BG402      0.0775
     20  C23       23.9490   -8.3130  -18.4460 C.3   402  1BG402      0.0191
     21  C24       23.1000   -8.5750  -19.7130 C.3   402  1BG402      0.0188
     22  C25       21.8510   -9.3310  -19.1900 C.3   402  1BG402      0.0722
     23  N26       22.1650   -9.6680  -17.7820 N.3   402  1BG402     -0.2705
     24  C27       20.9950   -9.9020  -16.9530 C.3   402  1BG402      0.1017
     25  C28       21.4480  -10.1490  -15.4810 C.3   402  1BG402      0.1697
     26  C30       21.9500  -11.5540  -15.2250 C.2   402  1BG402      0.2611
     27  O31       23.1370  -11.8080  -15.0190 O.2   402  1BG402     -0.2715
     28  N32       20.9970  -12.5070  -15.1740 N.am  402  1BG402     -0.2013
     29  C33       21.2820  -13.9160  -14.8930 C.3   402  1BG402      0.1172
     30  C34       21.7370  -14.6430  -16.1710 C.3   402  1BG402      0.0265
     31  C35       20.5390  -15.1450  -16.9800 C.3   402  1BG402      0.0068
     32  C36       19.7640  -16.1770  -16.1430 C.3   402  1BG402      0.0262
     33  C37       19.3520  -15.5670  -14.8110 C.ar  402  1BG402     -0.0245
     34  C38       18.2380  -16.0930  -14.1550 C.ar  402  1BG402     -0.0045
     35  C39       17.8210  -15.5670  -12.9410 C.ar  402  1BG402     -0.0003
     36  C40       18.5230  -14.5010  -12.3800 C.ar  402  1BG402     -0.0003
     37  C41       19.6350  -13.9820  -13.0230 C.ar  402  1BG402     -0.0029
     38  C42       20.0650  -14.5250  -14.2370 C.ar  402  1BG402     -0.0065
@<TRIPOS>BOND
     1    21    22    1
     2    21    20    1
     3    22    23    1
     4    20    19    1
     5    23    19    1
     6    23    24    1
     7    19    18    1
     8    31    30    1
     9    31    32    1
    10    24    25    1
    11    30    29    1
    12    32    33    1
    13    18    17    1
    14    25    26    1
    15    25    17    1
    16    26    28   am
    17    26    27    2
    18    28    29    1
    19    17    15   am
    20    29    38    1
    21    33    38   ar
    22    33    34   ar
    23    38    37   ar
    24    34    35   ar
    25    15     8    1
    26    15    16    2
    27     8     9    1
    28     8     7    1
    29     9    10    1
    30     9    14    1
    31    37    36   ar
    32    35    36   ar
    33    10    11    1
    34    11    12    1
    35    14    13    1
    36    13    12    1
    37     6     5    2
    38     7     5   am
    39     5     3    1
    40     3     4    1
    41     3     2    1
    42     2     1    1
