@<TRIPOS>MOLECULE
4hy5_1AQ_A_1.pdb
 43 47 0 0 0
SMALL
GASTEIGER

@<TRIPOS>ATOM
      1  C1        15.3090   19.2410   17.8120 C.3   402  1AQ402      0.0346
      2  C2        13.7840   19.1020   17.7230 C.3   402  1AQ402      0.1422
      3  O3        13.1610   20.1560   18.4630 O.3   402  1AQ402     -0.3548
      4  C4        11.7360   20.1060   18.5150 C.3   402  1AQ402      0.1325
      5  C6        11.1330   21.5180   18.2980 C.3   402  1AQ402      0.0487
      6  C7        10.0290   21.5650   19.3790 C.3   402  1AQ402      0.0800
      7  C9         9.6560   22.9970   19.7350 C.3   402  1AQ402      0.1098
      8  N10        8.9900   23.0520   21.0650 N.am  402  1AQ402     -0.2691
      9  C11        9.3350   22.1220   22.1490 C.3   402  1AQ402      0.1697
     10  C13        9.8580   20.7550   21.6620 C.3   402  1AQ402      0.1017
     11  N14       10.7330   20.9420   20.5220 N.3   402  1AQ402     -0.2684
     12  C15       11.2710   19.7080   19.9400 C.3   402  1AQ402      0.1021
     13  C16       10.3480   22.7750   23.0510 C.2   402  1AQ402      0.2611
     14  O17       10.9930   23.7260   22.6430 O.2   402  1AQ402     -0.2715
     15  N18       10.4920   22.3040   24.3040 N.am  402  1AQ402     -0.2010
     16  C19       11.4170   22.8940   25.2740 C.3   402  1AQ402      0.1241
     17  C21       12.8390   22.3410   25.0930 C.3   402  1AQ402      0.0736
     18  C22       13.0870   21.0870   25.9500 C.3   402  1AQ402      0.2075
     19  O23       12.7990   21.4060   27.3230 O.3   402  1AQ402     -0.4757
     20  C24       11.5600   21.9020   27.5990 C.ar  402  1AQ402      0.1361
     21  C25       11.0080   21.6700   28.8630 C.ar  402  1AQ402      0.0366
     22  C26        9.7420   22.1550   29.1520 C.ar  402  1AQ402      0.0031
     23  C27        9.0350   22.8760   28.1940 C.ar  402  1AQ402     -0.0001
     24  C28        9.5810   23.1100   26.9440 C.ar  402  1AQ402      0.0004
     25  C29       10.8480   22.6220   26.6510 C.ar  402  1AQ402      0.0315
     26  C30        8.1060   24.0310   21.3520 C.2   402  1AQ402      0.2459
     27  O31        7.6090   24.0900   22.4630 O.2   402  1AQ402     -0.2730
     28  C32        7.6910   25.0470   20.3280 C.3   402  1AQ402      0.1712
     29  N34        6.4060   25.5720   20.7770 N.am  402  1AQ402     -0.1967
     30  C35        5.2990   25.5280   20.0120 C.2   402  1AQ402      0.2576
     31  O36        5.3560   25.0490   18.9000 O.2   402  1AQ402     -0.2718
     32  C37        4.0020   26.0860   20.5640 C.3   402  1AQ402      0.1505
     33  C39        3.2960   24.9910   21.3860 C.3   402  1AQ402      0.0287
     34  N40        3.1210   26.6040   19.4830 N.3   402  1AQ402     -0.2087
     35  C41        3.5990   27.8840   18.9130 C.3   402  1AQ402      0.1080
     36  C42        8.7420   26.1470   20.1650 C.3   402  1AQ402      0.0293
     37  C43        8.2600   27.1320   19.0860 C.3   402  1AQ402      0.0078
     38  C44        9.3570   28.1770   18.8390 C.3   402  1AQ402      0.0666
     39  C45        9.7230   28.9110   20.1450 C.3   402  1AQ402      0.2639
     40  F46       10.8290   29.7360   19.8860 F     402  1AQ402     -0.2043
     41  F47        8.6290   29.6970   20.5400 F     402  1AQ402     -0.2043
     42  C48       10.0890   27.9400   21.2870 C.3   402  1AQ402      0.0666
     43  C49        8.9790   26.8930   21.4960 C.3   402  1AQ402      0.0078
@<TRIPOS>BOND
     1     2     1    1
     2     2     3    1
     3     5     4    1
     4     5     6    1
     5     3     4    1
     6     4    12    1
     7    38    37    1
     8    38    39    1
     9    31    30    2
    10    35    34    1
    11    37    36    1
    12     6     7    1
    13     6    11    1
    14    34    32    1
    15     7     8    1
    16    40    39    1
    17    12    11    1
    18    30    32    1
    19    30    29   am
    20    39    41    1
    21    39    42    1
    22    36    28    1
    23    36    43    1
    24    28    29    1
    25    28    26    1
    26    11    10    1
    27    32    33    1
    28     8    26   am
    29     8     9    1
    30    42    43    1
    31    26    27    2
    32    10     9    1
    33     9    13    1
    34    14    13    2
    35    13    15   am
    36    15    16    1
    37    17    16    1
    38    17    18    1
    39    16    25    1
    40    18    19    1
    41    25    24   ar
    42    25    20   ar
    43    24    23   ar
    44    19    20    1
    45    20    21   ar
    46    23    22   ar
    47    21    22   ar
