@<TRIPOS>MOLECULE
4hyh_1AM_A_1.pdb
 32 36 0 0 0
SMALL
GASTEIGER

@<TRIPOS>ATOM
      1  C01        7.3560   -5.7320   12.2180 C.ar  301  1AM301      0.1002
      2  N02        6.6110   -4.8270   11.5460 N.ar  301  1AM301     -0.2409
      3  C03        7.2810   -3.8990   10.8480 C.ar  301  1AM301      0.1167
      4  C04        8.6620   -3.8210   10.7960 C.ar  301  1AM301      0.1061
      5  C05        9.4190   -4.7930   11.4630 C.ar  301  1AM301      0.0666
      6  C06        8.7420   -5.7620   12.2140 C.ar  301  1AM301      0.0365
      7  N07       10.7960   -4.7060   11.4140 N.pl3 301  1AM301     -0.3035
      8  C08       11.5600   -5.9340   11.5830 C.3   301  1AM301      0.1096
      9  C09       13.0320   -5.6180   11.3290 C.3   301  1AM301      0.1101
     10  N10       13.5690   -4.6230   12.2750 N.3   301  1AM301     -0.2144
     11  C11       12.8050   -3.3660   12.0980 C.3   301  1AM301      0.1101
     12  C12       11.3040   -3.5490   12.2530 C.3   301  1AM301      0.1096
     13  N13        9.3420   -2.9180    9.9850 N.am  301  1AM301     -0.1707
     14  C14        8.8900   -1.7630    9.4320 C.2   301  1AM301      0.2955
     15  O15        7.7940   -1.2520    9.5990 O.2   301  1AM301     -0.2655
     16  C16        9.9140   -1.1700    8.5690 C.2   301  1AM301      0.1774
     17  N17       11.1820   -1.7560    8.4430 N.2   301  1AM301     -0.3793
     18  C18       11.9100   -1.0500    7.5910 C.2   301  1AM301      0.2170
     19  S19       11.1320    0.2910    6.9040 S.3   301  1AM301     -0.0589
     20  C20        9.7080   -0.0570    7.7880 C.3   301  1AM301      0.1296
     21  N21       13.2380   -1.3570    7.3240 N.am  301  1AM301     -0.2212
     22  C22       14.0590   -0.5910    6.4910 C.2   301  1AM301      0.2550
     23  C23       15.3990   -1.1980    6.5430 C.ar  301  1AM301      0.0547
     24  C24       15.3360   -2.3110    7.4140 C.ar  301  1AM301      0.0027
     25  C25       13.9450   -2.4510    7.9490 C.3   301  1AM301      0.1281
     26  C26       16.5710   -0.8160    5.8800 C.ar  301  1AM301      0.0412
     27  C27       17.7040   -1.6100    6.0900 C.ar  301  1AM301      0.1389
     28  C28       17.6430   -2.7400    6.9370 C.ar  301  1AM301      0.0366
     29  C29       16.4570   -3.1040    7.6300 C.ar  301  1AM301      0.0007
     30  O30       13.7920    0.4130    5.8380 O.2   301  1AM301     -0.2695
     31  O31       18.9310   -1.4070    5.5370 O.3   301  1AM301     -0.4714
     32  C32       19.0980   -0.2470    4.7330 C.3   301  1AM301      0.2525
@<TRIPOS>BOND
     1    32    31    1
     2    31    27    1
     3    30    22    2
     4    26    27   ar
     5    26    23   ar
     6    27    28   ar
     7    22    23    1
     8    22    21   am
     9    23    24   ar
    10    19    18    1
    11    19    20    1
    12    28    29   ar
    13    21    18    1
    14    21    25    1
    15    24    29   ar
    16    24    25    1
    17    18    17    2
    18    20    16    1
    19    17    16    2
    20    16    14    1
    21    14    15    2
    22    14    13   am
    23    13     4    1
    24     4     3   ar
    25     4     5   ar
    26     3     2   ar
    27     9     8    1
    28     9    10    1
    29     7     5    1
    30     7     8    1
    31     7    12    1
    32     5     6   ar
    33     2     1   ar
    34    11    12    1
    35    11    10    1
    36     6     1   ar
