@<TRIPOS>MOLECULE
4hyi_1AO_A_1.pdb
 29 33 0 0 0
SMALL
GASTEIGER

@<TRIPOS>ATOM
      1  C01       10.8900   -5.4550   14.4340 C.ar  304  1AO304      0.0014
      2  C02       10.1970   -4.4870   13.7040 C.ar  304  1AO304      0.0014
      3  C03       10.9360   -3.5690   12.9660 C.ar  304  1AO304      0.0179
      4  C04       12.3460   -3.6310   12.9630 C.ar  304  1AO304      0.0870
      5  C05       13.0620   -4.6060   13.6880 C.ar  304  1AO304      0.0635
      6  C06       12.2820   -5.5370   14.4440 C.ar  304  1AO304      0.0158
      7  N07       14.4650   -4.5870   13.7040 N.pl3 304  1AO304     -0.3035
      8  C08       15.1550   -5.8400   13.9340 C.3   304  1AO304      0.1096
      9  C09       16.6750   -5.7070   13.9020 C.3   304  1AO304      0.1101
     10  N10       17.1730   -4.6080   14.7990 N.3   304  1AO304     -0.2144
     11  C11       16.4340   -3.3820   14.5650 C.3   304  1AO304      0.1101
     12  C12       14.9370   -3.4900   14.6590 C.3   304  1AO304      0.1096
     13  N13       13.1320   -2.7800   12.1770 N.am  304  1AO304     -0.1723
     14  C14       12.7900   -1.5660   11.6460 C.2   304  1AO304      0.2955
     15  O15       11.7540   -0.9360   11.8140 O.2   304  1AO304     -0.2655
     16  C16       13.8750   -1.0160   10.7870 C.2   304  1AO304      0.1777
     17  N17       15.1080   -1.6190   10.6150 N.2   304  1AO304     -0.3756
     18  C18       15.8530   -0.8920    9.8010 C.2   304  1AO304      0.2425
     19  S19       15.1500    0.5560    9.2660 S.3   304  1AO304     -0.0548
     20  C20       13.7240    0.1620   10.1160 C.3   304  1AO304      0.1298
     21  N21       17.1410   -1.1660    9.5000 N.ar  304  1AO304     -0.1970
     22  N22       17.8760   -0.2240    8.7740 N.ar  304  1AO304     -0.1610
     23  C23       19.1030   -0.6580    8.7700 C.ar  304  1AO304      0.1221
     24  C24       19.2390   -1.8680    9.4960 C.ar  304  1AO304      0.0387
     25  C25       20.2520   -2.7440    9.7890 C.ar  304  1AO304      0.0031
     26  C26       20.0430   -3.8970   10.5690 C.ar  304  1AO304      0.0001
     27  C27       18.7400   -4.1680   11.0450 C.ar  304  1AO304      0.0015
     28  C28       17.6760   -3.3040   10.7670 C.ar  304  1AO304      0.0193
     29  C29       17.9630   -2.1690    9.9730 C.ar  304  1AO304      0.0874
@<TRIPOS>BOND
     1    23    22   ar
     2    23    24   ar
     3    22    21   ar
     4    19    18    1
     5    19    20    1
     6    24    25   ar
     7    24    29   ar
     8    21    18    1
     9    21    29   ar
    10    25    26   ar
    11    18    17    2
    12    29    28   ar
    13    20    16    1
    14    26    27   ar
    15    17    16    2
    16    28    27   ar
    17    16    14    1
    18    14    15    2
    19    14    13   am
    20    13     4    1
    21     4     3   ar
    22     4     5   ar
    23     3     2   ar
    24     5     7    1
    25     5     6   ar
    26     7     8    1
    27     7    12    1
    28     2     1   ar
    29     9     8    1
    30     9    10    1
    31     1     6   ar
    32    11    12    1
    33    11    10    1
