@<TRIPOS>MOLECULE
4hym_CJC_A_1.pdb
 30 34 0 0 0
SMALL
GASTEIGER

@<TRIPOS>ATOM
      1  O47        4.0690   -2.5920  -10.9570 O.2   401  CJC401     -0.2121
      2  C28        4.7870   -1.8580  -11.6790 C.1   401  CJC401      0.2069
      3  C27        4.3380   -1.5180  -12.9650 C.3   401  CJC401      0.2696
      4  N29        5.9750   -1.4070  -11.2080 N.2   401  CJC401     -0.3287
      5  C22        6.7430   -0.6100  -11.9710 C.2   401  CJC401      0.1876
      6  C23        6.2670   -0.2520  -13.3440 C.1   401  CJC401      0.0596
      7  N26        5.0690   -0.7300  -13.7770 N.2   401  CJC401     -0.1986
      8  N24        7.0360    0.5470  -14.1270 N.2   401  CJC401     -0.1904
      9  C25        8.2140    1.0050  -13.6730 C.2   401  CJC401      0.1129
     10  C20        8.7060    0.6970  -12.4000 C.2   401  CJC401      0.0463
     11  C21        7.9660   -0.1190  -11.5350 C.3   401  CJC401      0.1057
     12  S19       10.2150    1.3420  -11.9480 S.3   401  CJC401      0.0073
     13  C10       10.2250    1.8400  -10.3400 C.1   401  CJC401      0.1839
     14  N9         9.0580    1.9260   -9.6660 N.2   401  CJC401     -0.3180
     15  C8         9.0080    2.3900   -8.3960 C.2   401  CJC401      0.2087
     16  N13        7.7510    2.3370   -7.7800 N.pl3 401  CJC401     -0.2807
     17  C14        6.5470    2.1090   -8.5690 C.3   401  CJC401      0.0948
     18  C15        5.7370    1.2200   -7.6140 C.3   401  CJC401      0.0423
     19  C16        6.4580    1.1530   -6.2620 C.3   401  CJC401      0.1133
     20  N18        7.0300   -0.1890   -6.0450 N.3   401  CJC401     -0.1310
     21  C17        7.5660    2.2190   -6.3390 C.3   401  CJC401      0.1121
     22  C3        10.3330    2.7680   -7.7950 C.2   401  CJC401      0.1438
     23  C2        11.5740    2.6540   -8.5960 C.1   401  CJC401      0.1543
     24  N11       11.4220    2.1620   -9.8270 N.2   401  CJC401     -0.2684
     25  N1        12.6830    3.0830   -7.9210 N.2   401  CJC401     -0.3427
     26  C5        12.3810    3.4890   -6.6620 C.2   401  CJC401      0.1327
     27  C4        10.9300    3.2950   -6.5720 C.2   401  CJC401      0.0990
     28 CL1         9.9950    3.8340   -5.1370 Cl    401  CJC401     -0.0790
     29  C6        13.2730    3.9990   -5.5470 C.3   401  CJC401      0.0609
     30  C7        14.2360    5.0160   -6.1370 C.3   401  CJC401      0.0079
@<TRIPOS>BOND
     1     8     9    1
     2     8     6    2
     3     7     6    2
     4     7     3    1
     5     9    10    2
     6     6     5    1
     7     3     2    1
     8    10    12    1
     9    10    11    1
    10     5    11    1
    11     5     4    2
    12    12    13    1
    13     2     4    2
    14     2     1    2
    15    13    24    2
    16    13    14    2
    17    24    23    2
    18    14    15    2
    19    23    25    2
    20    23    22    1
    21    17    16    1
    22    17    18    1
    23    15    22    1
    24    15    16    1
    25    25    26    2
    26    22    27    2
    27    16    21    1
    28    18    19    1
    29    26    27    1
    30    26    29    1
    31    27    28    1
    32    21    19    1
    33    19    20    1
    34    30    29    1
