@<TRIPOS>MOLECULE
4hyp_1A1_A_1.pdb
 26 30 0 0 0
SMALL
GASTEIGER

@<TRIPOS>ATOM
      1  O9       -16.2790   -4.7150   -7.7780 O.2   301  1A1301     -0.2722
      2  C8       -15.4770   -3.8060   -7.6610 C.2   301  1A1301      0.2556
      3  C10      -15.1180   -3.1580   -6.3300 C.3   301  1A1301      0.0793
      4  C12      -16.3060   -2.8220   -5.4330 C.3   301  1A1301      0.0096
      5  C11      -15.4450   -4.0400   -5.1310 C.3   301  1A1301      0.0096
      6  N7       -14.8080   -3.2830   -8.6770 N.am  301  1A1301     -0.0890
      7  C6       -14.8150   -3.6760   -9.9760 C.1   301  1A1301      0.2292
      8  N1       -14.3670   -2.7920  -10.9060 N.2   301  1A1301     -0.3171
      9  N5       -15.2440   -4.9120  -10.3240 N.2   301  1A1301     -0.3054
     10  C4       -15.2620   -5.3560  -11.6050 C.2   301  1A1301      0.2469
     11  N22      -15.7080   -6.6050  -11.8280 N.ar  301  1A1301     -0.2585
     12  C26      -15.3200   -7.3750  -12.8400 C.ar  301  1A1301      0.1046
     13  C25      -16.0100   -8.5560  -12.6350 C.ar  301  1A1301      0.1197
     14  N24      -16.7620   -8.4290  -11.5080 N.ar  301  1A1301     -0.2220
     15  C23      -16.5710   -7.1950  -10.9920 C.ar  301  1A1301      0.1848
     16  C3       -14.7670   -4.4270  -12.6480 C.2   301  1A1301      0.2161
     17  N13      -14.6330   -4.4790  -14.0000 N.2   301  1A1301     -0.3878
     18  C14      -14.1340   -3.3410  -14.5800 C.2   301  1A1301      0.1651
     19  S15      -13.8010   -2.0870  -13.4270 S.3   301  1A1301     -0.0200
     20  C2       -14.3130   -3.1060  -12.1940 C.2   301  1A1301      0.2105
     21  C16      -13.8780   -3.0200  -16.0030 C.ar  301  1A1301      0.0551
     22  C21      -13.6750   -1.7070  -16.4140 C.ar  301  1A1301      0.1019
     23  N20      -13.4770   -1.4390  -17.7130 N.ar  301  1A1301     -0.2422
     24  C19      -13.4820   -2.4100  -18.6350 C.ar  301  1A1301      0.0989
     25  C18      -13.6910   -3.7270  -18.2740 C.ar  301  1A1301      0.0208
     26  C17      -13.9110   -4.0470  -16.9440 C.ar  301  1A1301      0.0062
@<TRIPOS>BOND
     1    24    25   ar
     2    24    23   ar
     3    25    26   ar
     4    23    22   ar
     5    26    21   ar
     6    22    21   ar
     7    21    18    1
     8    18    17    2
     9    18    19    1
    10    17    16    2
    11    19    20    1
    12    12    13   ar
    13    12    11   ar
    14    16    20    1
    15    16    10    1
    16    13    14   ar
    17    20     8    2
    18    11    10    1
    19    11    15   ar
    20    10     9    2
    21    14    15   ar
    22     8     7    2
    23     9     7    2
    24     7     6    1
    25     6     2   am
    26     1     2    2
    27     2     3    1
    28     3     4    1
    29     3     5    1
    30     4     5    1
