@<TRIPOS>MOLECULE
4hz0_1AV_A_1.pdb
 21 24 0 0 0
SMALL
GASTEIGER

@<TRIPOS>ATOM
      1  N7        12.0310    0.6970   -6.7070 N.pl3 301  1AV301     -0.0232
      2  C6        10.8760    0.1380   -7.1270 C.1   301  1AV301      0.2435
      3  N1        10.3950    0.4360   -8.3570 N.2   301  1AV301     -0.3162
      4  N5        10.2470   -0.6970   -6.2610 N.2   301  1AV301     -0.3045
      5  C4         9.0700   -1.3130   -6.5480 C.2   301  1AV301      0.2469
      6  N8         8.4690   -2.1430   -5.6700 N.ar  301  1AV301     -0.2585
      7  C12        7.4630   -2.9570   -5.9920 C.ar  301  1AV301      0.1046
      8  C11        7.1880   -3.6320   -4.8190 C.ar  301  1AV301      0.1197
      9  N10        8.0460   -3.1930   -3.8640 N.ar  301  1AV301     -0.2220
     10  C9         8.8710   -2.2510   -4.4050 C.ar  301  1AV301      0.1848
     11  C3         8.5030   -1.0480   -7.8880 C.2   301  1AV301      0.2161
     12  N13        7.3740   -1.4840   -8.5030 N.2   301  1AV301     -0.3878
     13  C14        7.1820   -1.0000   -9.7590 C.2   301  1AV301      0.1651
     14  S15        8.4570    0.0910  -10.2600 S.3   301  1AV301     -0.0200
     15  C2         9.2390   -0.1260   -8.7770 C.2   301  1AV301      0.2105
     16  C16        6.0320   -1.3050  -10.6430 C.ar  301  1AV301      0.0551
     17  C21        5.7810   -0.6240  -11.8300 C.ar  301  1AV301      0.1019
     18  N20        4.7100   -0.9490  -12.5780 N.ar  301  1AV301     -0.2422
     19  C19        3.8470   -1.9060  -12.2020 C.ar  301  1AV301      0.0989
     20  C18        4.0530   -2.6150  -11.0140 C.ar  301  1AV301      0.0208
     21  C17        5.1650   -2.3150  -10.2210 C.ar  301  1AV301      0.0062
@<TRIPOS>BOND
     1    18    19   ar
     2    18    17   ar
     3    19    20   ar
     4    17    16   ar
     5    20    21   ar
     6    16    21   ar
     7    16    13    1
     8    14    13    1
     9    14    15    1
    10    13    12    2
    11    15     3    2
    12    15    11    1
    13    12    11    2
    14     3     2    2
    15    11     5    1
    16     2     1    1
    17     2     4    2
    18     5     4    2
    19     5     6    1
    20     7     6   ar
    21     7     8   ar
    22     6    10   ar
    23     8     9   ar
    24    10     9   ar
