@<TRIPOS>MOLECULE
4hz2_GSH_A_1.pdb
 20 19 0 0 0
SMALL
GASTEIGER

@<TRIPOS>ATOM
      1  N1         9.4550   17.7320   44.9580 N.3   301  GSH301     -0.1208
      2  CA1        8.3400   16.7480   44.8840 C.3   301  GSH301      0.1948
      3  C1         7.0950   17.4230   44.3830 C.2   301  GSH301      0.3819
      4  O11        6.8600   18.5630   44.8340 O.co2 301  GSH301     -0.2441
      5  O12        6.3570   16.8770   43.5450 O.co2 301  GSH301     -0.2441
      6  CB1        8.0980   16.0850   46.2460 C.3   301  GSH301      0.0402
      7  CG1        7.0080   15.0210   46.1040 C.3   301  GSH301      0.0889
      8  CD1        7.0550   13.9850   47.2260 C.2   301  GSH301      0.2418
      9  OE1        7.7470   14.1540   48.2070 O.2   301  GSH301     -0.2733
     10  N2         6.3030   12.8890   47.0910 N.am  301  GSH301     -0.1968
     11  CA2        6.3810   11.7950   48.0480 C.3   301  GSH301      0.1843
     12  C2         6.7140   10.4920   47.3960 C.2   301  GSH301      0.2627
     13  O2         6.1250   10.1980   46.3880 O.2   301  GSH301     -0.2714
     14  CB2        5.0630   11.6810   48.8020 C.3   301  GSH301      0.0997
     15  SG2        5.1070   10.4660   50.1640 S.3   301  GSH301     -0.0797
     16  N3         7.6320    9.6890   47.9530 N.am  301  GSH301     -0.1917
     17  CA3        7.5590    8.2740   47.6170 C.3   301  GSH301      0.2285
     18  C3         8.8720    7.5650   47.5030 C.2   301  GSH301      0.3865
     19  O31        8.8610    6.3400   47.2280 O.co2 301  GSH301     -0.2437
     20  O32        9.9110    8.2270   47.6790 O.co2 301  GSH301     -0.2437
@<TRIPOS>BOND
     1     5     3   ar
     2     3     4   ar
     3     3     2    1
     4     2     1    1
     5     2     6    1
     6     7     6    1
     7     7     8    1
     8    13    12    2
     9    10     8   am
    10    10    11    1
    11     8     9    2
    12    19    18   ar
    13    12    16   am
    14    12    11    1
    15    18    17    1
    16    18    20   ar
    17    17    16    1
    18    11    14    1
    19    14    15    1
