@<TRIPOS>MOLECULE
4hz5_19Y_A_1.pdb
 22 24 0 0 0
SMALL
GASTEIGER

@<TRIPOS>ATOM
      1  O20        7.4740   66.7360   12.3240 O.2   301  19Y301     -0.2830
      2  C19        8.4900   66.9070   12.9750 C.2   301  19Y301      0.2373
      3  C5         9.1080   65.7690   13.7000 C.2   301  19Y301      0.0855
      4  C1         8.7100   64.3450   13.7660 C.2   301  19Y301      0.1254
      5  C21        7.5380   63.6710   13.1010 C.3   301  19Y301      0.0601
      6  C22        6.9040   62.6560   14.0380 C.3   301  19Y301      0.0079
      7  C4        10.3250   65.9430   14.5180 C.2   301  19Y301      0.1582
      8  C6        11.2700   67.0110   14.9240 C.2   301  19Y301      0.3003
      9  O17       11.1460   68.3070   14.5100 O.2   301  19Y301     -0.4466
     10  C18       12.2970   69.1520   14.4800 C.3   301  19Y301      0.2554
     11  N7        12.2870   66.6640   15.7390 N.2   301  19Y301     -0.2960
     12  C8        12.4620   65.3950   16.1800 C.1   301  19Y301      0.1858
     13  N9        11.6260   64.3850   15.8410 N.2   301  19Y301     -0.2683
     14  C3        10.5670   64.5790   15.0310 C.1   301  19Y301      0.1555
     15  N2         9.6210   63.7400   14.5660 N.2   301  19Y301     -0.3434
     16  S10       13.7650   65.0490   17.2010 S.3   301  19Y301      0.0113
     17  C11       14.8690   66.3390   17.2620 C.ar  301  19Y301      0.0600
     18  C16       15.3620   66.9140   16.0950 C.ar  301  19Y301      0.0103
     19  C15       16.2660   67.9720   16.1870 C.ar  301  19Y301      0.0212
     20  C14       16.6580   68.4230   17.4460 C.ar  301  19Y301      0.0989
     21  N13       16.1720   67.8470   18.5590 N.ar  301  19Y301     -0.2418
     22  C12       15.2990   66.8280   18.4930 C.ar  301  19Y301      0.1060
@<TRIPOS>BOND
     1     1     2    2
     2     2     3    1
     3     5     4    1
     4     5     6    1
     5     3     4    1
     6     3     7    2
     7     4    15    2
     8    10     9    1
     9     9     8    1
    10     7     8    1
    11     7    14    1
    12    15    14    2
    13     8    11    2
    14    14    13    2
    15    11    12    2
    16    13    12    2
    17    18    19   ar
    18    18    17   ar
    19    12    16    1
    20    19    20   ar
    21    16    17    1
    22    17    22   ar
    23    20    21   ar
    24    22    21   ar
