@<TRIPOS>MOLECULE
4hz7_BGC_A_1.pdb
 12 12 0 0 0
SMALL
GASTEIGER

@<TRIPOS>ATOM
      1  C2        32.7970    0.5470   -4.0330 C.3   501  BGC501      0.2434
      2  C3        34.3080    0.2880   -4.2540 C.3   501  BGC501      0.2199
      3  C4        35.1120    1.4780   -3.7030 C.3   501  BGC501      0.2144
      4  C5        34.7600    1.6310   -2.2150 C.3   501  BGC501      0.1836
      5  C6        35.4710    2.7120   -1.3950 C.3   501  BGC501      0.2142
      6  C1        32.4750    0.9340   -2.5900 C.3   501  BGC501      0.3024
      7  O1        31.3260    1.7270   -2.7130 O.3   501  BGC501     -0.1869
      8  O2        32.0220   -0.5850   -4.3990 O.3   501  BGC501     -0.2148
      9  O3        34.4760    0.1330   -5.6700 O.3   501  BGC501     -0.2174
     10  O4        36.5310    1.3890   -3.9100 O.3   501  BGC501     -0.2176
     11  O5        33.3540    1.9400   -2.1410 O.3   501  BGC501     -0.3236
     12  O6        35.0940    4.0000   -1.8840 O.3   501  BGC501     -0.2176
@<TRIPOS>BOND
     1     9     2    1
     2     8     1    1
     3     2     1    1
     4     2     3    1
     5     1     6    1
     6    10     3    1
     7     3     4    1
     8     7     6    1
     9     6    11    1
    10     4    11    1
    11     4     5    1
    12    12     5    1
