@<TRIPOS>MOLECULE
4hz8_BGC_A_1.pdb
 12 12 0 0 0
SMALL
GASTEIGER

@<TRIPOS>ATOM
      1  C2        32.8770    0.4930   -4.0980 C.3   501  BGC501      0.2434
      2  C3        34.3840    0.2380   -4.2560 C.3   501  BGC501      0.2199
      3  C4        35.1740    1.4300   -3.7480 C.3   501  BGC501      0.2144
      4  C5        34.9290    1.5930   -2.2530 C.3   501  BGC501      0.1836
      5  C6        35.7220    2.6340   -1.4990 C.3   501  BGC501      0.2142
      6  C1        32.6470    1.0700   -2.6830 C.3   501  BGC501      0.3024
      7  O1        31.4840    2.0050   -2.7590 O.3   501  BGC501     -0.1869
      8  O2        32.0110   -0.6180   -4.4490 O.3   501  BGC501     -0.2148
      9  O3        34.5930    0.0510   -5.6910 O.3   501  BGC501     -0.2174
     10  O4        36.5750    1.2290   -3.9710 O.3   501  BGC501     -0.2176
     11  O5        33.5240    2.0640   -2.1590 O.3   501  BGC501     -0.3236
     12  O6        35.3430    3.7810   -1.9860 O.3   501  BGC501     -0.2176
@<TRIPOS>BOND
     1     9     2    1
     2     8     1    1
     3     2     1    1
     4     2     3    1
     5     1     6    1
     6    10     3    1
     7     3     4    1
     8     7     6    1
     9     6    11    1
    10     4    11    1
    11     4     5    1
    12    12     5    1
