@<TRIPOS>MOLECULE
4hzo_COA_A_1.pdb
 26 25 0 0 0
SMALL
GASTEIGER

@<TRIPOS>ATOM
      1  O5B       33.5440   13.4540   -2.0960 O.3   402  COA402     -0.1143
      2  P1A       34.7770   13.8860   -2.8690 P.3   402  COA402      0.5373
      3  O1A       34.4820   14.7060   -4.1380 O.2   402  COA402     -0.2221
      4  O2A       35.6720   12.5940   -3.1870 O.3   402  COA402     -0.1143
      5  O3A       35.9160   14.5870   -1.9420 O.3   402  COA402     -0.2261
      6  P2A       35.4560   15.6890   -0.9210 P.3   402  COA402      0.2230
      7  O4A       34.0220   16.1070   -1.2780 O.2   402  COA402     -0.5169
      8  O5A       36.3080   16.9400   -0.8160 O.3   402  COA402     -0.4370
      9  O6A       35.4450   14.7580    0.3930 O.3   402  COA402     -0.3137
     10  CBP       34.4960   14.2510    2.4840 C.3   402  COA402      0.0645
     11  CCP       34.2140   14.4780    1.0100 C.3   402  COA402      0.1519
     12  CDP       35.3530   12.9580    2.5780 C.3   402  COA402      0.0056
     13  CEP       33.1390   14.0530    3.1660 C.3   402  COA402      0.0056
     14  CAP       35.2770   15.4580    3.0760 C.3   402  COA402      0.2312
     15  OAP       34.7360   16.7640    2.8970 O.3   402  COA402     -0.2131
     16  C9P       35.4320   15.3100    4.5710 C.2   402  COA402      0.2719
     17  O9P       36.3020   14.3450    5.0550 O.2   402  COA402     -0.2706
     18  N8P       34.7670   16.1100    5.4230 N.am  402  COA402     -0.2028
     19  C7P       35.0180   16.0130    6.8380 C.3   402  COA402      0.1248
     20  C6P       33.8390   15.6210    7.6980 C.3   402  COA402      0.1102
     21  C5P       34.2250   15.6240    9.1540 C.2   402  COA402      0.2432
     22  O5P       35.3660   15.2110    9.5000 O.2   402  COA402     -0.2733
     23  N4P       33.3220   15.9500   10.0630 N.am  402  COA402     -0.2044
     24  C3P       33.5950   15.9570   11.5340 C.3   402  COA402      0.1276
     25  C2P       33.6890   14.5140   12.1250 C.3   402  COA402      0.0920
     26  S1P       32.0000   13.8280   12.0460 S.3   402  COA402     -0.0802
@<TRIPOS>BOND
     1     3     2    2
     2     4     2    1
     3     2     1    1
     4     2     5    1
     5     5     6    1
     6     7     6    2
     7     6     8    1
     8     6     9    1
     9     9    11    1
    10    11    10    1
    11    10    12    1
    12    10    14    1
    13    10    13    1
    14    15    14    1
    15    14    16    1
    16    16    17    2
    17    16    18   am
    18    18    19    1
    19    19    20    1
    20    20    21    1
    21    21    22    2
    22    21    23   am
    23    23    24    1
    24    24    25    1
    25    26    25    1
