@<TRIPOS>MOLECULE
4hzp_COA_A_1.pdb
 26 25 0 0 0
SMALL
GASTEIGER

@<TRIPOS>ATOM
      1  O5B       35.9840   12.5150   -2.2790 O.3   401  COA401     -0.1143
      2  P1A       34.7790   13.3670   -2.9080 P.3   401  COA401      0.5373
      3  O1A       33.4230   12.7010   -2.7880 O.3   401  COA401     -0.1143
      4  O2A       35.0940   13.8470   -4.3110 O.2   401  COA401     -0.2221
      5  O3A       34.5760   14.7560   -2.1190 O.3   401  COA401     -0.2261
      6  P2A       35.3560   15.1970   -0.8030 P.3   401  COA401      0.2230
      7  O4A       34.8310   16.6120   -0.5410 O.3   401  COA401     -0.4370
      8  O5A       36.8130   15.0640   -1.0170 O.2   401  COA401     -0.5169
      9  O6A       34.8570   14.1580    0.3380 O.3   401  COA401     -0.3137
     10  CBP       33.9030   14.0330    2.5590 C.3   401  COA401      0.0645
     11  CCP       33.7040   14.4290    1.0860 C.3   401  COA401      0.1519
     12  CDP       34.4520   12.6110    2.6890 C.3   401  COA401      0.0056
     13  CEP       32.5110   14.0360    3.2370 C.3   401  COA401      0.0056
     14  CAP       34.7780   15.0910    3.2250 C.3   401  COA401      0.2312
     15  OAP       34.2290   16.3690    2.9620 O.3   401  COA401     -0.2131
     16  C9P       34.9340   14.9750    4.7260 C.2   401  COA401      0.2719
     17  O9P       35.8160   13.9760    5.1990 O.2   401  COA401     -0.2706
     18  N8P       34.2450   15.8130    5.5510 N.am  401  COA401     -0.2028
     19  C7P       34.4360   15.8850    6.9860 C.3   401  COA401      0.1248
     20  C6P       33.2530   15.2930    7.7680 C.3   401  COA401      0.1102
     21  C5P       33.5640   15.2570    9.2150 C.2   401  COA401      0.2432
     22  O5P       34.7080   14.9040    9.6330 O.2   401  COA401     -0.2733
     23  N4P       32.6460   15.5990   10.0840 N.am  401  COA401     -0.2044
     24  C3P       32.9680   15.6940   11.5350 C.3   401  COA401      0.1276
     25  C2P       33.0540   14.3350   12.1980 C.3   401  COA401      0.0920
     26  S1P       31.4890   13.4080   12.0160 S.3   401  COA401     -0.0802
@<TRIPOS>BOND
     1     4     2    2
     2     2     3    1
     3     2     1    1
     4     2     5    1
     5     5     6    1
     6     8     6    2
     7     6     7    1
     8     6     9    1
     9     9    11    1
    10    11    10    1
    11    10    12    1
    12    10    14    1
    13    10    13    1
    14    15    14    1
    15    14    16    1
    16    16    17    2
    17    16    18   am
    18    18    19    1
    19    19    20    1
    20    20    21    1
    21    21    22    2
    22    21    23   am
    23    23    24    1
    24    24    25    1
    25    26    25    1
