@<TRIPOS>MOLECULE
4hzt_0ZA_A_1.pdb
 28 31 0 0 0
SMALL
GASTEIGER

@<TRIPOS>ATOM
      1 CL1         9.6870  -11.8270    4.4120 Cl    504  0ZA504     -0.0823
      2  C6        10.0550  -13.2370    5.4620 C.ar  504  0ZA504      0.0574
      3  C5         9.3310  -14.4500    5.2550 C.ar  504  0ZA504      0.0116
      4  C4         9.6060  -15.5400    6.0610 C.ar  504  0ZA504      0.0080
      5  C3        10.6030  -15.3930    7.0600 C.ar  504  0ZA504      0.0817
      6  C2        11.3220  -14.1450    7.2610 C.ar  504  0ZA504     -0.0099
      7  C1        11.0570  -13.0750    6.4130 C.ar  504  0ZA504      0.0075
      8  C10       10.9560  -16.5400    7.9730 C.2   504  0ZA504      0.3564
      9  N9        11.5590  -16.2870    9.0680 N.2   504  0ZA504     -0.0707
     10  C8        11.8030  -14.9130    9.5580 C.3   504  0ZA504      0.1792
     11  C11       12.8610  -14.9790   10.6480 C.3   504  0ZA504      0.0536
     12  C12       10.5200  -14.2560   10.1820 C.3   504  0ZA504      0.0536
     13  C7        12.3430  -14.0940    8.3810 C.3   504  0ZA504      0.0755
     14  N13       10.6670  -17.7590    7.5330 N.pl3 504  0ZA504     -0.0187
     15  C14       10.8430  -18.9120    8.4150 C.3   504  0ZA504      0.3072
     16  C25       11.4280  -19.9500    7.5580 C.1   504  0ZA504      0.1641
     17  N24       11.6890  -21.2090    8.0090 N.2   504  0ZA504     -0.2451
     18  C29       12.1450  -21.8500    6.9430 C.1   504  0ZA504      0.4080
     19  O28       12.4930  -23.2490    6.9730 O.2   504  0ZA504     -0.1665
     20  O26       12.1110  -21.1010    5.8410 O.3   504  0ZA504     -0.2450
     21  N27       11.6480  -19.8830    6.1910 N.2   504  0ZA504      0.0057
     22  C18        9.4770  -19.4370    8.9390 C.3   504  0ZA504      0.0944
     23  C19        8.9520  -18.4470    9.9640 C.ar  504  0ZA504     -0.0169
     24  C24        9.5320  -18.4410   11.2390 C.ar  504  0ZA504     -0.0041
     25  C23        9.1220  -17.5360   12.2320 C.ar  504  0ZA504     -0.0003
     26  C22        8.1010  -16.6320   11.9530 C.ar  504  0ZA504     -0.0000
     27  C21        7.5460  -16.6170   10.6630 C.ar  504  0ZA504     -0.0003
     28  C20        7.9380  -17.5330    9.6450 C.ar  504  0ZA504     -0.0041
@<TRIPOS>BOND
     1     1     2    1
     2     3     2   ar
     3     3     4   ar
     4     2     7   ar
     5    20    21    1
     6    20    18    1
     7     4     5   ar
     8    21    16    2
     9     7     6   ar
    10    18    19    2
    11    18    17    2
    12     5     6   ar
    13     5     8    1
    14     6    13    1
    15    14     8    1
    16    14    15    1
    17    16    17    2
    18    16    15    1
    19     8     9    2
    20    13    10    1
    21    15    22    1
    22    22    23    1
    23     9    10    1
    24    10    12    1
    25    10    11    1
    26    28    23   ar
    27    28    27   ar
    28    23    24   ar
    29    27    26   ar
    30    24    25   ar
    31    26    25   ar
