@<TRIPOS>MOLECULE
4i08_NDP_A_1.pdb
 48 52 0 0 0
SMALL
GASTEIGER

@<TRIPOS>ATOM
      1  PA        -8.5050   -8.7960   -3.6240 P.3   306  NDP306      0.2189
      2  O1A       -8.2180   -7.5220   -2.8410 O.3   306  NDP306     -0.4371
      3  O2A       -9.5910   -8.8440   -4.6610 O.2   306  NDP306     -0.5170
      4  O5B       -7.2210   -9.2990   -4.4370 O.3   306  NDP306     -0.3112
      5  C5B       -7.3570  -10.5610   -5.1060 C.3   306  NDP306      0.1813
      6  C4B       -6.0010  -11.0560   -5.5830 C.3   306  NDP306      0.1820
      7  O4B       -6.1850  -12.3210   -6.2130 O.3   306  NDP306     -0.3136
      8  C3B       -5.4310  -10.1090   -6.6230 C.3   306  NDP306      0.2157
      9  O3B       -4.0000  -10.0770   -6.6130 O.3   306  NDP306     -0.2175
     10  C2B       -5.8610  -10.7200   -7.9270 C.3   306  NDP306      0.2314
     11  O2B       -4.9830  -10.2810   -8.9600 O.3   306  NDP306     -0.2630
     12  C1B       -5.8110  -12.2000   -7.5880 C.3   306  NDP306      0.3158
     13  N9A       -6.6760  -13.0130   -8.4700 N.pl3 306  NDP306     -0.1439
     14  C8A       -8.0090  -12.9010   -8.6840 C.3   306  NDP306      0.3377
     15  N7A       -8.3770  -13.8360   -9.5960 N.2   306  NDP306     -0.2095
     16  C5A       -7.2640  -14.5300   -9.9430 C.2   306  NDP306      0.2526
     17  C6A       -7.0200  -15.5910  -10.8090 C.2   306  NDP306      0.4393
     18  N6A       -8.0200  -16.1390  -11.5370 N.pl3 306  NDP306      0.2180
     19  N1A       -5.7580  -16.0600  -10.9510 N.2   306  NDP306      0.0021
     20  C2A       -4.7470  -15.5400  -10.2290 C.3   306  NDP306      0.5254
     21  N3A       -4.9420  -14.5040   -9.3950 N.2   306  NDP306     -0.0055
     22  C4A       -6.1970  -13.9960   -9.2380 C.2   306  NDP306      0.3518
     23  O3        -8.7010  -10.0250   -2.5620 O.3   306  NDP306     -0.2703
     24  PN        -8.4450  -10.0190   -0.9650 P.3   306  NDP306      0.2189
     25  O1N       -7.0060   -9.6000   -0.6780 O.2   306  NDP306     -0.5170
     26  O2N       -9.5250   -9.3100   -0.2050 O.3   306  NDP306     -0.4371
     27  O5D       -8.6260  -11.5880   -0.6670 O.3   306  NDP306     -0.3112
     28  C5D       -7.6000  -12.5240   -0.9590 C.3   306  NDP306      0.1813
     29  C4D       -8.0970  -13.8610   -0.4490 C.3   306  NDP306      0.1799
     30  O4D       -8.6220  -13.6970    0.8680 O.3   306  NDP306     -0.3324
     31  C3D       -9.2320  -14.4140   -1.2980 C.3   306  NDP306      0.2158
     32  O3D       -9.0730  -15.8300   -1.3870 O.3   306  NDP306     -0.2175
     33  C2D      -10.4860  -14.0750   -0.5280 C.3   306  NDP306      0.2312
     34  O2D      -11.5640  -14.9520   -0.8420 O.3   306  NDP306     -0.2158
     35  C1D       -9.9720  -14.2090    0.8940 C.3   306  NDP306      0.2299
     36  N1N      -10.8940  -13.5430    1.8410 N.pl3 306  NDP306     -0.2608
     37  C2N      -10.7310  -12.1710    2.0520 C.2   306  NDP306      0.0678
     38  C3N      -11.5900  -11.6100    2.9320 C.2   306  NDP306      0.0537
     39  C7N      -11.8330  -10.1770    3.0080 C.2   306  NDP306      0.2818
     40  O7N      -12.4520   -9.7100    4.0780 O.2   306  NDP306     -0.2670
     41  N7N      -11.4170   -9.3740    2.0230 N.am  306  NDP306     -0.0839
     42  C4N      -12.4410  -12.5010    3.8160 C.3   306  NDP306      0.0597
     43  C5N      -11.6980  -13.7910    4.0150 C.2   306  NDP306     -0.0051
     44  C6N      -10.9290  -14.2350    3.0270 C.2   306  NDP306      0.0630
     45  P2B       -5.2650   -8.9440   -9.8440 P.3   306  NDP306      0.5328
     46  O1X       -4.4690   -9.1940  -11.1000 O.2   306  NDP306     -0.2224
     47  O2X       -6.7600   -8.9020  -10.0690 O.3   306  NDP306     -0.1145
     48  O3X       -4.7840   -7.8380   -8.9350 O.3   306  NDP306     -0.1145
@<TRIPOS>BOND
     1    18    17    1
     2    46    45    2
     3    19    17    2
     4    19    20    1
     5    17    16    1
     6    20    21    1
     7    47    45    1
     8    16    15    2
     9    16    22    1
    10    45    11    1
    11    45    48    1
    12    15    14    1
    13    21    22    2
    14    22    13    1
    15    11    10    1
    16    14    13    1
    17    13    12    1
    18    10    12    1
    19    10     8    1
    20    12     7    1
    21     8     9    1
    22     8     6    1
    23     7     6    1
    24     6     5    1
    25     5     4    1
    26     3     1    2
    27     4     1    1
    28     1     2    1
    29     1    23    1
    30    23    24    1
    31    32    31    1
    32    31    33    1
    33    31    29    1
    34    24    25    2
    35    24    27    1
    36    24    26    1
    37    28    27    1
    38    28    29    1
    39    34    33    1
    40    33    35    1
    41    29    30    1
    42    30    35    1
    43    35    36    1
    44    36    37    1
    45    36    44    1
    46    41    39   am
    47    37    38    2
    48    38    39    1
    49    38    42    1
    50    39    40    2
    51    44    43    2
    52    42    43    1
