@<TRIPOS>MOLECULE
4i0e_1B8_A_1.pdb
 30 33 0 0 0
SMALL
GASTEIGER

@<TRIPOS>ATOM
      1 CL1        10.2270  -11.4810    4.3250 Cl    504  1B8504     -0.0823
      2  C2        10.4490  -12.9520    5.3250 C.ar  504  1B8504      0.0574
      3  C3         9.7810  -14.1480    5.0480 C.ar  504  1B8504      0.0116
      4  C4         9.9480  -15.2480    5.8820 C.ar  504  1B8504      0.0080
      5  C7        11.3180  -12.8120    6.4250 C.ar  504  1B8504      0.0075
      6  C6        11.4920  -13.8820    7.2560 C.ar  504  1B8504     -0.0099
      7  C5        10.7900  -15.1280    7.0090 C.ar  504  1B8504      0.0817
      8  C11       12.4490  -13.8270    8.4660 C.3   504  1B8504      0.0755
      9  C10       11.8860  -14.6830    9.5720 C.3   504  1B8504      0.1792
     10  C29       12.9230  -14.7590   10.7040 C.3   504  1B8504      0.0536
     11  C28       10.6070  -14.0040   10.0670 C.3   504  1B8504      0.0536
     12  N9        11.6160  -16.0230    9.0960 N.2   504  1B8504     -0.0708
     13  C8        11.1030  -16.2580    7.9690 C.2   504  1B8504      0.3558
     14  N12       10.9210  -17.4900    7.4530 N.pl3 504  1B8504     -0.0237
     15  C13       10.6600  -18.7780    8.1370 C.3   504  1B8504      0.3106
     16  C25       11.4620  -19.8230    7.4340 C.2   504  1B8504      0.4112
     17  O26       11.7860  -20.9620    7.8100 O.co2 504  1B8504     -0.2410
     18  O27       11.7420  -19.4590    6.3060 O.co2 504  1B8504     -0.2410
     19  C14        9.2970  -19.1570    8.7060 C.3   504  1B8504      0.0903
     20  C15        8.7960  -18.0910    9.6120 C.ar  504  1B8504     -0.0048
     21  C16        9.1160  -18.0790   11.0340 C.ar  504  1B8504      0.0600
     22 BR1        10.2200  -19.3720   11.9990 Br    504  1B8504     -0.0422
     23  S17        8.4580  -16.7770   11.9070 S.2   504  1B8504     -0.0800
     24  C18        7.6440  -16.1170   10.5300 C.ar  504  1B8504      0.0354
     25  C19        7.9200  -16.8890    9.4120 C.ar  504  1B8504      0.0032
     26  C20        7.3660  -16.4350    8.1320 C.2   504  1B8504      0.0251
     27  C21        7.2600  -15.0700    7.8770 C.3   504  1B8504      0.1771
     28  N22        6.8070  -15.0580    6.6080 N.2   504  1B8504     -0.1695
     29  N23        6.6960  -16.2830    6.1200 N.2   504  1B8504     -0.1510
     30  C24        7.0640  -17.2190    7.0340 C.2   504  1B8504      0.1194
@<TRIPOS>BOND
     1     1     2    1
     2     3     2   ar
     3     3     4   ar
     4     2     5   ar
     5     4     7   ar
     6    29    28    2
     7    29    30    1
     8    18    16   ar
     9     5     6   ar
    10    28    27    1
    11     7     6   ar
    12     7    13    1
    13    30    26    2
    14     6     8    1
    15    16    17   ar
    16    16    15    1
    17    14    13    1
    18    14    15    1
    19    27    26    1
    20    13    12    2
    21    26    25    1
    22    15    19    1
    23     8     9    1
    24    19    20    1
    25    12     9    1
    26    25    20   ar
    27    25    24   ar
    28     9    11    1
    29     9    10    1
    30    20    21   ar
    31    24    23   ar
    32    21    23   ar
    33    21    22    1
