@<TRIPOS>MOLECULE
4i0f_1BF_A_1.pdb
 29 32 0 0 0
SMALL
GASTEIGER

@<TRIPOS>ATOM
      1 CL1         9.9610  -11.3380    4.5550 Cl    504  1BF504     -0.0823
      2  C2        10.3020  -12.7740    5.5610 C.ar  504  1BF504      0.0574
      3  C3         9.5710  -13.9400    5.3360 C.ar  504  1BF504      0.0116
      4  C4         9.7600  -15.0860    6.0900 C.ar  504  1BF504      0.0080
      5  C7        11.2740  -12.6430    6.5280 C.ar  504  1BF504      0.0075
      6  C6        11.4970  -13.7740    7.3240 C.ar  504  1BF504     -0.0099
      7  C5        10.7310  -14.9860    7.0900 C.ar  504  1BF504      0.0817
      8  C11       12.5080  -13.7890    8.4520 C.3   504  1BF504      0.0755
      9  C10       11.9110  -14.5950    9.5930 C.3   504  1BF504      0.1792
     10  C28       12.9480  -14.6400   10.6960 C.3   504  1BF504      0.0536
     11  C29       10.6760  -13.8810   10.1890 C.3   504  1BF504      0.0536
     12  N9        11.5830  -15.9400    9.1050 N.2   504  1BF504     -0.0708
     13  C8        11.0570  -16.1600    7.9690 C.2   504  1BF504      0.3558
     14  N12       10.8080  -17.3620    7.4480 N.pl3 504  1BF504     -0.0237
     15  C13       10.8320  -18.6080    8.2490 C.3   504  1BF504      0.3105
     16  C25       11.5300  -19.6260    7.4030 C.2   504  1BF504      0.4112
     17  O26       11.7920  -20.7450    7.8910 O.co2 504  1BF504     -0.2410
     18  O27       11.7850  -19.4380    6.2100 O.co2 504  1BF504     -0.2410
     19  C14        9.4280  -19.1070    8.6540 C.3   504  1BF504      0.0898
     20  C15        9.0840  -18.2970    9.9050 C.ar  504  1BF504     -0.0106
     21  C16        9.6050  -18.5940   11.1740 C.ar  504  1BF504      0.0313
     22  S17        9.0380  -17.3900   12.3000 S.2   504  1BF504     -0.0863
     23  C18        8.0440  -16.4370   11.2510 C.ar  504  1BF504      0.0349
     24  C19        8.1860  -17.0770   10.0060 C.ar  504  1BF504      0.0027
     25  C20        7.5530  -16.4480    8.7970 C.2   504  1BF504      0.0251
     26  C21        7.4140  -15.0330    8.6720 C.3   504  1BF504      0.1771
     27  N22        6.8870  -14.8100    7.4390 N.2   504  1BF504     -0.1695
     28  N23        6.7150  -16.0870    6.8270 N.2   504  1BF504     -0.1510
     29  C24        7.1460  -17.1040    7.6620 C.2   504  1BF504      0.1194
@<TRIPOS>BOND
     1     1     2    1
     2     3     2   ar
     3     3     4   ar
     4     2     5   ar
     5     4     7   ar
     6    18    16   ar
     7     5     6   ar
     8    28    27    2
     9    28    29    1
    10     7     6   ar
    11     7    13    1
    12     6     8    1
    13    16    17   ar
    14    16    15    1
    15    27    26    1
    16    14    13    1
    17    14    15    1
    18    29    25    2
    19    13    12    2
    20    15    19    1
    21     8     9    1
    22    19    20    1
    23    26    25    1
    24    25    24    1
    25    12     9    1
    26     9    11    1
    27     9    10    1
    28    20    24   ar
    29    20    21   ar
    30    24    23   ar
    31    21    22   ar
    32    23    22   ar
