@<TRIPOS>MOLECULE
4i0g_1B9_A_1.pdb
 25 27 0 0 0
SMALL
GASTEIGER

@<TRIPOS>ATOM
      1 CL1         9.6580  -11.6490    4.2120 Cl    504  1B9504     -0.0823
      2  C6        10.0230  -12.9770    5.3900 C.ar  504  1B9504      0.0574
      3  C5         9.3270  -14.1820    5.2230 C.ar  504  1B9504      0.0116
      4  C4         9.5390  -15.2810    6.0570 C.ar  504  1B9504      0.0080
      5  C1        11.0030  -12.8450    6.3950 C.ar  504  1B9504      0.0075
      6  C2        11.2470  -13.9390    7.2480 C.ar  504  1B9504     -0.0099
      7  C3        10.4720  -15.1730    7.0810 C.ar  504  1B9504      0.0817
      8  C7        12.2240  -13.8980    8.3990 C.3   504  1B9504      0.0755
      9  C8        11.6640  -14.7510    9.5600 C.3   504  1B9504      0.1792
     10  C11       12.8390  -14.8150   10.5460 C.3   504  1B9504      0.0536
     11  C12       10.3350  -14.1980   10.1120 C.3   504  1B9504      0.0536
     12  N9        11.3670  -16.0950    9.0980 N.2   504  1B9504     -0.0708
     13  C10       10.7710  -16.3310    8.0140 C.2   504  1B9504      0.3558
     14  N13       10.4800  -17.5680    7.5860 N.pl3 504  1B9504     -0.0237
     15  C14       10.5820  -18.8470    8.2770 C.3   504  1B9504      0.3106
     16  C15       11.2930  -19.8710    7.4250 C.2   504  1B9504      0.4112
     17  O17       11.6360  -19.5560    6.2820 O.co2 504  1B9504     -0.2410
     18  O16       11.4980  -21.0220    7.8790 O.co2 504  1B9504     -0.2410
     19  C18        9.1710  -19.3600    8.6430 C.3   504  1B9504      0.0903
     20  C19        8.5720  -18.2990    9.5320 C.ar  504  1B9504     -0.0042
     21  C23        8.9320  -18.0760   10.9930 C.ar  504  1B9504      0.0377
     22 BR2        10.2080  -19.1660   12.0710 Br    504  1B9504     -0.0488
     23  C20        7.6360  -17.3410    9.0890 C.ar  504  1B9504      0.0318
     24  S21        7.3400  -16.3780   10.5050 S.2   504  1B9504     -0.0857
     25  C22        8.3310  -17.0630   11.7290 C.ar  504  1B9504      0.0418
@<TRIPOS>BOND
     1     1     2    1
     2     3     2   ar
     3     3     4   ar
     4     2     5   ar
     5     4     7   ar
     6    17    16   ar
     7     5     6   ar
     8     7     6   ar
     9     7    13    1
    10     6     8    1
    11    16    18   ar
    12    16    15    1
    13    14    13    1
    14    14    15    1
    15    13    12    2
    16    15    19    1
    17     8     9    1
    18    19    20    1
    19    23    20   ar
    20    23    24   ar
    21    12     9    1
    22    20    21   ar
    23     9    11    1
    24     9    10    1
    25    24    25   ar
    26    21    25   ar
    27    21    22    1
