@<TRIPOS>MOLECULE
4i0h_1BL_A_1.pdb
 40 42 0 0 0
SMALL
GASTEIGER

@<TRIPOS>ATOM
      1  C2       -45.3490    8.9350   31.8180 C.ar  501  1BL501      0.0256
      2  C3       -45.4910    8.5910   33.1700 C.ar  501  1BL501     -0.0159
      3  C5       -44.2570   10.5970   33.7430 C.ar  501  1BL501      0.1421
      4  C4       -44.9420    9.4320   34.1390 C.ar  501  1BL501      0.0256
      5  C10      -45.0840    6.3970   34.2270 C.3   501  1BL501      0.1313
      6  C11      -45.5350    4.9450   34.4810 C.3   501  1BL501      0.1894
      7  C12      -44.5290    4.1520   35.2530 C.3   501  1BL501      0.1235
      8  C9       -46.1620    7.2740   33.5600 C.3   501  1BL501      0.0508
      9  C1       -44.6680   10.0980   31.4480 C.ar  501  1BL501      0.1421
     10  C6       -44.1200   10.9460   32.3990 C.ar  501  1BL501      0.0592
     11  O24      -42.4180    6.9890   34.8660 O.2   501  1BL501     -0.2733
     12  C17      -42.6830    6.6520   33.7180 C.2   501  1BL501      0.2415
     13  C18      -41.5520    6.5710   32.7120 C.3   501  1BL501      0.0900
     14  C19      -41.5140    7.8540   31.8380 C.3   501  1BL501      0.0543
     15  C20      -40.2800    7.9940   30.9260 C.3   501  1BL501      0.2545
     16  O41      -39.0870    7.7190   31.6770 O.3   501  1BL501     -0.2109
     17  C21      -40.3610    6.9360   29.8550 C.2   501  1BL501      0.3946
     18  O23      -41.0160    7.1320   28.8390 O.co2 501  1BL501     -0.2428
     19  O22      -39.8010    5.8560   30.0370 O.co2 501  1BL501     -0.2428
     20  N16      -43.9270    6.3560   33.3250 N.am  501  1BL501     -0.2042
     21  F8       -43.7500   11.4370   34.6310 F     501  1BL501     -0.2041
     22  F7       -44.5260   10.4340   30.1840 F     501  1BL501     -0.2041
     23  O40      -46.5870    5.0200   35.4160 O.3   501  1BL501     -0.2197
     24  N13      -45.0360    2.8590   35.6910 N.3   501  1BL501     -0.2140
     25  C14      -44.2050    2.0940   36.6780 C.3   501  1BL501      0.0781
     26  C29      -42.7960    1.8940   36.0230 C.3   501  1BL501      0.0202
     27  C28      -41.8520    0.8690   36.6540 C.3   501  1BL501      0.0017
     28  C27      -42.5190   -0.4370   36.9960 C.3   501  1BL501      0.0001
     29  C26      -43.7930   -0.1920   37.8700 C.3   501  1BL501      0.0017
     30  C25      -44.7990    0.7220   37.0990 C.3   501  1BL501      0.0202
     31  C30      -44.1870    2.8950   37.9690 C.ar  501  1BL501     -0.0084
     32  C35      -45.4000    3.1430   38.6420 C.ar  501  1BL501     -0.0073
     33  C34      -45.4440    3.8610   39.8390 C.ar  501  1BL501     -0.0231
     34  C36      -46.7350    4.1360   40.5920 C.3   501  1BL501      0.0189
     35  C39      -47.4910    5.2160   39.8250 C.3   501  1BL501      0.0044
     36  C38      -47.7110    2.9810   40.7180 C.3   501  1BL501      0.0044
     37  C37      -46.3840    4.4950   42.0530 C.3   501  1BL501      0.0044
     38  C33      -44.2640    4.3700   40.3670 C.ar  501  1BL501     -0.0043
     39  C32      -43.0310    4.1300   39.7360 C.ar  501  1BL501     -0.0006
     40  C31      -42.9940    3.3980   38.5410 C.ar  501  1BL501     -0.0030
@<TRIPOS>BOND
     1    18    17   ar
     2    17    19   ar
     3    17    15    1
     4    22     9    1
     5    15    16    1
     6    15    14    1
     7     9     1   ar
     8     9    10   ar
     9     1     2   ar
    10    14    13    1
    11    10     3   ar
    12    13    12    1
    13     2     8    1
    14     2     4   ar
    15    20    12   am
    16    20     5    1
    17     8     5    1
    18    12    11    2
    19     3     4   ar
    20     3    21    1
    21     5     6    1
    22     6     7    1
    23     6    23    1
    24     7    24    1
    25    24    25    1
    26    26    27    1
    27    26    25    1
    28    27    28    1
    29    25    30    1
    30    25    31    1
    31    28    29    1
    32    30    29    1
    33    31    40   ar
    34    31    32   ar
    35    40    39   ar
    36    32    33   ar
    37    39    38   ar
    38    35    34    1
    39    33    38   ar
    40    33    34    1
    41    34    36    1
    42    34    37    1
