@<TRIPOS>MOLECULE
4i0j_842_A_1.pdb
 35 38 0 0 0
SMALL
GASTEIGER

@<TRIPOS>ATOM
      1  C1        25.2290   18.6050    6.7060 C.3   505  842505      0.0964
      2  C2        24.5540   17.2840    6.9930 C.2   505  842505      0.2419
      3  N3        24.1110   17.1000    8.2630 N.am  505  842505     -0.2042
      4  C4        23.3980   15.9100    8.7500 C.3   505  842505      0.1313
      5  C5        21.9560   16.2580    9.1590 C.3   505  842505      0.1894
      6  C6        21.2530   16.8320    7.9380 C.3   505  842505      0.1235
      7  N7        19.7890   16.9450    8.1410 N.3   505  842505     -0.2140
      8  C8        18.8550   17.2070    7.0280 C.3   505  842505      0.0782
      9  C9        17.3940   17.3890    7.5290 C.3   505  842505      0.0202
     10  C10       16.3880   17.8510    6.4660 C.3   505  842505      0.0017
     11  C11       16.8110   19.1630    5.7890 C.3   505  842505      0.0001
     12  C12       18.2950   19.2130    5.4050 C.3   505  842505      0.0017
     13  C13       19.2860   18.5080    6.3480 C.3   505  842505      0.0202
     14  C14       18.9440   15.9730    6.1390 C.ar  505  842505     -0.0065
     15  C15       18.5630   14.7270    6.6940 C.ar  505  842505      0.0162
     16  C16       18.5800   13.5040    6.0100 C.ar  505  842505      0.0826
     17  C17       19.0010   13.5880    4.6580 C.ar  505  842505      0.0191
     18  C18       19.3840   14.8030    4.0510 C.ar  505  842505      0.0013
     19  C19       19.3670   15.9920    4.7930 C.ar  505  842505     -0.0029
     20  N20       18.1610   12.3920    6.6260 N.ar  505  842505     -0.2282
     21  N21       16.9700   12.4070    7.3870 N.ar  505  842505     -0.1635
     22  C22       16.8110   11.1470    7.8410 C.ar  505  842505      0.1221
     23  C23       17.9170   10.4020    7.4130 C.ar  505  842505      0.0431
     24  C24       18.7670   11.2110    6.6420 C.ar  505  842505      0.1020
     25  O25       24.3990   16.4360    6.1300 O.2   505  842505     -0.2733
     26  C26       24.1940   15.1970    9.8640 C.3   505  842505      0.0508
     27  C27       25.6110   14.9800    9.3460 C.ar  505  842505     -0.0159
     28  C28       26.6710   15.7210    9.8890 C.ar  505  842505      0.0256
     29  C29       27.9950   15.5810    9.4130 C.ar  505  842505      0.1421
     30  C30       28.2690   14.7000    8.3640 C.ar  505  842505      0.0592
     31  C31       27.1900   13.9870    7.8170 C.ar  505  842505      0.1421
     32  C32       25.8620   14.1220    8.2720 C.ar  505  842505      0.0256
     33  F33       28.9760   16.2920    9.9900 F     505  842505     -0.2041
     34  F34       27.4020   13.1790    6.7830 F     505  842505     -0.2041
     35  O35       21.2580   15.0520    9.5750 O.3   505  842505     -0.2197
@<TRIPOS>BOND
     1    18    17   ar
     2    18    19   ar
     3    17    16   ar
     4    19    14   ar
     5    12    11    1
     6    12    13    1
     7    11    10    1
     8    16    20    1
     9    16    15   ar
    10    25     2    2
    11    14    15   ar
    12    14     8    1
    13    13     8    1
    14    10     9    1
    15    20    24   ar
    16    20    21   ar
    17    24    23   ar
    18     1     2    1
    19    34    31    1
    20     2     3   am
    21     8     9    1
    22     8     7    1
    23    21    22   ar
    24    23    22   ar
    25    31    32   ar
    26    31    30   ar
    27     6     7    1
    28     6     5    1
    29     3     4    1
    30    32    27   ar
    31    30    29   ar
    32     4     5    1
    33     4    26    1
    34     5    35    1
    35    27    26    1
    36    27    28   ar
    37    29    28   ar
    38    29    33    1
