@<TRIPOS>MOLECULE
4i0v_HEB_A_1.pdb
 43 50 0 0 0
SMALL
GASTEIGER

@<TRIPOS>ATOM
      1 FE         23.5510    7.7590   -1.4710 Fe    201  HEB201      0.0000
      2  CHA       20.2080    8.3790   -1.4640 C.2   201  HEB201      0.0000
      3  CHB       23.6160    8.0820   -4.8950 C.2   201  HEB201      0.0000
      4  CHC       26.9550    8.0070   -1.3530 C.2   201  HEB201      0.0000
      5  CHD       23.4590    6.4660    1.6190 C.2   201  HEB201      0.0000
      6  NA        22.1530    8.1920   -2.8860 N.ar  201  HEB201      0.0000
      7  C1A       20.8740    8.4230   -2.7110 C.ar  201  HEB201      0.0000
      8  C2A       20.1200    8.6310   -3.9170 C.ar  201  HEB201      0.0000
      9  C3A       21.1380    8.4190   -4.9130 C.ar  201  HEB201      0.0000
     10  C4A       22.3990    8.1950   -4.2310 C.ar  201  HEB201      0.0000
     11  CMA       21.0190    8.4760   -6.4010 C.3   201  HEB201      0.0000
     12  CAA       18.6210    8.7640   -4.1730 C.3   201  HEB201      0.0000
     13  CBA       18.3640   10.1840   -4.6350 C.3   201  HEB201      0.0000
     14  CGA       16.9370   10.3020   -5.1890 C.2   201  HEB201      0.0000
     15  O1A       16.1560    9.3310   -5.3310 O.co2 201  HEB201      0.0000
     16  O2A       16.6710   11.5020   -5.4850 O.co2 201  HEB201      0.0000
     17  NB        24.9940    7.9760   -2.8300 N.2   201  HEB201      0.0000
     18  C1B       24.8570    8.0520   -4.2010 C.2   201  HEB201      0.0000
     19  C2B       26.0970    8.2190   -4.8890 C.2   201  HEB201      0.0000
     20  C3B       27.0490    8.2980   -3.8910 C.2   201  HEB201      0.0000
     21  C4B       26.3210    8.1030   -2.6340 C.2   201  HEB201      0.0000
     22  CMB       26.2340    8.3410   -6.3890 C.3   201  HEB201      0.0000
     23  CAB       28.5330    8.4520   -3.9700 C.3   201  HEB201      0.0000
     24  CBB       29.1770    7.4340   -4.9020 C.3   201  HEB201      0.0000
     25  NC        24.9500    7.3450   -0.0840 N.ar  201  HEB201      0.0000
     26  C1C       26.2680    7.4960   -0.1860 C.ar  201  HEB201      0.0000
     27  C2C       26.9650    7.0800    1.0030 C.ar  201  HEB201      0.0000
     28  C3C       25.9480    6.5700    1.8090 C.ar  201  HEB201      0.0000
     29  C4C       24.7260    6.7550    1.1050 C.ar  201  HEB201      0.0000
     30  CMC       28.4060    7.1950    1.2890 C.3   201  HEB201      0.0000
     31  CAC       26.0140    5.9870    3.1480 C.2   201  HEB201      0.0000
     32  CBC       27.0540    5.3000    3.6640 C.2   201  HEB201      0.0000
     33  ND        22.1050    7.5420   -0.1220 N.2   201  HEB201      0.0000
     34  C1D       22.2320    6.8500    1.0530 C.2   201  HEB201      0.0000
     35  C2D       20.9290    6.7320    1.6620 C.2   201  HEB201      0.0000
     36  C3D       19.9900    7.4060    0.8520 C.2   201  HEB201      0.0000
     37  C4D       20.7930    7.8160   -0.2780 C.2   201  HEB201      0.0000
     38  CMD       20.6350    6.0780    2.9950 C.3   201  HEB201      0.0000
     39  CAD       18.5180    7.5720    1.0640 C.3   201  HEB201      0.0000
     40  CBD       17.7710    6.3110    0.9040 C.3   201  HEB201      0.0000
     41  CGD       17.6100    6.0080   -0.5440 C.2   201  HEB201      0.0000
     42  O1D       17.7460    4.8170   -0.8450 O.co2 201  HEB201      0.0000
     43  O2D       17.2160    6.8860   -1.3390 O.co2 201  HEB201      0.0000
@<TRIPOS>BOND
     1    11     9    1
     2    22    19    1
     3    16    14   ar
     4    15    14   ar
     5    14    13    1
     6     9    10   ar
     7     9     8   ar
     8    24    23    1
     9     3    10    2
    10     3    18    1
    11    19    18    1
    12    19    20    2
    13    13    12    1
    14    10     6   ar
    15    18    17    2
    16    12     8    1
    17    23    20    1
    18     8     7   ar
    19    20    21    1
    20     6     7   ar
    21     6     1    1
    22    17    21    1
    23    17     1    1
    24     7     2    2
    25    21     4    2
    26     1    33    1
    27     1    25    1
    28     2    37    1
    29     4    26    1
    30    43    41   ar
    31    42    41   ar
    32    41    40    1
    33    37    33    2
    34    37    36    1
    35    26    25   ar
    36    26    27   ar
    37    33    34    1
    38    25    29   ar
    39    36    39    1
    40    36    35    2
    41    40    39    1
    42    27    30    1
    43    27    28   ar
    44    34     5    2
    45    34    35    1
    46    29     5    1
    47    29    28   ar
    48    35    38    1
    49    28    31    1
    50    31    32    2
