@<TRIPOS>MOLECULE
4i0z_1BB_A_1.pdb
 31 34 0 0 0
SMALL
GASTEIGER

@<TRIPOS>ATOM
      1 CL1         9.6970  -11.8940    4.2690 Cl    501  1BB501     -0.0823
      2  C1        10.0760  -13.2970    5.2830 C.ar  501  1BB501      0.0574
      3  C2        11.0310  -13.1180    6.3260 C.ar  501  1BB501      0.0075
      4  C3        11.2370  -14.1990    7.1450 C.ar  501  1BB501     -0.0099
      5  C4        10.5660  -15.3790    6.8830 C.ar  501  1BB501      0.0817
      6  C5         9.5960  -15.5200    5.8520 C.ar  501  1BB501      0.0080
      7  C6         9.3590  -14.4640    4.9890 C.ar  501  1BB501      0.0116
      8  C9        12.2140  -14.1390    8.2860 C.3   501  1BB501      0.0755
      9  C10       11.6850  -14.9340    9.4720 C.3   501  1BB501      0.1792
     10  N11       11.4390  -16.2990    8.9650 N.2   501  1BB501     -0.0707
     11  C12       10.9000  -16.5170    7.7940 C.2   501  1BB501      0.3564
     12  N13       10.6340  -17.7530    7.3220 N.pl3 501  1BB501     -0.0188
     13  C14       10.9150  -18.9600    8.1250 C.3   501  1BB501      0.3041
     14  C15        9.5850  -19.4920    8.7820 C.3   501  1BB501      0.0943
     15  C27       12.8240  -14.9370   10.5270 C.3   501  1BB501      0.0536
     16  C28       10.3870  -14.2890   10.0350 C.3   501  1BB501      0.0536
     17  C7        11.3690  -20.0000    7.1650 C.1   501  1BB501      0.1246
     18  N8        11.2760  -19.7740    5.8020 N.2   501  1BB501     -0.1804
     19  C11       11.5740  -20.7400    4.9000 C.2   501  1BB501      0.1334
     20  C13       11.8780  -22.0330    5.3250 C.2   501  1BB501      0.1831
     21  C19       11.9510  -22.2580    6.7810 C.1   501  1BB501      0.2247
     22  N24       11.6830  -21.2180    7.6350 N.2   501  1BB501     -0.2777
     23  O25       12.2140  -23.3860    7.1930 O.2   501  1BB501     -0.2079
     24  C26        9.1100  -18.5280    9.8990 C.ar  501  1BB501     -0.0169
     25  C29        9.8100  -18.5650   11.1120 C.ar  501  1BB501     -0.0041
     26  C30        9.5350  -17.7190   12.2230 C.ar  501  1BB501     -0.0003
     27  C31        8.4270  -16.8150   12.0660 C.ar  501  1BB501     -0.0000
     28  C32        7.7080  -16.7850   10.8450 C.ar  501  1BB501     -0.0003
     29  C33        8.0220  -17.6240    9.7250 C.ar  501  1BB501     -0.0041
     30  C8        12.1430  -22.9960    4.4930 C.1   501  1BB501      0.1149
     31  N9        12.3580  -23.8810    3.7430 N.1   501  1BB501     -0.1900
@<TRIPOS>BOND
     1    31    30    3
     2     1     2    1
     3    30    20    1
     4    19    20    2
     5    19    18    1
     6     7     2   ar
     7     7     6   ar
     8     2     3   ar
     9    20    21    1
    10    18    17    2
    11     6     5   ar
    12     3     4   ar
    13    21    23    2
    14    21    22    2
    15     5     4   ar
    16     5    11    1
    17     4     8    1
    18    17    22    2
    19    17    13    1
    20    12    11    1
    21    12    13    1
    22    11    10    2
    23    13    14    1
    24     8     9    1
    25    14    24    1
    26    10     9    1
    27     9    16    1
    28     9    15    1
    29    29    24   ar
    30    29    28   ar
    31    24    25   ar
    32    28    27   ar
    33    25    26   ar
    34    27    26   ar
