@<TRIPOS>MOLECULE
4i10_1BS_A_1.pdb
 33 37 0 0 0
SMALL
GASTEIGER

@<TRIPOS>ATOM
      1 CL1         9.8280  -11.9200    4.1360 Cl    504  1BS504     -0.0823
      2  C1        10.1030  -13.3540    5.1540 C.ar  504  1BS504      0.0574
      3  C2        11.0370  -13.1690    6.2190 C.ar  504  1BS504      0.0075
      4  C3        11.2540  -14.2180    7.0790 C.ar  504  1BS504     -0.0099
      5  C4        10.6130  -15.4220    6.8500 C.ar  504  1BS504      0.0817
      6  C5         9.6690  -15.5970    5.8120 C.ar  504  1BS504      0.0080
      7  C6         9.4220  -14.5680    4.8960 C.ar  504  1BS504      0.0116
      8  C9        12.2670  -14.1140    8.2210 C.3   504  1BS504      0.0755
      9  C10       11.7460  -14.9490    9.4060 C.3   504  1BS504      0.1792
     10  N11       11.5780  -16.3210    8.9200 N.2   504  1BS504     -0.0707
     11  C12       10.9890  -16.5600    7.7840 C.2   504  1BS504      0.3564
     12  N13       10.7720  -17.8000    7.2990 N.pl3 504  1BS504     -0.0177
     13  C14       10.9670  -19.0650    8.0430 C.3   504  1BS504      0.3155
     14  C15        9.6080  -19.5730    8.6530 C.3   504  1BS504      0.0954
     15  C27       12.6950  -14.9120   10.6240 C.3   504  1BS504      0.0536
     16  C28       10.3650  -14.3340    9.8270 C.3   504  1BS504      0.0536
     17  C7        11.3870  -20.0710    7.0820 C.1   504  1BS504      0.1737
     18  N8        11.3450  -19.7620    5.7320 N.2   504  1BS504     -0.3428
     19  C19       11.9630  -22.3430    6.6760 C.1   504  1BS504      0.2179
     20  N24       11.7140  -21.3070    7.5340 N.2   504  1BS504     -0.2665
     21  O25       12.2530  -23.4860    7.0960 O.2   504  1BS504     -0.2085
     22  C26        9.1110  -18.6070    9.7370 C.ar  504  1BS504     -0.0168
     23  C29        9.7460  -18.6310   11.0030 C.ar  504  1BS504     -0.0041
     24  C30        9.3960  -17.7750   12.0660 C.ar  504  1BS504     -0.0003
     25  C31        8.3500  -16.8600   11.8330 C.ar  504  1BS504     -0.0000
     26  C32        7.7340  -16.8750   10.5760 C.ar  504  1BS504     -0.0003
     27  C33        8.0610  -17.6980    9.4830 C.ar  504  1BS504     -0.0041
     28  C8        11.9050  -22.0510    5.2140 C.2   504  1BS504      0.1410
     29  C16       11.6150  -20.7290    4.8050 C.2   504  1BS504      0.1406
     30  C17       11.6280  -20.4240    3.4110 C.3   504  1BS504      0.1077
     31  C18       11.9320  -21.4430    2.4730 C.2   504  1BS504      0.0800
     32  N20       12.2420  -22.7030    2.9040 N.2   504  1BS504     -0.2457
     33  C21       12.2420  -23.0340    4.2490 C.2   504  1BS504      0.1134
@<TRIPOS>BOND
     1    31    32    2
     2    31    30    1
     3    32    33    1
     4    30    29    1
     5     1     2    1
     6    33    28    2
     7    29    28    1
     8    29    18    2
     9     7     2   ar
    10     7     6   ar
    11     2     3   ar
    12    28    19    1
    13    18    17    2
    14     6     5   ar
    15     3     4   ar
    16    19    21    2
    17    19    20    2
    18     5     4   ar
    19     5    11    1
    20     4     8    1
    21    17    20    2
    22    17    13    1
    23    12    11    1
    24    12    13    1
    25    11    10    2
    26    13    14    1
    27     8     9    1
    28    14    22    1
    29    10     9    1
    30     9    16    1
    31     9    15    1
    32    27    22   ar
    33    27    26   ar
    34    22    23   ar
    35    26    25   ar
    36    23    24   ar
    37    25    24   ar
