@<TRIPOS>MOLECULE
4i11_1CH_A_1.pdb
 24 26 0 0 0
SMALL
GASTEIGER

@<TRIPOS>ATOM
      1  O17       11.8020  -21.2750    8.0160 O.co2 504  1CH504     -0.2410
      2  C15       11.4320  -20.1590    7.5660 C.2   504  1CH504      0.4112
      3  O16       11.5610  -19.8490    6.3610 O.co2 504  1CH504     -0.2410
      4  C14       10.7090  -19.1670    8.4250 C.3   504  1CH504      0.3105
      5  C18        9.3610  -19.6940    8.9380 C.3   504  1CH504      0.0893
      6  C19        8.9190  -18.7200   10.0370 C.ar  504  1CH504     -0.0174
      7  C24        7.8710  -17.8000    9.8080 C.ar  504  1CH504     -0.0041
      8  C23        7.4970  -16.8750   10.8160 C.ar  504  1CH504     -0.0003
      9  C22        8.1500  -16.8960   12.0530 C.ar  504  1CH504     -0.0000
     10  C21        9.2030  -17.8160   12.2810 C.ar  504  1CH504     -0.0003
     11  C20        9.5750  -18.7170   11.2720 C.ar  504  1CH504     -0.0041
     12  N13       10.4870  -17.9640    7.6280 N.pl3 504  1CH504     -0.0237
     13  C10       10.8020  -16.7090    8.0040 C.2   504  1CH504      0.3558
     14  N9        11.3770  -16.4300    9.1270 N.2   504  1CH504     -0.0708
     15  C8        11.6190  -15.0480    9.5440 C.3   504  1CH504      0.1792
     16  C12       10.3000  -14.3980   10.0430 C.3   504  1CH504      0.0536
     17  C11       12.6380  -14.9880   10.6630 C.3   504  1CH504      0.0536
     18  C7        12.1300  -14.1820    8.3740 C.3   504  1CH504      0.0755
     19  C2        11.1250  -14.2810    7.2370 C.ar  504  1CH504     -0.0107
     20  C3        10.4430  -15.5840    7.0550 C.ar  504  1CH504      0.0817
     21  C4         9.5170  -15.7250    6.0010 C.ar  504  1CH504      0.0072
     22  C5         9.2580  -14.6340    5.1430 C.ar  504  1CH504      0.0002
     23  C6         9.9070  -13.4040    5.3200 C.ar  504  1CH504     -0.0003
     24  C1        10.8420  -13.2200    6.3690 C.ar  504  1CH504     -0.0039
@<TRIPOS>BOND
     1    22    23   ar
     2    22    21   ar
     3    23    24   ar
     4    21    20   ar
     5     3     2   ar
     6    24    19   ar
     7    20    19   ar
     8    20    13    1
     9    19    18    1
    10     2     1   ar
    11     2     4    1
    12    12    13    1
    13    12     4    1
    14    13    14    2
    15    18    15    1
    16     4     5    1
    17     5     6    1
    18    14    15    1
    19    15    16    1
    20    15    17    1
    21     7     6   ar
    22     7     8   ar
    23     6    11   ar
    24     8     9   ar
    25    11    10   ar
    26     9    10   ar
