@<TRIPOS>MOLECULE
4i12_1BC_A_1.pdb
 36 40 0 0 0
SMALL
GASTEIGER

@<TRIPOS>ATOM
      1 CL1         9.9810  -11.2150    4.3850 Cl    501  1BC501     -0.0823
      2  C1        10.2980  -12.6850    5.3870 C.ar  501  1BC501      0.0574
      3  C6         9.6420  -13.9080    5.1110 C.ar  501  1BC501      0.0116
      4  C5         9.8880  -15.0330    5.9210 C.ar  501  1BC501      0.0080
      5  C4        10.7580  -14.8680    6.9950 C.ar  501  1BC501      0.0817
      6  C12       11.0070  -16.0470    7.8810 C.2   501  1BC501      0.3564
      7  N11       11.5550  -15.8350    8.9990 N.2   501  1BC501     -0.0707
      8  C10       11.5380  -14.4460    9.3660 C.3   501  1BC501      0.1792
      9  C28       12.6600  -14.5370   10.4690 C.3   501  1BC501      0.0536
     10  C27       10.5110  -13.8740   10.3470 C.3   501  1BC501      0.0536
     11  C9        12.2820  -13.5050    8.4920 C.3   501  1BC501      0.0755
     12  C3        11.4090  -13.6440    7.2660 C.ar  501  1BC501     -0.0099
     13  C2        11.1660  -12.5230    6.4850 C.ar  501  1BC501      0.0075
     14  N13       10.7190  -17.2650    7.4280 N.pl3 501  1BC501     -0.0188
     15  C14       10.7420  -18.4690    8.1950 C.3   501  1BC501      0.3041
     16  C15        9.2860  -18.8990    8.4760 C.3   501  1BC501      0.0945
     17  C11        8.7080  -17.9920    9.5580 C.ar  501  1BC501     -0.0145
     18  C13        7.7700  -16.8010    9.4450 C.ar  501  1BC501      0.0024
     19  C16        7.3830  -16.0800   10.5430 C.ar  501  1BC501      0.0346
     20  S17        8.1410  -16.8760   11.8430 S.2   501  1BC501     -0.0911
     21  C18        9.0280  -18.1320   10.9810 C.ar  501  1BC501      0.0035
     22  C19        9.8940  -19.1720   11.6710 C.3   501  1BC501      0.0326
     23  C20       10.0040  -19.1470   13.1910 C.3   501  1BC501      0.0052
     24  C21       10.6750  -20.4550   13.6360 C.3   501  1BC501      0.0004
     25  C23        7.2890  -16.3070    8.1490 C.2   501  1BC501      0.0251
     26  C24        7.0330  -14.9680    7.8930 C.3   501  1BC501      0.1771
     27  N25        6.6640  -14.9400    6.5680 N.2   501  1BC501     -0.1695
     28  N26        6.7280  -16.2800    6.0800 N.2   501  1BC501     -0.1510
     29  C29        7.1060  -17.1290    7.0600 C.2   501  1BC501      0.1194
     30  C30       11.3810  -19.5060    7.2930 C.1   501  1BC501      0.1245
     31  N31       11.3200  -20.8030    7.6050 N.2   501  1BC501     -0.2782
     32  C32       11.8500  -21.7740    6.7930 C.1   501  1BC501      0.2155
     33  C33       12.4210  -21.4130    5.5590 C.2   501  1BC501      0.1287
     34  C34       12.4600  -20.0450    5.2410 C.2   501  1BC501      0.1238
     35  N35       11.9160  -19.1420    6.1140 N.2   501  1BC501     -0.1811
     36  O36       11.7880  -22.9690    7.1580 O.2   501  1BC501     -0.2086
@<TRIPOS>BOND
     1     1     2    1
     2     3     2   ar
     3     3     4   ar
     4    34    33    2
     5    34    35    1
     6     2    13   ar
     7    33    32    1
     8     4     5   ar
     9    28    27    2
    10    28    29    1
    11    35    30    2
    12    13    12   ar
    13    27    26    1
    14    32    36    2
    15    32    31    2
    16     5    12   ar
    17     5     6    1
    18    29    25    2
    19    12    11    1
    20    30    31    2
    21    30    15    1
    22    14     6    1
    23    14    15    1
    24     6     7    2
    25    26    25    1
    26    25    18    1
    27    15    16    1
    28    16    17    1
    29    11     8    1
    30     7     8    1
    31     8    10    1
    32     8     9    1
    33    18    17   ar
    34    18    19   ar
    35    17    21   ar
    36    19    20   ar
    37    21    22    1
    38    21    20   ar
    39    22    23    1
    40    23    24    1
