@<TRIPOS>MOLECULE
4i1c_1BE_A_1.pdb
 32 35 0 0 0
SMALL
GASTEIGER

@<TRIPOS>ATOM
      1 CL1         9.8200  -11.2420    4.3270 Cl    504  1BE504     -0.0823
      2  C1        10.1090  -12.7120    5.2590 C.ar  504  1BE504      0.0574
      3  C6         9.4430  -13.9080    4.9480 C.ar  504  1BE504      0.0116
      4  C5         9.7060  -15.0280    5.7700 C.ar  504  1BE504      0.0080
      5  C4        10.5780  -14.9050    6.8570 C.ar  504  1BE504      0.0817
      6  C12       10.8830  -16.0650    7.7680 C.2   504  1BE504      0.3558
      7  N11       11.3660  -15.8300    8.9300 N.2   504  1BE504     -0.0708
      8  C10       11.6200  -14.5080    9.4450 C.3   504  1BE504      0.1792
      9  C28       12.7100  -14.5800   10.5360 C.3   504  1BE504      0.0536
     10  C27       10.3130  -13.9170   10.0460 C.3   504  1BE504      0.0536
     11  C9        12.1100  -13.5980    8.3250 C.3   504  1BE504      0.0755
     12  C3        11.1970  -13.6880    7.1480 C.ar  504  1BE504     -0.0099
     13  C2        10.9790  -12.5760    6.3580 C.ar  504  1BE504      0.0075
     14  N13       10.6010  -17.2930    7.3600 N.pl3 504  1BE504     -0.0237
     15  C14       10.5220  -18.5440    8.1600 C.3   504  1BE504      0.3105
     16  C15        9.0690  -19.0050    8.3950 C.3   504  1BE504      0.0895
     17  C7        11.1850  -19.6560    7.3920 C.2   504  1BE504      0.4112
     18  O8        11.2640  -20.8200    7.8450 O.co2 504  1BE504     -0.2410
     19  O9        11.5920  -19.3290    6.2630 O.co2 504  1BE504     -0.2410
     20  C11        8.5330  -18.0350    9.4230 C.ar  504  1BE504     -0.0151
     21  C13        7.6860  -16.8050    9.2610 C.ar  504  1BE504      0.0023
     22  C16        7.3120  -16.0770   10.3660 C.ar  504  1BE504      0.0346
     23  S17        8.0380  -16.8850   11.6980 S.2   504  1BE504     -0.0911
     24  C18        8.8150  -18.2080   10.8600 C.ar  504  1BE504      0.0035
     25  C19        9.6620  -19.2920   11.5260 C.3   504  1BE504      0.0326
     26  C20        9.8760  -19.1650   13.0140 C.3   504  1BE504      0.0052
     27  C21       10.4760  -20.4440   13.5950 C.3   504  1BE504      0.0004
     28  C23        7.1970  -16.2870    7.9560 C.2   504  1BE504      0.0251
     29  C24        7.0030  -17.0570    6.8560 C.2   504  1BE504      0.1194
     30  N25        6.6360  -16.1810    5.9090 N.2   504  1BE504     -0.1510
     31  N26        6.6340  -14.8870    6.4350 N.2   504  1BE504     -0.1695
     32  C29        7.0080  -14.9510    7.7310 C.3   504  1BE504      0.1771
@<TRIPOS>BOND
     1     1     2    1
     2     3     2   ar
     3     3     4   ar
     4     2    13   ar
     5     4     5   ar
     6    30    31    2
     7    30    29    1
     8    19    17   ar
     9    13    12   ar
    10    31    32    1
    11    29    28    2
    12     5    12   ar
    13     5     6    1
    14    12    11    1
    15    14     6    1
    16    14    15    1
    17    17    18   ar
    18    17    15    1
    19    32    28    1
    20     6     7    2
    21    28    21    1
    22    15    16    1
    23    11     8    1
    24    16    20    1
    25     7     8    1
    26    21    20   ar
    27    21    22   ar
    28    20    24   ar
    29     8    10    1
    30     8     9    1
    31    22    23   ar
    32    24    25    1
    33    24    23   ar
    34    25    26    1
    35    26    27    1
