@<TRIPOS>MOLECULE
4i1i_NAD_A_1.pdb
 44 48 0 0 0
SMALL
GASTEIGER

@<TRIPOS>ATOM
      1  PA        -9.6610   31.7280   70.1290 P.3   400  NAD400      0.2189
      2  O1A       -9.9710   33.1130   69.5590 O.2   400  NAD400     -0.5170
      3  O2A      -10.2240   31.3360   71.4810 O.3   400  NAD400     -0.4371
      4  O5B       -8.0920   31.5300   70.2100 O.3   400  NAD400     -0.3112
      5  C5B       -7.2440   31.9780   69.1600 C.3   400  NAD400      0.1813
      6  C4B       -6.0120   32.5140   69.8600 C.3   400  NAD400      0.1821
      7  O4B       -5.0480   32.7720   68.8230 O.3   400  NAD400     -0.3135
      8  C3B       -6.1970   33.8300   70.6170 C.3   400  NAD400      0.2184
      9  O3B       -5.8140   33.6460   71.9970 O.3   400  NAD400     -0.2174
     10  C2B       -5.2990   34.7770   69.8600 C.3   400  NAD400      0.2570
     11  O2B       -4.7380   35.8380   70.6460 O.3   400  NAD400     -0.2130
     12  C1B       -4.2540   33.8380   69.2630 C.3   400  NAD400      0.3186
     13  N9A       -3.4270   34.4330   68.2400 N.pl3 400  NAD400     -0.1439
     14  C8A       -3.6890   35.4860   67.4020 C.3   400  NAD400      0.3377
     15  N7A       -2.5850   35.7780   66.6740 N.2   400  NAD400     -0.2095
     16  C5A       -1.6070   34.9600   67.0940 C.2   400  NAD400      0.2526
     17  C6A       -0.1960   34.7670   66.7720 C.2   400  NAD400      0.4393
     18  N6A        0.3810   35.6420   65.8840 N.pl3 400  NAD400      0.2180
     19  N1A        0.4900   33.7850   67.4160 N.2   400  NAD400      0.0021
     20  C2A       -0.1170   32.9650   68.3000 C.3   400  NAD400      0.5254
     21  N3A       -1.3980   33.1150   68.7070 N.2   400  NAD400     -0.0055
     22  C4A       -2.1530   34.0690   68.1040 C.2   400  NAD400      0.3518
     23  O3       -10.1080   30.6690   68.9990 O.3   400  NAD400     -0.2703
     24  PN       -10.3680   29.0950   69.1360 P.3   400  NAD400      0.2189
     25  O1N      -11.8530   28.8690   69.2930 O.2   400  NAD400     -0.5170
     26  O2N       -9.4040   28.5350   70.1020 O.3   400  NAD400     -0.4371
     27  O5D      -10.0200   28.6720   67.6470 O.3   400  NAD400     -0.3112
     28  C5D       -8.6450   28.8040   67.1430 C.3   400  NAD400      0.1813
     29  C4D       -8.6100   28.7180   65.6360 C.3   400  NAD400      0.1799
     30  O4D       -8.9680   27.3850   65.2000 O.3   400  NAD400     -0.3327
     31  C3D       -9.5920   29.6110   64.9410 C.3   400  NAD400      0.2158
     32  O3D       -9.0330   30.1170   63.7010 O.3   400  NAD400     -0.2175
     33  C2D      -10.7930   28.7240   64.6540 C.3   400  NAD400      0.2309
     34  O2D      -11.6380   29.1170   63.5740 O.3   400  NAD400     -0.2158
     35  C1D      -10.0450   27.4680   64.2540 C.3   400  NAD400      0.2263
     36  N1N      -10.7500   26.2070   64.3000 N.pl3 400  NAD400     -0.2787
     37  C2N      -10.3600   25.2360   63.4200 C.3   400  NAD400      0.1244
     38  C3N      -10.9530   23.9990   63.4710 C.2   400  NAD400      0.0544
     39  C7N      -10.5090   22.9590   62.4910 C.2   400  NAD400      0.2818
     40  O7N       -9.4320   23.0280   61.7750 O.2   400  NAD400     -0.2670
     41  N7N      -11.2800   21.9120   62.5020 N.am  400  NAD400     -0.0839
     42  C4N      -11.9480   23.7420   64.4380 C.2   400  NAD400      0.0033
     43  C5N      -12.2590   24.6880   65.3290 C.2   400  NAD400      0.0157
     44  C6N      -11.6750   25.9740   65.2640 C.2   400  NAD400      0.0633
@<TRIPOS>BOND
     1    40    39    2
     2    39    41   am
     3    39    38    1
     4    37    38    1
     5    37    36    1
     6    38    42    2
     7    34    33    1
     8    32    31    1
     9    35    36    1
    10    35    33    1
    11    35    30    1
    12    36    44    1
    13    42    43    1
    14    33    31    1
    15    31    29    1
    16    30    29    1
    17    44    43    2
    18    29    28    1
    19    18    17    1
    20    15    16    2
    21    15    14    1
    22    17    16    1
    23    17    19    2
    24    16    22    1
    25    28    27    1
    26    14    13    1
    27    19    20    1
    28    27    24    1
    29    22    13    1
    30    22    21    2
    31    13    12    1
    32    20    21    1
    33     7    12    1
    34     7     6    1
    35    23    24    1
    36    23     1    1
    37    24    25    2
    38    24    26    1
    39     5     6    1
    40     5     4    1
    41    12    10    1
    42     2     1    2
    43    10     8    1
    44    10    11    1
    45     6     8    1
    46     1     4    1
    47     1     3    1
    48     8     9    1
