@<TRIPOS>MOLECULE
4i1o_GDP_A_1.pdb
 28 30 0 0 0
SMALL
GASTEIGER

@<TRIPOS>ATOM
      1  PB        34.5480  -40.2480   -1.6100 P.3   202  GDP202      0.5373
      2  O1B       34.2710  -40.4350   -3.0410 O.2   202  GDP202     -0.2221
      3  O2B       35.0390  -41.5580   -1.0770 O.3   202  GDP202     -0.1143
      4  O3B       33.3510  -39.7180   -0.8610 O.3   202  GDP202     -0.1143
      5  O3A       35.7280  -39.1890   -1.5070 O.3   202  GDP202     -0.2261
      6  PA        35.6060  -37.7940   -0.7380 P.3   202  GDP202      0.2231
      7  O1A       34.4420  -37.0100   -1.1890 O.2   202  GDP202     -0.5169
      8  O2A       35.5630  -37.9650    0.7290 O.3   202  GDP202     -0.4370
      9  O5'       36.9520  -37.0470   -1.0830 O.3   202  GDP202     -0.3111
     10  C5'       38.1360  -37.7010   -0.6800 C.3   202  GDP202      0.1813
     11  C4'       39.3190  -36.7610   -0.5770 C.3   202  GDP202      0.1799
     12  O4'       39.7690  -36.3420   -1.8530 O.3   202  GDP202     -0.3326
     13  C3'       38.9540  -35.4940    0.1510 C.3   202  GDP202      0.2158
     14  O3'       39.1200  -35.6680    1.5540 O.3   202  GDP202     -0.2175
     15  C2'       39.9190  -34.4800   -0.4020 C.3   202  GDP202      0.2310
     16  O2'       41.1010  -34.4880    0.3860 O.3   202  GDP202     -0.2158
     17  C1'       40.2370  -34.9980   -1.7840 C.3   202  GDP202      0.2293
     18  N9        39.4760  -34.2140   -2.7810 N.pl3 202  GDP202     -0.2354
     19  C8        38.2000  -34.4150   -3.1210 C.3   202  GDP202      0.2246
     20  N7        37.7870  -33.5450   -4.0590 N.2   202  GDP202     -0.2322
     21  C5        38.8250  -32.7570   -4.3490 C.2   202  GDP202      0.2182
     22  C6        39.0790  -31.6260   -5.2630 C.1   202  GDP202      0.2372
     23  O6        38.1970  -31.1840   -6.0100 O.2   202  GDP202     -0.2069
     24  N1        40.2830  -31.0860   -5.2630 N.2   202  GDP202     -0.2485
     25  C2        41.2420  -31.5430   -4.4670 C.1   202  GDP202      0.2531
     26  N2        42.4380  -30.9470   -4.5230 N.pl3 202  GDP202     -0.0226
     27  N3        41.0910  -32.5680   -3.6170 N.2   202  GDP202     -0.3074
     28  C4        39.9260  -33.2070   -3.5050 C.2   202  GDP202      0.2300
@<TRIPOS>BOND
     1    23    22    2
     2    24    22    2
     3    24    25    2
     4    22    21    1
     5    26    25    1
     6    25    27    2
     7    21    20    2
     8    21    28    1
     9    20    19    1
    10    27    28    2
    11    28    18    1
    12    19    18    1
    13     2     1    2
    14    18    17    1
    15    12    17    1
    16    12    11    1
    17    17    15    1
    18     1     5    1
    19     1     3    1
    20     1     4    1
    21     5     6    1
    22     7     6    2
    23     9     6    1
    24     9    10    1
    25     6     8    1
    26    10    11    1
    27    11    13    1
    28    15    13    1
    29    15    16    1
    30    13    14    1
