@<TRIPOS>MOLECULE
4i1v_ADP_A_1.pdb
 27 29 0 0 0
SMALL
GASTEIGER

@<TRIPOS>ATOM
      1  PB        67.5820   25.8090  -21.0810 P.3   301  ADP301      0.5373
      2  O1B       66.5820   26.7270  -20.4070 O.3   301  ADP301     -0.1143
      3  O2B       68.3120   24.9120  -20.1300 O.3   301  ADP301     -0.1143
      4  O3B       68.4760   26.4350  -22.1190 O.2   301  ADP301     -0.2221
      5  PA        65.4200   25.3680  -22.8820 P.3   301  ADP301      0.2231
      6  O1A       64.2110   24.5530  -22.4810 O.3   301  ADP301     -0.4370
      7  O2A       65.2870   26.8610  -22.8780 O.2   301  ADP301     -0.5169
      8  O3A       66.7140   24.8670  -22.0530 O.3   301  ADP301     -0.2261
      9  O5'       66.1000   25.1870  -24.3210 O.3   301  ADP301     -0.3111
     10  C5'       66.3160   24.1000  -25.1750 C.3   301  ADP301      0.1813
     11  C4'       66.0170   24.6010  -26.5730 C.3   301  ADP301      0.1821
     12  O4'       65.5900   23.4790  -27.3550 O.3   301  ADP301     -0.3135
     13  C3'       64.8200   25.5200  -26.6020 C.3   301  ADP301      0.2184
     14  O3'       64.8010   26.2530  -27.8140 O.3   301  ADP301     -0.2174
     15  C2'       63.6200   24.6010  -26.6400 C.3   301  ADP301      0.2570
     16  O2'       62.5470   25.2020  -27.3560 O.3   301  ADP301     -0.2130
     17  C1'       64.1510   23.4010  -27.4000 C.3   301  ADP301      0.3186
     18  N9        63.7760   22.1260  -26.7780 N.pl3 301  ADP301     -0.1439
     19  C8        63.8110   21.7950  -25.4610 C.3   301  ADP301      0.3377
     20  N7        63.4330   20.5220  -25.2720 N.2   301  ADP301     -0.2095
     21  C5        63.1470   20.0370  -26.4750 C.2   301  ADP301      0.2526
     22  C6        62.6800   18.7510  -26.9860 C.2   301  ADP301      0.4393
     23  N6        62.4400   17.7330  -26.1350 N.pl3 301  ADP301      0.2180
     24  N1        62.5180   18.6530  -28.3310 N.2   301  ADP301      0.0021
     25  C2        62.7530   19.6840  -29.1910 C.3   301  ADP301      0.5254
     26  N3        63.1620   20.8830  -28.7750 N.2   301  ADP301     -0.0055
     27  C4        63.3780   21.0930  -27.4670 C.2   301  ADP301      0.3518
@<TRIPOS>BOND
     1    25    26    1
     2    25    24    1
     3    26    27    2
     4    24    22    2
     5    14    13    1
     6    27    18    1
     7    27    21    1
     8    17    12    1
     9    17    18    1
    10    17    15    1
    11    16    15    1
    12    12    11    1
    13    22    21    1
    14    22    23    1
    15    18    19    1
    16    15    13    1
    17    13    11    1
    18    11    10    1
    19    21    20    2
    20    19    20    1
    21    10     9    1
    22     9     5    1
    23     5     7    2
    24     5     6    1
    25     5     8    1
    26     4     1    2
    27     8     1    1
    28     1     2    1
    29     1     3    1
