@<TRIPOS>MOLECULE
4i22_IRE_A_1.pdb
 31 34 0 0 0
SMALL
GASTEIGER

@<TRIPOS>ATOM
      1  CAO       14.9140  -20.5570    9.2090 C.3   9001  IRE9001     0.1046
      2  CAL       15.6980  -21.8390    9.5040 C.3   9001  IRE9001     0.1595
      3  OAU       17.0040  -21.5310   10.0240 O.3   9001  IRE9001    -0.3508
      4  CAM       16.9590  -20.7910   11.2550 C.3   9001  IRE9001     0.1595
      5  CAP       16.2600  -19.4500   11.0360 C.3   9001  IRE9001     0.1046
      6  NBE       14.8640  -19.7180   10.4890 N.3   9001  IRE9001    -0.2683
      7  CAN       14.0840  -18.4530   10.2470 C.3   9001  IRE9001     0.0761
      8  CAJ       12.8560  -18.5790   11.1200 C.3   9001  IRE9001     0.0646
      9  CAK       11.8800  -17.4270   11.0590 C.3   9001  IRE9001     0.2070
     10  OAV       11.2960  -17.3300    9.7500 O.2   9001  IRE9001    -0.4727
     11  CBA       10.3290  -16.3490    9.5610 C.2   9001  IRE9001     0.1687
     12  CAZ        9.7500  -16.2600    8.2480 C.2   9001  IRE9001     0.1558
     13  CAH        8.7370  -15.2780    7.9990 C.3   9001  IRE9001     0.1127
     14  OAT       10.2370  -17.1660    7.3220 O.2   9001  IRE9001    -0.4723
     15  CAA        9.7210  -17.1700    5.9910 C.3   9001  IRE9001     0.2521
     16  CAI        9.8780  -15.4610   10.5740 C.2   9001  IRE9001     0.0484
     17  C5         8.8720  -14.4940   10.3180 C.2   9001  IRE9001     0.1027
     18  C4         8.2930  -14.4030    9.0020 C.2   9001  IRE9001     0.0732
     19  N3         7.3290  -13.5060    8.6960 N.2   9001  IRE9001    -0.2223
     20  C2         6.9220  -12.6860    9.6830 C.3   9001  IRE9001     0.3917
     21  N1         7.3860  -12.6750   10.9510 N.2   9001  IRE9001    -0.0327
     22  C6         8.3690  -13.5820   11.2800 C.2   9001  IRE9001     0.3643
     23  NAS        8.8790  -13.6020   12.6130 N.pl3 9001  IRE9001    -0.0060
     24  CAY        8.1970  -13.1210   13.7500 C.ar  9001  IRE9001     0.1844
     25  CAG        6.7720  -13.2550   13.8770 C.ar  9001  IRE9001     0.0581
     26  CAX        6.0990  -12.7630   15.0080 C.ar  9001  IRE9001     0.0886
     27 CL          4.3950  -12.9460   15.0980 Cl    9001  IRE9001    -0.0798
     28  CAW        6.8350  -12.1280   16.0380 C.ar  9001  IRE9001     0.1508
     29  FAB        6.2170  -11.6510   17.1200 F     9001  IRE9001    -0.2033
     30  CAD        8.2420  -11.9850   15.9410 C.ar  9001  IRE9001     0.0342
     31  CAE        8.9210  -12.4810   14.7970 C.ar  9001  IRE9001     0.0468
@<TRIPOS>BOND
     1    15    14    1
     2    14    12    1
     3    13    12    1
     4    13    18    1
     5    12    11    2
     6    19    18    2
     7    19    20    1
     8    18    17    1
     9     1     2    1
    10     1     6    1
    11     2     3    1
    12    11    10    1
    13    11    16    1
    14    20    21    1
    15    10     9    1
    16     3     4    1
    17     7     6    1
    18     7     8    1
    19    17    16    2
    20    17    22    1
    21     6     5    1
    22    21    22    2
    23     5     4    1
    24     9     8    1
    25    22    23    1
    26    23    24    1
    27    24    25   ar
    28    24    31   ar
    29    25    26   ar
    30    31    30   ar
    31    26    27    1
    32    26    28   ar
    33    30    28   ar
    34    28    29    1
