@<TRIPOS>MOLECULE
4i23_1C9_A_1.pdb
 22 24 0 0 0
SMALL
GASTEIGER

@<TRIPOS>ATOM
      1  C1         0.5940  -51.5030  -19.8330 C.2   9001  1C99001     0.1196
      2  C2        -0.2120  -52.2810  -18.9380 C.2   9001  1C99001     0.1562
      3  C3        -0.9980  -53.3680  -19.4470 C.2   9001  1C99001     0.0536
      4  C4        -1.0140  -53.7100  -20.8060 C.2   9001  1C99001     0.0768
      5  C5        -0.2110  -52.9370  -21.7260 C.3   9001  1C99001     0.1725
      6  C6         0.5850  -51.8380  -21.2170 C.2   9001  1C99001     0.0128
      7  N7        -1.7890  -54.7580  -21.1950 N.2   9001  1C99001    -0.2220
      8  C8        -1.7860  -55.0750  -22.5150 C.3   9001  1C99001     0.3913
      9  N9        -1.0840  -54.4380  -23.4820 N.2   9001  1C99001    -0.0363
     10  C10       -0.2890  -53.3630  -23.0990 C.2   9001  1C99001     0.3482
     11  N14        0.4700  -52.6610  -24.1020 N.pl3 9001  1C99001    -0.0094
     12  C15        0.2810  -52.7270  -25.5110 C.ar  9001  1C99001     0.1841
     13  C16       -1.0270  -52.6770  -26.0950 C.ar  9001  1C99001     0.0580
     14  C17       -1.2080  -52.7500  -27.4950 C.ar  9001  1C99001     0.0886
     15  C18       -0.0730  -52.8780  -28.3390 C.ar  9001  1C99001     0.1508
     16  C19        1.2400  -52.9280  -27.7900 C.ar  9001  1C99001     0.0342
     17  C20        1.4170  -52.8550  -26.3800 C.ar  9001  1C99001     0.0468
     18  F21       -0.2270  -52.9520  -29.6720 F     9001  1C99001    -0.2033
     19 CL         -2.8120  -52.6890  -28.1430 Cl    9001  1C99001    -0.0798
     20  O11       -0.1540  -51.9000  -17.6000 O.2   9001  1C99001    -0.4700
     21  C12       -1.3240  -52.0840  -16.7950 C.3   9001  1C99001     0.2525
     22  N13        1.3850  -50.4250  -19.3700 N.pl3 9001  1C99001    -0.1252
@<TRIPOS>BOND
     1    18    15    1
     2    15    16   ar
     3    15    14   ar
     4    19    14    1
     5    16    17   ar
     6    14    13   ar
     7    17    12   ar
     8    13    12   ar
     9    12    11    1
    10    11    10    1
    11     9    10    2
    12     9     8    1
    13    10     5    1
    14     8     7    1
    15     5     6    1
    16     5     4    1
    17     6     1    2
    18     7     4    2
    19     4     3    1
    20     1    22    1
    21     1     2    1
    22     3     2    2
    23     2    20    1
    24    20    21    1
