@<TRIPOS>MOLECULE
4i24_1C9_A_1.pdb
 28 30 0 0 0
SMALL
GASTEIGER

@<TRIPOS>ATOM
      1  C1       -14.3000   40.6570   -4.7670 C.2   9001  1C99001     0.1036
      2  C2       -14.5390   41.2800   -6.0390 C.2   9001  1C99001     0.1373
      3  C3       -13.7220   42.3890   -6.4290 C.3   9001  1C99001     0.1109
      4  C4       -12.6950   42.8880   -5.6020 C.2   9001  1C99001     0.0731
      5  C5       -12.4660   42.2710   -4.3180 C.2   9001  1C99001     0.1010
      6  C6       -13.2740   41.1620   -3.9220 C.2   9001  1C99001     0.0280
      7  N7       -11.9610   43.9360   -6.0510 N.2   9001  1C99001    -0.2224
      8  C8       -10.9880   44.3930   -5.2360 C.3   9001  1C99001     0.3917
      9  N9       -10.6830   43.9080   -4.0130 N.2   9001  1C99001    -0.0327
     10  C10      -11.4200   42.8420   -3.5400 C.2   9001  1C99001     0.3642
     11  N14      -11.1260   42.3070   -2.2460 N.pl3 9001  1C99001    -0.0060
     12  C15      -10.5220   42.9920   -1.1610 C.ar  9001  1C99001     0.1844
     13  C16      -10.6580   44.4080   -0.9920 C.ar  9001  1C99001     0.0581
     14  C17      -10.0490   45.0740    0.0820 C.ar  9001  1C99001     0.0886
     15  C18       -9.2840   44.3440    1.0230 C.ar  9001  1C99001     0.1508
     16  C19       -9.1300   42.9410    0.8860 C.ar  9001  1C99001     0.0342
     17  C20       -9.7490   42.2680   -0.2040 C.ar  9001  1C99001     0.0468
     18  F21       -8.6910   44.9620    2.0550 F     9001  1C99001    -0.2033
     19 CL        -10.2540   46.7790    0.2130 Cl    9001  1C99001    -0.0798
     20  O11      -15.5720   40.7230   -6.7870 O.2   9001  1C99001    -0.4740
     21  C12      -15.9060   41.2710   -8.0650 C.3   9001  1C99001     0.2520
     22  N13      -15.1010   39.5340   -4.4170 N.am  9001  1C99001    -0.1765
     23  C26      -14.5300   38.3100   -4.0280 C.2   9001  1C99001     0.2457
     24  C24      -15.5840   37.2520   -3.7460 C.3   9001  1C99001     0.0887
     25  C23      -14.9620   35.9000   -3.3560 C.3   9001  1C99001     0.0301
     26  C25      -16.0660   34.9670   -2.8450 C.3   9001  1C99001     0.1098
     27  N33      -15.4760   33.7800   -2.1240 N.3   9001  1C99001    -0.1314
     28  O27      -13.3250   38.0690   -3.9420 O.2   9001  1C99001    -0.2730
@<TRIPOS>BOND
     1    21    20    1
     2    20     2    1
     3     3     2    1
     4     3     4    1
     5     7     4    2
     6     7     8    1
     7     2     1    2
     8     4     5    1
     9     8     9    1
    10     1    22    1
    11     1     6    1
    12    22    23   am
    13     5     6    2
    14     5    10    1
    15    23    28    2
    16    23    24    1
    17     9    10    2
    18    24    25    1
    19    10    11    1
    20    25    26    1
    21    26    27    1
    22    11    12    1
    23    12    13   ar
    24    12    17   ar
    25    13    14   ar
    26    17    16   ar
    27    14    19    1
    28    14    15   ar
    29    16    15   ar
    30    15    18    1
