@<TRIPOS>MOLECULE
4i2p_G73_A_1.pdb
 31 34 0 0 0
SMALL
GASTEIGER

@<TRIPOS>ATOM
      1  C01       48.8660  -33.0840   35.8450 C.3   601  G73601      0.2525
      2  O02       48.5440  -31.7730   36.1050 O.3   601  G73601     -0.4714
      3  C03       49.2920  -30.7410   35.5940 C.ar  601  G73601      0.1388
      4  C04       49.5180  -29.5960   36.3390 C.ar  601  G73601      0.0382
      5  C05       50.2670  -28.5560   35.8050 C.ar  601  G73601      0.0197
      6  C06       49.8170  -30.8390   34.3170 C.ar  601  G73601      0.0382
      7  C07       50.5690  -29.7980   33.7880 C.ar  601  G73601      0.0197
      8  C08       50.8010  -28.6450   34.5320 C.ar  601  G73601      0.0734
      9  N09       51.5890  -27.5900   33.9430 N.pl3 601  G73601     -0.1809
     10  C10       52.0450  -26.3630   34.5410 C.2   601  G73601      0.2451
     11  N11       51.7280  -26.0400   35.8140 N.2   601  G73601     -0.3067
     12  C12       52.1420  -24.9000   36.3900 C.1   601  G73601      0.2349
     13  N13       51.7460  -24.6590   37.7570 N.pl3 601  G73601     -0.1255
     14  C14       50.7720  -25.5310   38.3360 C.ar  601  G73601      0.0755
     15  C15       49.4460  -25.1280   38.3750 C.ar  601  G73601     -0.0064
     16  C16       49.0430  -23.8010   37.8200 C.3   601  G73601      0.0324
     17  C17       48.4800  -25.9630   38.9310 C.ar  601  G73601     -0.0072
     18  C18       48.8310  -27.1990   39.4540 C.ar  601  G73601     -0.0216
     19  C19       47.7880  -28.0990   40.0310 C.3   601  G73601      0.0425
     20  C20       47.2900  -27.6630   41.2380 C.3   601  G73601      0.1101
     21  C21       46.2580  -28.5620   41.8160 C.1   601  G73601      0.0735
     22  N22       45.4580  -29.2460   42.2540 N.1   601  G73601     -0.1959
     23  C23       50.1570  -27.6000   39.4100 C.ar  601  G73601     -0.0072
     24  C24       51.1350  -26.7740   38.8580 C.ar  601  G73601     -0.0064
     25  C25       52.5530  -27.2610   38.8440 C.3   601  G73601      0.0324
     26  N26       52.8960  -24.0230   35.7000 N.2   601  G73601     -0.2703
     27  C27       53.2630  -24.2770   34.3820 C.1   601  G73601      0.1202
     28  C28       52.8390  -25.4490   33.7830 C.2   601  G73601      0.1992
     29  N29       53.3350  -25.4540   32.4940 N.2   601  G73601     -0.2289
     30  C30       54.0420  -24.3180   32.2980 C.3   601  G73601      0.2627
     31  N31       54.0080  -23.5900   33.4360 N.2   601  G73601     -0.1807
@<TRIPOS>BOND
     1    30    29    1
     2    30    31    1
     3    29    28    2
     4    31    27    2
     5    28    27    1
     6    28    10    1
     7     7     6   ar
     8     7     8   ar
     9     9     8    1
    10     9    10    1
    11     6     3   ar
    12    27    26    2
    13     8     5   ar
    14    10    11    2
    15     3     2    1
    16     3     4   ar
    17    26    12    2
    18     5     4   ar
    19    11    12    2
    20     1     2    1
    21    12    13    1
    22    13    14    1
    23    16    15    1
    24    14    15   ar
    25    14    24   ar
    26    15    17   ar
    27    25    24    1
    28    24    23   ar
    29    17    18   ar
    30    23    18   ar
    31    18    19    1
    32    19    20    1
    33    20    21    1
    34    21    22    3
