@<TRIPOS>MOLECULE
4i2q_1BT_A_1.pdb
 32 36 0 0 0
SMALL
GASTEIGER

@<TRIPOS>ATOM
      1  N01       45.7360  -29.9600   42.2820 N.1   601  1BT601     -0.1908
      2  C02       46.2950  -29.1920   41.6620 C.1   601  1BT601      0.1011
      3  C03       47.0310  -28.1450   40.9090 C.2   601  1BT601      0.0780
      4  C04       47.9690  -28.5870   40.0340 C.2   601  1BT601      0.0109
      5  C05       48.8990  -27.6630   39.3320 C.ar  601  1BT601      0.0001
      6  C06       48.3990  -26.4790   38.8310 C.ar  601  1BT601     -0.0029
      7  C07       49.2460  -25.6160   38.1730 C.ar  601  1BT601     -0.0061
      8  C08       48.6810  -24.3370   37.6310 C.3   601  1BT601      0.0324
      9  C09       50.2360  -27.9930   39.1880 C.ar  601  1BT601     -0.0029
     10  C10       51.1020  -27.1360   38.5390 C.ar  601  1BT601     -0.0061
     11  C11       52.5410  -27.5530   38.4240 C.3   601  1BT601      0.0324
     12  C12       50.5900  -25.9320   38.0240 C.ar  601  1BT601      0.0756
     13  N13       51.4190  -24.9900   37.3450 N.pl3 601  1BT601     -0.1255
     14  C14       51.9530  -25.1820   36.0390 C.1   601  1BT601      0.2349
     15  N15       52.7490  -24.2630   35.4950 N.2   601  1BT601     -0.2703
     16  C16       53.2460  -24.4850   34.2280 C.1   601  1BT601      0.1202
     17  N17       54.0680  -23.7230   33.4270 N.2   601  1BT601     -0.1807
     18  C18       54.2630  -24.3970   32.2640 C.3   601  1BT601      0.2627
     19  N19       53.5760  -25.5680   32.3230 N.2   601  1BT601     -0.2289
     20  C20       52.9330  -25.6400   33.5410 C.2   601  1BT601      0.1991
     21  C21       52.0790  -26.6030   34.1710 C.2   601  1BT601      0.2449
     22  N22       51.7410  -27.8260   33.4960 N.pl3 601  1BT601     -0.1849
     23  C23       51.0040  -28.9550   34.0130 C.2   601  1BT601      0.0567
     24  C24       50.5790  -29.0420   35.3440 C.2   601  1BT601      0.0317
     25  C25       49.8430  -30.1680   35.8190 C.2   601  1BT601      0.0834
     26  N26       49.3620  -30.3310   37.1950 N.2   601  1BT601     -0.2576
     27  C27       48.6860  -31.5410   37.3170 C.3   601  1BT601      0.1873
     28  S28       48.6960  -32.3330   35.8380 S.3   601  1BT601     -0.0861
     29  C29       49.5530  -31.2060   34.9460 C.2   601  1BT601      0.0404
     30  C30       49.9920  -31.1200   33.6100 C.2   601  1BT601     -0.0123
     31  C31       50.7040  -30.0090   33.1410 C.3   601  1BT601      0.0698
     32  N32       51.6190  -26.3220   35.4040 N.2   601  1BT601     -0.3067
@<TRIPOS>BOND
     1    18    19    1
     2    18    17    1
     3    19    20    2
     4    31    30    1
     5    31    23    1
     6    17    16    2
     7    22    23    1
     8    22    21    1
     9    20    21    1
    10    20    16    1
    11    30    29    2
    12    23    24    2
    13    21    32    2
    14    16    15    2
    15    29    25    1
    16    29    28    1
    17    24    25    1
    18    32    14    2
    19    15    14    2
    20    25    26    2
    21    28    27    1
    22    14    13    1
    23    26    27    1
    24    13    12    1
    25     8     7    1
    26    12     7   ar
    27    12    10   ar
    28     7     6   ar
    29    11    10    1
    30    10     9   ar
    31     6     5   ar
    32     9     5   ar
    33     5     4    1
    34     4     3    2
    35     3     2    1
    36     2     1    3
