@<TRIPOS>MOLECULE
4i30_ADE_A_1.pdb
 10 11 0 0 0
SMALL
GASTEIGER

@<TRIPOS>ATOM
      1  N9        -9.1320  -27.4260  -21.6930 N.2   304  ADE304     -0.1914
      2  C8        -9.1790  -27.0830  -23.0170 C.3   304  ADE304      0.2618
      3  N7       -10.1950  -27.6070  -23.6870 N.2   304  ADE304     -0.2267
      4  C5       -10.8890  -28.3640  -22.7330 C.2   304  ADE304      0.2303
      5  C6       -12.0780  -29.1710  -22.7760 C.2   304  ADE304      0.4393
      6  N6       -12.8740  -29.4340  -23.8430 N.pl3 304  ADE304      0.2185
      7  N1       -12.4470  -29.7530  -21.6190 N.2   304  ADE304     -0.0265
      8  C2       -11.7090  -29.5590  -20.5180 C.3   304  ADE304      0.4008
      9  N3       -10.5980  -28.8370  -20.3380 N.2   304  ADE304     -0.1640
     10  C4       -10.2290  -28.2530  -21.4990 C.1   304  ADE304      0.0579
@<TRIPOS>BOND
     1     6     5    1
     2     3     2    1
     3     3     4    2
     4     2     1    1
     5     5     4    1
     6     5     7    2
     7     4    10    1
     8     1    10    2
     9     7     8    1
    10    10     9    2
    11     8     9    1
