@<TRIPOS>MOLECULE
4i3g_BGC_A_1.pdb
 12 12 0 0 0
SMALL
GASTEIGER

@<TRIPOS>ATOM
      1  C2       -30.8930  -43.8390   -8.4220 C.3   901  BGC901      0.2434
      2  C3       -29.4730  -43.3440   -8.1040 C.3   901  BGC901      0.2199
      3  C4       -29.5090  -42.3890   -6.9230 C.3   901  BGC901      0.2144
      4  C5       -30.1200  -43.1940   -5.7630 C.3   901  BGC901      0.1836
      5  C6       -30.1260  -42.3970   -4.4500 C.3   901  BGC901      0.2142
      6  C1       -31.5510  -44.4350   -7.1570 C.3   901  BGC901      0.3024
      7  O1       -32.9530  -44.5840   -7.4120 O.3   901  BGC901     -0.1869
      8  O2       -30.8490  -44.8400   -9.4030 O.3   901  BGC901     -0.2148
      9  O3       -28.9250  -42.6320   -9.2340 O.3   901  BGC901     -0.2174
     10  O4       -28.1730  -41.9150   -6.6190 O.3   901  BGC901     -0.2176
     11  O5       -31.4640  -43.5030   -6.0990 O.3   901  BGC901     -0.3236
     12  O6       -31.0120  -41.2930   -4.4960 O.3   901  BGC901     -0.2176
@<TRIPOS>BOND
     1     8     1    1
     2     9     2    1
     3     1     2    1
     4     1     6    1
     5     2     3    1
     6     7     6    1
     7     6    11    1
     8     3    10    1
     9     3     4    1
    10    11     4    1
    11     4     5    1
    12    12     5    1
