@<TRIPOS>MOLECULE
4i3z_ADP_A_1.pdb
 27 29 0 0 0
SMALL
GASTEIGER

@<TRIPOS>ATOM
      1  PB         1.0620  -36.9150   -4.3740 P.3   301  ADP301      0.5373
      2  O1B       -0.2910  -37.0850   -5.0210 O.3   301  ADP301     -0.1143
      3  O2B        2.1550  -36.6300   -5.3750 O.2   301  ADP301     -0.2221
      4  O3B        1.0620  -36.0060   -3.1680 O.3   301  ADP301     -0.1143
      5  PA         2.1970  -38.7120   -2.4200 P.3   301  ADP301      0.2231
      6  O1A        2.5170  -37.4610   -1.6480 O.3   301  ADP301     -0.4370
      7  O2A        3.3130  -39.6840   -2.7100 O.2   301  ADP301     -0.5169
      8  O3A        1.4160  -38.3860   -3.8010 O.3   301  ADP301     -0.2261
      9  O5'        1.0410  -39.4860   -1.6130 O.3   301  ADP301     -0.3111
     10  C5'       -0.1510  -38.7980   -1.2260 C.3   301  ADP301      0.1813
     11  C4'       -0.5580  -39.1960    0.1880 C.3   301  ADP301      0.1821
     12  O4'       -0.7010  -40.6170    0.2850 O.3   301  ADP301     -0.3135
     13  C3'        0.4960  -38.8130    1.2120 C.3   301  ADP301      0.2184
     14  O3'        0.2670  -37.5160    1.7750 O.3   301  ADP301     -0.2174
     15  C2'        0.3930  -39.8990    2.2620 C.3   301  ADP301      0.2570
     16  O2'       -0.5400  -39.5220    3.2840 O.3   301  ADP301     -0.2130
     17  C1'       -0.1450  -41.0970    1.5080 C.3   301  ADP301      0.3186
     18  N9         1.0210  -41.9610    1.2170 N.pl3 301  ADP301     -0.1439
     19  C8         1.8180  -41.8730    0.1330 C.3   301  ADP301      0.3377
     20  N7         2.8010  -42.8080    0.1750 N.2   301  ADP301     -0.2095
     21  C5         2.6380  -43.5080    1.3130 C.2   301  ADP301      0.2526
     22  C6         3.3290  -44.6370    1.9770 C.2   301  ADP301      0.4393
     23  N6         4.4170  -45.1950    1.4000 N.pl3 301  ADP301      0.2180
     24  N1         2.8440  -45.0780    3.1640 N.2   301  ADP301      0.0021
     25  C2         1.7600  -44.5110    3.7270 C.3   301  ADP301      0.5254
     26  N3         1.0830  -43.4800    3.1840 N.2   301  ADP301     -0.0055
     27  C4         1.4650  -42.9470    1.9990 C.2   301  ADP301      0.3518
@<TRIPOS>BOND
     1     3     1    2
     2     2     1    1
     3     1     8    1
     4     1     4    1
     5     8     5    1
     6     7     5    2
     7     5     6    1
     8     5     9    1
     9     9    10    1
    10    10    11    1
    11    19    20    1
    12    19    18    1
    13    20    21    2
    14    11    12    1
    15    11    13    1
    16    12    17    1
    17    13    14    1
    18    13    15    1
    19    18    17    1
    20    18    27    1
    21    21    22    1
    22    21    27    1
    23    23    22    1
    24    17    15    1
    25    22    24    2
    26    27    26    2
    27    15    16    1
    28    24    25    1
    29    26    25    1
