@<TRIPOS>MOLECULE
4i47_MY6_A_1.pdb
 12 13 0 0 0
SMALL
GASTEIGER

@<TRIPOS>ATOM
      1  C1        22.0220    7.7740    9.2430 C.3   303  MY6303      0.0933
      2  N2        23.0830    4.5280    7.8470 N.2   303  MY6303     -0.1926
      3  C3        22.7730    5.8660    7.7720 C.3   303  MY6303      0.2142
      4  N4        22.3960    6.3410    8.9950 N.3   303  MY6303     -0.2241
      5  C5        22.4570    5.2810    9.8750 C.3   303  MY6303      0.2777
      6  C6        22.1850    5.1400   11.2820 C.1   303  MY6303      0.2219
      7  O7        21.7840    6.1700   12.1180 O.2   303  MY6303     -0.2109
      8  N8        22.3710    3.8890   11.8390 N.2   303  MY6303     -0.2515
      9  C9        22.8030    2.7890   11.0930 C.1   303  MY6303      0.2603
     10  N10       22.9930    1.5680   11.6830 N.pl3 303  MY6303     -0.0221
     11  N11       23.0630    2.9170    9.7380 N.2   303  MY6303     -0.2725
     12  C12       22.8920    4.1600    9.1510 C.1   303  MY6303      0.1063
@<TRIPOS>BOND
     1     3     2    1
     2     3     4    1
     3     2    12    2
     4     4     1    1
     5     4     5    1
     6    12    11    2
     7    12     5    1
     8    11     9    2
     9     5     6    1
    10     9    10    1
    11     9     8    2
    12     6     8    2
    13     6     7    2
