@<TRIPOS>MOLECULE
4i4e_1BQ_A_1.pdb
 33 37 0 0 0
SMALL
GASTEIGER

@<TRIPOS>ATOM
      1  C1         9.2900    3.4580   24.3610 C.3   1000  1BQ1000     0.1388
      2  N2         7.9180    3.5940   24.8730 N.pl3 1000  1BQ1000    -0.1919
      3  C3         7.3540    2.5910   25.6880 C.ar  1000  1BQ1000     0.0697
      4  C4         8.2010    1.7770   26.4590 C.ar  1000  1BQ1000     0.0162
      5  C5         7.6730    0.7900   27.2720 C.ar  1000  1BQ1000     0.0013
      6  C6         6.2810    0.5680   27.3440 C.ar  1000  1BQ1000     0.0001
      7  C7         5.4260    1.3740   26.5940 C.ar  1000  1BQ1000     0.0026
      8  C8         5.9640    2.3770   25.7800 C.ar  1000  1BQ1000     0.0323
      9  C9         5.0340    3.1940   25.0070 C.2   1000  1BQ1000     0.1111
     10  N10        3.7360    2.9960   24.7620 N.2   1000  1BQ1000    -0.1504
     11  N12        3.2890    4.0610   23.9630 N.2   1000  1BQ1000    -0.1491
     12  C13        4.2890    4.8980   23.7520 C.2   1000  1BQ1000     0.1272
     13  C14        5.3860    4.3870   24.3980 C.3   1000  1BQ1000     0.2330
     14  S15        7.0420    4.9810   24.5140 S.O2  1000  1BQ1000     0.0663
     15  O16        7.1160    5.8300   25.6570 O.2   1000  1BQ1000    -0.1536
     16  O17        7.3800    5.4510   23.2180 O.2   1000  1BQ1000    -0.1536
     17  C18        5.7200   -0.4780   28.2450 C.ar  1000  1BQ1000     0.0000
     18  C19        4.3310   -0.6890   28.3610 C.ar  1000  1BQ1000     0.0001
     19  C20        3.8390   -1.6640   29.2170 C.ar  1000  1BQ1000     0.0045
     20  C21        4.7420   -2.4360   29.9700 C.ar  1000  1BQ1000     0.0536
     21  C22        6.1170   -2.2000   29.8750 C.ar  1000  1BQ1000     0.0045
     22  C23        6.6030   -1.2370   29.0130 C.ar  1000  1BQ1000     0.0001
     23  C24        4.2970   -3.4650   30.9370 C.2   1000  1BQ1000     0.2490
     24  O25        3.7140   -3.0740   31.9320 O.2   1000  1BQ1000    -0.2699
     25  N26        4.5330   -4.7850   30.7920 N.am  1000  1BQ1000    -0.2761
     26  C27        4.0670   -5.7290   31.8260 C.3   1000  1BQ1000     0.0937
     27  C28        3.2840   -6.9060   31.2240 C.3   1000  1BQ1000     0.0217
     28  C29        3.9280   -7.4240   29.9340 C.3   1000  1BQ1000     0.0060
     29  C30        2.9990   -8.4420   29.2780 C.3   1000  1BQ1000     0.0357
     30  C31        3.7490   -9.7720   29.3060 C.3   1000  1BQ1000     0.1821
     31  O32        4.3370   -9.9710   28.0200 O.3   1000  1BQ1000    -0.2204
     32  C33        4.2230   -6.2780   28.9580 C.3   1000  1BQ1000     0.0217
     33  C34        5.2290   -5.3440   29.6210 C.3   1000  1BQ1000     0.0937
@<TRIPOS>BOND
     1    16    14    2
     2    12    11    2
     3    12    13    1
     4    11    10    1
     5     1     2    1
     6    13    14    1
     7    13     9    1
     8    14     2    1
     9    14    15    2
    10    10     9    2
    11     2     3    1
    12     9     8    1
    13     3     8   ar
    14     3     4   ar
    15     8     7   ar
    16     4     5   ar
    17     7     6   ar
    18     5     6   ar
    19     6    17    1
    20    31    30    1
    21    17    18   ar
    22    17    22   ar
    23    18    19   ar
    24    32    33    1
    25    32    28    1
    26    22    21   ar
    27    19    20   ar
    28    29    30    1
    29    29    28    1
    30    33    25    1
    31    21    20   ar
    32    28    27    1
    33    20    23    1
    34    25    23   am
    35    25    26    1
    36    23    24    2
    37    27    26    1
