@<TRIPOS>MOLECULE
4i4f_1BR_A_1.pdb
 29 32 0 0 0
SMALL
GASTEIGER

@<TRIPOS>ATOM
      1  C1       -10.3180   -1.1070  -15.5770 C.3   702  1BR702      0.1392
      2  N2       -11.1020    0.0190  -15.0940 N.pl3 702  1BR702     -0.1887
      3  C3       -11.0790    1.2690  -15.7690 C.ar  702  1BR702      0.0704
      4  C4       -11.0680    1.2500  -17.1730 C.ar  702  1BR702      0.0175
      5  C5       -10.9780    2.4660  -17.8810 C.ar  702  1BR702      0.0174
      6  C6       -10.9100    3.6870  -17.1760 C.ar  702  1BR702      0.0658
      7  N7       -10.8750    4.9040  -17.8950 N.pl3 702  1BR702     -0.2328
      8  C8       -10.1840    6.1430  -17.4240 C.3   702  1BR702      0.1385
      9  C9        -9.7710    6.8800  -18.6980 C.ar  702  1BR702     -0.0007
     10  C10       -8.7010    6.3810  -19.4410 C.ar  702  1BR702     -0.0029
     11  C11       -8.3030    7.0250  -20.6040 C.ar  702  1BR702     -0.0046
     12  C12       -9.0020    8.1520  -21.0590 C.ar  702  1BR702     -0.0228
     13  C13      -10.0640    8.6550  -20.3030 C.ar  702  1BR702     -0.0046
     14  C14      -10.4770    8.0010  -19.1160 C.ar  702  1BR702     -0.0029
     15  C15       -8.5590    8.8140  -22.3590 C.3   702  1BR702      0.0189
     16  C16       -8.7320    7.8230  -23.5310 C.3   702  1BR702      0.0044
     17  C17       -9.3960   10.0560  -22.6790 C.3   702  1BR702      0.0044
     18  C18       -7.0890    9.2540  -22.2770 C.3   702  1BR702      0.0044
     19  C19      -10.9470    3.6960  -15.7870 C.ar  702  1BR702      0.0189
     20  C20      -10.9960    2.4910  -15.0580 C.ar  702  1BR702      0.0348
     21  C21      -11.0060    2.4930  -13.5710 C.ar  702  1BR702      0.0996
     22  C22      -11.4010    1.3650  -12.8590 C.ar  702  1BR702      0.1633
     23  C23      -11.2890    1.6150  -11.4960 C.ar  702  1BR702      0.1418
     24  N24      -10.8120    2.8260  -11.3520 N.ar  702  1BR702     -0.1662
     25  N25      -10.6370    3.3960  -12.6200 N.ar  702  1BR702     -0.2474
     26  C26      -10.1240    4.7490  -12.8000 C.3   702  1BR702      0.1538
     27  S27      -11.9390   -0.0720  -13.6790 S.O2  702  1BR702      0.0796
     28  O28      -13.3140    0.1420  -14.0330 O.2   702  1BR702     -0.1496
     29  O29      -11.6000   -1.2660  -12.9940 O.2   702  1BR702     -0.1496
@<TRIPOS>BOND
     1    16    15    1
     2    17    15    1
     3    15    18    1
     4    15    12    1
     5    12    11   ar
     6    12    13   ar
     7    11    10   ar
     8    13    14   ar
     9    10     9   ar
    10    14     9   ar
    11     9     8    1
    12     7     8    1
    13     7     6    1
    14     5     6   ar
    15     5     4   ar
    16     6    19   ar
    17     4     3   ar
    18    19    20   ar
    19     3     2    1
    20     3    20   ar
    21     1     2    1
    22     2    27    1
    23    20    21    1
    24    28    27    2
    25    27    29    2
    26    27    22    1
    27    21    22   ar
    28    21    25   ar
    29    22    23   ar
    30    26    25    1
    31    25    24   ar
    32    23    24   ar
