@<TRIPOS>MOLECULE
4i4t_TYR_B_1.pdb
 24 24 0 0 0
SMALL
GASTEIGER

@<TRIPOS>ATOM
      1  N         22.1120   19.9330   21.1310 N.4   506  TYR506      0.3873
      2  CA        22.7180   20.8040   20.1290 C.3   506  TYR506      0.0245
      3  C         22.6970   22.2460   20.6210 C.2   506  TYR506      0.3423
      4  O         21.6240   22.8440   20.7370 O.co2 506  TYR506     -0.2482
      5  CB        21.9540   20.6960   18.8070 C.3   506  TYR506     -0.0306
      6  CG        22.7250   21.1320   17.5730 C.ar  506  TYR506     -0.0482
      7  CD1       23.9420   21.7970   17.6720 C.ar  506  TYR506     -0.0552
      8  CD2       22.2270   20.8750   16.3040 C.ar  506  TYR506     -0.0552
      9  CE1       24.6360   22.1890   16.5370 C.ar  506  TYR506     -0.0199
     10  CE2       22.9100   21.2630   15.1720 C.ar  506  TYR506     -0.0199
     11  CZ        24.1120   21.9170   15.2900 C.ar  506  TYR506      0.1169
     12  OH        24.7800   22.2930   14.1480 O.3   506  TYR506     -0.5068
     13  OXT       23.7390   22.8430   20.9080 O.co2 506  TYR506     -0.2482
     14  H1        21.1570   19.9510   21.0350 H     506  TYR506     -0.0889
     15  H2        22.4270   19.0320   21.0350 H     506  TYR506     -0.0889
     16  H         22.3050   20.1460   21.9420 H     506  TYR506     -0.0889
     17  HA        23.6480   20.5360   19.9780 H     506  TYR506      0.0201
     18  HB2       21.6950   19.7700   18.6760 H     506  TYR506      0.0302
     19  HB3       21.1590   21.2490   18.8640 H     506  TYR506      0.0302
     20  HD1       24.2970   21.9800   18.5120 H     506  TYR506      0.0621
     21  HD2       21.4140   20.4320   16.2160 H     506  TYR506      0.0621
     22  HE1       25.4500   22.6330   16.6150 H     506  TYR506      0.0654
     23  HE2       22.5600   21.0800   14.3300 H     506  TYR506      0.0654
     24  HH        24.3160   22.8060   13.7070 H     506  TYR506      0.2921
@<TRIPOS>BOND
     1    24    12    1
     2    12    11    1
     3    23    10    1
     4    10    11   ar
     5    10     8   ar
     6    11     9   ar
     7    21     8    1
     8     8     6   ar
     9     9    22    1
    10     9     7   ar
    11     6     7   ar
    12     6     5    1
    13     7    20    1
    14    18     5    1
    15     5    19    1
    16     5     2    1
    17    17     2    1
    18     2     3    1
    19     2     1    1
    20     3     4   ar
    21     3    13   ar
    22    15     1    1
    23    14     1    1
    24     1    16    1
