@<TRIPOS>MOLECULE
4i4t_ACP_F_1.pdb
 48 50 0 0 0
SMALL
GASTEIGER

@<TRIPOS>ATOM
      1  PG         8.1580   50.9170   94.1770 P.3   703  ACP703      0.3394
      2  O1G        9.1570   51.5880   93.3680 O.2   703  ACP703     -0.2582
      3  O2G        7.9550   49.4440   93.6010 O.3   703  ACP703     -0.3236
      4  O3G        6.8290   51.7350   94.0260 O.3   703  ACP703     -0.3236
      5  PB        10.3830   50.7520   96.1360 P.3   703  ACP703      0.3472
      6  O1B       10.8850   49.5220   95.5140 O.2   703  ACP703     -0.2577
      7  O2B       11.1450   51.9960   95.5140 O.3   703  ACP703     -0.3233
      8  C3B        8.5910   50.8410   95.9280 C.3   703  ACP703      0.1510
      9  PA        10.9160   51.9820   98.5130 P.3   703  ACP703      0.2201
     10  O1A       12.3410   52.3960   98.5610 O.3   703  ACP703     -0.4371
     11  O2A        9.8210   52.8970   98.0700 O.2   703  ACP703     -0.5170
     12  O3A       10.8070   50.6600   97.6480 O.3   703  ACP703     -0.2502
     13  O5'       10.5190   51.3060   99.8690 O.3   703  ACP703     -0.3245
     14  C5'        9.1370   51.3850   99.9590 C.3   703  ACP703      0.0836
     15  C4'        8.5780   50.4630  101.0150 C.3   703  ACP703      0.1131
     16  O4'        9.3760   50.4690  102.1910 O.3   703  ACP703     -0.3474
     17  C3'        7.1600   50.8600  101.3680 C.3   703  ACP703      0.1133
     18  O3'        6.2970   49.9140  100.7360 O.3   703  ACP703     -0.3864
     19  C2'        7.1290   50.7900  102.8670 C.3   703  ACP703      0.1266
     20  O2'        6.5250   49.5620  103.2130 O.3   703  ACP703     -0.3849
     21  C1'        8.5790   50.8460  103.2930 C.3   703  ACP703      0.1617
     22  N9         8.9850   52.2160  103.6500 N.pl3 703  ACP703     -0.2234
     23  C8         9.8090   52.9860  102.9320 C.2   703  ACP703      0.1451
     24  N7        10.0020   54.1710  103.5280 N.2   703  ACP703     -0.3871
     25  C5         9.2910   54.1600  104.6520 C.2   703  ACP703      0.2211
     26  C6         9.0450   55.0890  105.7540 C.2   703  ACP703      0.2227
     27  N6         9.6190   56.2880  105.7500 N.pl3 703  ACP703     -0.3300
     28  N1         8.2430   54.7060  106.7480 N.2   703  ACP703     -0.3296
     29  C2         7.6640   53.5120  106.7630 C.1   703  ACP703      0.0930
     30  N3         7.8420   52.6160  105.7930 N.2   703  ACP703     -0.3287
     31  C4         8.6300   52.8720  104.7370 C.2   703  ACP703      0.2354
     32 HOG2        8.3520   49.2090   92.7520 H     703  ACP703      0.2198
     33 HOG3        6.0560   51.3050   94.3440 H     703  ACP703      0.2198
     34 HOB2       12.0490   51.8760   95.1980 H     703  ACP703      0.2198
     35 H3B1        8.1890   51.7150   96.4450 H     703  ACP703      0.0513
     36 H3B2        8.1340   49.9560   96.3730 H     703  ACP703      0.0513
     37 H5'1        8.7010   51.1160   98.9970 H     703  ACP703      0.0591
     38 H5'2        8.9390   52.4410  100.1410 H     703  ACP703      0.0591
     39  H4'        8.5560   49.4470  100.6020 H     703  ACP703      0.0647
     40  H3'        6.9180   51.8950  101.0660 H     703  ACP703      0.0647
     41 HO3'        5.3930   50.2460  100.6150 H     703  ACP703      0.2100
     42  H2'        6.5790   51.6270  103.3210 H     703  ACP703      0.0663
     43 HO2'        5.6120   49.5670  102.9040 H     703  ACP703      0.2101
     44  H1'        8.7400   50.1650  104.1360 H     703  ACP703      0.0841
     45  H8        10.2670   52.6980  101.9990 H     703  ACP703      0.1149
     46 HN61        9.4530   56.9290  106.4980 H     703  ACP703      0.1448
     47 HN62       10.2170   56.5320  104.9930 H     703  ACP703      0.1448
     48  H2         7.0220   53.2710  107.5970 H     703  ACP703      0.1751
@<TRIPOS>UNITY_ATOM_ATTR
11 1
charge 1
@<TRIPOS>BOND
     1    32     3    1
     2     2     1    2
     3     3     1    1
     4     4     1    1
     5     4    33    1
     6     1     8    1
     7    34     7    1
     8     7     5    1
     9     6     5    2
    10     8     5    1
    11     8    36    1
    12     8    35    1
    13     5    12    1
    14    12     9    1
    15    11     9    2
    16     9    10    1
    17     9    13    1
    18    37    14    1
    19    13    14    1
    20    14    38    1
    21    14    15    1
    22    39    15    1
    23    41    18    1
    24    18    17    1
    25    15    17    1
    26    15    16    1
    27    40    17    1
    28    17    19    1
    29    45    23    1
    30    16    21    1
    31    19    20    1
    32    19    21    1
    33    19    42    1
    34    43    20    1
    35    23    24    2
    36    23    22    1
    37    21    22    1
    38    21    44    1
    39    24    25    2
    40    22    31    1
    41    25    31    1
    42    25    26    1
    43    31    30    2
    44    47    27    1
    45    27    26    1
    46    27    46    1
    47    26    28    2
    48    30    29    2
    49    28    29    2
    50    29    48    1
