@<TRIPOS>MOLECULE
4i4t_GDP_B_1.pdb
 38 40 0 0 0
SMALL
GASTEIGER

@<TRIPOS>ATOM
      1  PB        19.0180   49.4120   15.8770 P.3   501  GDP501      0.5373
      2  O1B       19.4910   50.1560   17.1030 O.3   501  GDP501     -0.1143
      3  O2B       18.5960   50.3300   14.7720 O.2   501  GDP501     -0.2221
      4  O3B       20.0810   48.3980   15.4900 O.3   501  GDP501     -0.1143
      5  O3A       17.8160   48.4730   16.3990 O.3   501  GDP501     -0.2261
      6  PA        16.4300   48.9490   17.0780 P.3   501  GDP501      0.2230
      7  O1A       15.3030   48.8960   16.0680 O.2   501  GDP501     -0.5169
      8  O2A       16.5120   50.3390   17.6420 O.3   501  GDP501     -0.4370
      9  O5'       16.4010   47.8400   18.1940 O.3   501  GDP501     -0.3116
     10  C5'       15.3240   46.9160   18.4080 C.3   501  GDP501      0.1742
     11  C4'       14.7680   47.1910   19.8050 C.3   501  GDP501      0.1246
     12  O4'       14.2160   48.5070   19.8270 O.3   501  GDP501     -0.3466
     13  C3'       13.6170   46.2470   20.0900 C.3   501  GDP501      0.1141
     14  O3'       13.5810   45.9520   21.4830 O.3   501  GDP501     -0.3864
     15  C2'       12.3850   46.9880   19.6120 C.3   501  GDP501      0.1266
     16  O2'       11.1880   46.5920   20.2840 O.3   501  GDP501     -0.3849
     17  C1'       12.7640   48.4090   19.9490 C.3   501  GDP501      0.1617
     18  N9        12.2720   49.4640   19.0850 N.pl3 501  GDP501     -0.2241
     19  C8        12.5540   49.6810   17.7800 C.2   501  GDP501      0.1451
     20  N7        11.9570   50.8350   17.3740 N.2   501  GDP501     -0.3865
     21  C5        11.3410   51.3540   18.4570 C.2   501  GDP501      0.2296
     22  C6        10.5420   52.5480   18.7430 C.2   501  GDP501      0.2859
     23  O6        10.3290   53.3620   17.8300 O.2   501  GDP501     -0.2668
     24  N1        10.0730   52.7160   19.9790 N.am  501  GDP501     -0.2418
     25  C2        10.2950   51.8440   20.9720 C.2   501  GDP501      0.2395
     26  N2         9.7930   52.1110   22.2020 N.pl3 501  GDP501     -0.3206
     27  N3        11.0270   50.7230   20.8000 N.2   501  GDP501     -0.3551
     28  C4        11.5530   50.4550   19.5720 C.2   501  GDP501      0.2272
     29  H4'       15.5570   47.0730   20.5610 H     501  GDP501      0.0655
     30  H3'       13.7440   45.3270   19.5020 H     501  GDP501      0.0648
     31 HO3'       12.8610   45.3310   21.6620 H     501  GDP501      0.2100
     32  H2'       12.2830   46.8780   18.5240 H     501  GDP501      0.0663
     33 HO2'       11.0060   45.6610   20.0960 H     501  GDP501      0.2101
     34  H1'       12.4670   48.6130   20.9870 H     501  GDP501      0.0841
     35  H8        13.1420   49.0260   17.1490 H     501  GDP501      0.1149
     36  HN1        9.4970   53.5590   20.1800 H     501  GDP501      0.1589
     37 HN21        9.2420   52.9430   22.3520 H     501  GDP501      0.1459
     38 HN22        9.9610   51.4710   22.9650 H     501  GDP501      0.1459
@<TRIPOS>BOND
     1     3     1    2
     2     4     1    1
     3     1     5    1
     4     1     2    1
     5     7     6    2
     6     5     6    1
     7     6     8    1
     8     6     9    1
     9    35    19    1
    10    20    19    2
    11    20    21    2
    12    19    18    1
    13    23    22    2
    14     9    10    1
    15    10    11    1
    16    21    22    1
    17    21    28    1
    18    32    15    1
    19    22    24   am
    20    18    28    1
    21    18    17    1
    22    30    13    1
    23    28    27    2
    24    15    17    1
    25    15    13    1
    26    15    16    1
    27    11    12    1
    28    11    13    1
    29    11    29    1
    30    12    17    1
    31    17    34    1
    32    24    36    1
    33    24    25    1
    34    13    14    1
    35    33    16    1
    36    27    25    2
    37    25    26    1
    38    14    31    1
    39    26    37    1
    40    26    38    1
