@<TRIPOS>MOLECULE
4i4t_GTP_A_1.pdb
 42 44 0 0 0
SMALL
GASTEIGER

@<TRIPOS>ATOM
      1  PG        27.2640   74.0270   45.5860 P.3   501  GTP501      0.5373
      2  O1G       26.0430   74.5030   44.9160 O.3   501  GTP501     -0.1143
      3  O2G       28.5260   74.3820   44.9040 O.2   501  GTP501     -0.2221
      4  O3G       27.1940   72.6580   46.0450 O.3   501  GTP501     -0.1143
      5  O3B       27.3360   74.7710   47.0140 O.3   501  GTP501     -0.2258
      6  PB        26.4520   75.9930   47.5600 P.3   501  GTP501      0.2277
      7  O1B       26.1430   76.9140   46.4580 O.2   501  GTP501     -0.5168
      8  O2B       27.1940   76.5420   48.7140 O.3   501  GTP501     -0.4368
      9  O3A       25.1400   75.2770   48.0970 O.3   501  GTP501     -0.2700
     10  PA        23.9280   75.9530   48.8900 P.3   501  GTP501      0.2189
     11  O1A       22.7480   76.0680   48.0200 O.2   501  GTP501     -0.5170
     12  O2A       24.4590   77.1420   49.5880 O.3   501  GTP501     -0.4371
     13  O5'       23.6820   74.8050   49.9520 O.3   501  GTP501     -0.3116
     14  C5'       22.4360   74.1480   50.0790 C.3   501  GTP501      0.1742
     15  C4'       21.8910   74.3380   51.4850 C.3   501  GTP501      0.1246
     16  O4'       21.7790   75.7200   51.7500 O.3   501  GTP501     -0.3466
     17  C3'       20.5040   73.7540   51.6610 C.3   501  GTP501      0.1141
     18  O3'       20.3920   73.2870   53.0030 O.3   501  GTP501     -0.3864
     19  C2'       19.5950   74.9270   51.3890 C.3   501  GTP501      0.1266
     20  O2'       18.3190   74.8910   52.0070 O.3   501  GTP501     -0.3849
     21  C1'       20.4210   76.0730   51.9250 C.3   501  GTP501      0.1617
     22  N9        20.2210   77.3400   51.2250 N.pl3 501  GTP501     -0.2241
     23  C8        20.5470   77.6050   49.9630 C.2   501  GTP501      0.1451
     24  N7        20.2570   78.8790   49.6590 N.2   501  GTP501     -0.3865
     25  C5        19.7440   79.4400   50.7510 C.2   501  GTP501      0.2296
     26  C6        19.2260   80.7630   51.1200 C.2   501  GTP501      0.2859
     27  O6        19.2100   81.6750   50.2990 O.2   501  GTP501     -0.2668
     28  N1        18.7820   80.9320   52.3600 N.am  501  GTP501     -0.2418
     29  C2        18.7960   79.9470   53.2620 C.2   501  GTP501      0.2395
     30  N2        18.3380   80.1770   54.5030 N.pl3 501  GTP501     -0.3206
     31  N3        19.2550   78.7170   52.9940 N.2   501  GTP501     -0.3551
     32  C4        19.7290   78.4190   51.7810 C.2   501  GTP501      0.2272
     33  H4'       22.5740   73.8720   52.2060 H     501  GTP501      0.0655
     34  H3'       20.3480   72.9700   50.9070 H     501  GTP501      0.0648
     35 HO3'       19.7620   72.5610   53.0890 H     501  GTP501      0.2100
     36  H2'       19.4850   75.0410   50.3050 H     501  GTP501      0.0663
     37 HO2'       18.1400   74.0240   52.3710 H     501  GTP501      0.2101
     38  H1'       20.2030   76.1920   52.9910 H     501  GTP501      0.0841
     39  H8        20.9840   76.8940   49.2780 H     501  GTP501      0.1149
     40  HN1       18.4130   81.8610   52.6320 H     501  GTP501      0.1589
     41 HN21       18.3480   79.4380   55.1880 H     501  GTP501      0.1459
     42 HN22       17.9830   81.0840   54.7530 H     501  GTP501      0.1459
@<TRIPOS>BOND
     1     3     1    2
     2     2     1    1
     3     1     4    1
     4     1     5    1
     5     7     6    2
     6     5     6    1
     7     6     9    1
     8     6     8    1
     9    11    10    2
    10     9    10    1
    11    10    12    1
    12    10    13    1
    13    39    23    1
    14    24    23    2
    15    24    25    2
    16    13    14    1
    17    23    22    1
    18    14    15    1
    19    27    26    2
    20    36    19    1
    21    25    26    1
    22    25    32    1
    23    34    17    1
    24    26    28   am
    25    22    32    1
    26    22    21    1
    27    19    17    1
    28    19    21    1
    29    19    20    1
    30    15    17    1
    31    15    16    1
    32    15    33    1
    33    17    18    1
    34    16    21    1
    35    32    31    2
    36    21    38    1
    37    20    37    1
    38    28    40    1
    39    28    29    1
    40    31    29    2
    41    18    35    1
    42    29    30    1
    43    30    42    1
    44    30    41    1
