@<TRIPOS>MOLECULE
4i50_GTP_A_1.pdb
 42 44 0 0 0
SMALL
GASTEIGER

@<TRIPOS>ATOM
      1  PG        27.1660   72.1440   46.3270 P.3   501  GTP501      0.5373
      2  O1G       26.0920   72.9490   45.5710 O.3   501  GTP501     -0.1143
      3  O2G       28.4640   72.1500   45.5660 O.2   501  GTP501     -0.2221
      4  O3G       26.8130   70.6990   46.5650 O.3   501  GTP501     -0.1143
      5  O3B       27.3980   72.7970   47.7930 O.3   501  GTP501     -0.2258
      6  PB        26.4730   73.9690   48.4120 P.3   501  GTP501      0.2277
      7  O1B       26.1530   75.0250   47.3760 O.2   501  GTP501     -0.5168
      8  O2B       27.2040   74.6170   49.5560 O.3   501  GTP501     -0.4368
      9  O3A       25.1140   73.2230   48.8450 O.3   501  GTP501     -0.2700
     10  PA        23.9160   73.9020   49.6930 P.3   501  GTP501      0.2189
     11  O1A       22.7850   74.2510   48.7630 O.2   501  GTP501     -0.5170
     12  O2A       24.3870   75.1110   50.4670 O.3   501  GTP501     -0.4371
     13  O5'       23.5620   72.6820   50.6640 O.3   501  GTP501     -0.3116
     14  C5'       22.2900   72.1040   50.7850 C.3   501  GTP501      0.1742
     15  C4'       21.8110   72.2160   52.2280 C.3   501  GTP501      0.1246
     16  O4'       21.6740   73.5840   52.5560 O.3   501  GTP501     -0.3466
     17  C3'       20.4350   71.6010   52.3900 C.3   501  GTP501      0.1141
     18  O3'       20.2890   71.1540   53.7200 O.3   501  GTP501     -0.3864
     19  C2'       19.5210   72.7620   52.0590 C.3   501  GTP501      0.1266
     20  O2'       18.2340   72.6270   52.6050 O.3   501  GTP501     -0.3849
     21  C1'       20.2970   73.9240   52.6530 C.3   501  GTP501      0.1617
     22  N9        20.1050   75.1960   51.9400 N.pl3 501  GTP501     -0.2241
     23  C8        20.4540   75.5090   50.6520 C.2   501  GTP501      0.1451
     24  N7        20.1330   76.8090   50.4300 N.2   501  GTP501     -0.3865
     25  C5        19.5950   77.3310   51.5660 C.2   501  GTP501      0.2296
     26  C6        19.1020   78.5890   51.9180 C.2   501  GTP501      0.2859
     27  O6        19.0810   79.5330   51.1320 O.2   501  GTP501     -0.2668
     28  N1        18.6270   78.8010   53.1850 N.am  501  GTP501     -0.2418
     29  C2        18.6260   77.7800   54.1060 C.2   501  GTP501      0.2395
     30  N2        18.1560   77.9920   55.3360 N.pl3 501  GTP501     -0.3206
     31  N3        19.1170   76.5440   53.7540 N.2   501  GTP501     -0.3551
     32  C4        19.5920   76.3250   52.5160 C.2   501  GTP501      0.2272
     33  H4'       22.5190   71.7230   52.8940 H     501  GTP501      0.0655
     34  H3'       20.2960   70.7900   51.6740 H     501  GTP501      0.0648
     35 HO3'       19.6110   71.6960   54.1750 H     501  GTP501      0.2100
     36  H2'       19.4670   72.8810   50.9770 H     501  GTP501      0.0663
     37 HO2'       18.0890   73.3250   53.2770 H     501  GTP501      0.2101
     38  H1'       20.0140   74.0380   53.7000 H     501  GTP501      0.0841
     39  H8        20.9100   74.8310   49.9310 H     501  GTP501      0.1149
     40  HN1       18.2640   79.7380   53.4520 H     501  GTP501      0.1589
     41 HN21       18.1590   77.2400   56.0180 H     501  GTP501      0.1459
     42 HN22       17.7900   78.9050   55.5890 H     501  GTP501      0.1459
@<TRIPOS>BOND
     1     3     1    2
     2     2     1    1
     3     1     4    1
     4     1     5    1
     5     7     6    2
     6     5     6    1
     7     6     9    1
     8     6     8    1
     9    11    10    2
    10     9    10    1
    11    10    12    1
    12    10    13    1
    13    39    23    1
    14    24    23    2
    15    24    25    2
    16    23    22    1
    17    13    14    1
    18    14    15    1
    19    36    19    1
    20    27    26    2
    21    25    26    1
    22    25    32    1
    23    34    17    1
    24    26    28   am
    25    22    32    1
    26    22    21    1
    27    19    17    1
    28    19    20    1
    29    19    21    1
    30    15    17    1
    31    15    16    1
    32    15    33    1
    33    17    18    1
    34    32    31    2
    35    16    21    1
    36    20    37    1
    37    21    38    1
    38    28    40    1
    39    28    29    1
    40    18    35    1
    41    31    29    2
    42    29    30    1
    43    30    42    1
    44    30    41    1
