@<TRIPOS>MOLECULE
4i50_GDP_B_1.pdb
 38 40 0 0 0
SMALL
GASTEIGER

@<TRIPOS>ATOM
      1  PB        19.1510   48.2980   16.1960 P.3   501  GDP501      0.5373
      2  O1B       19.7040   49.0090   17.4200 O.3   501  GDP501     -0.1143
      3  O2B       18.8260   49.3070   15.1440 O.2   501  GDP501     -0.2221
      4  O3B       20.1360   47.2910   15.6610 O.3   501  GDP501     -0.1143
      5  O3A       17.8830   47.4020   16.5490 O.3   501  GDP501     -0.2261
      6  PA        16.5250   47.9220   17.2180 P.3   501  GDP501      0.2230
      7  O1A       15.3610   47.8330   16.2800 O.2   501  GDP501     -0.5169
      8  O2A       16.6000   49.3020   17.8480 O.3   501  GDP501     -0.4370
      9  O5'       16.4430   46.7670   18.3170 O.3   501  GDP501     -0.3116
     10  C5'       15.4030   45.8170   18.3910 C.3   501  GDP501      0.1742
     11  C4'       14.9050   45.8910   19.8180 C.3   501  GDP501      0.1246
     12  O4'       14.3880   47.1940   20.0620 O.3   501  GDP501     -0.3466
     13  C3'       13.7610   44.9540   20.0710 C.3   501  GDP501      0.1141
     14  O3'       13.8690   44.6260   21.4450 O.3   501  GDP501     -0.3864
     15  C2'       12.5220   45.7700   19.7800 C.3   501  GDP501      0.1266
     16  O2'       11.4070   45.3050   20.5370 O.3   501  GDP501     -0.3849
     17  C1'       12.9680   47.1430   20.2180 C.3   501  GDP501      0.1617
     18  N9        12.4790   48.2900   19.4350 N.pl3 501  GDP501     -0.2241
     19  C8        12.7730   48.5920   18.1660 C.2   501  GDP501      0.1451
     20  N7        12.1890   49.7710   17.8110 N.2   501  GDP501     -0.3865
     21  C5        11.5280   50.2440   18.8870 C.2   501  GDP501      0.2296
     22  C6        10.7130   51.4260   19.2230 C.2   501  GDP501      0.2859
     23  O6        10.4730   52.3070   18.3770 O.2   501  GDP501     -0.2668
     24  N1        10.2310   51.5230   20.4620 N.am  501  GDP501     -0.2418
     25  C2        10.4580   50.5930   21.3920 C.2   501  GDP501      0.2395
     26  N2         9.9240   50.7620   22.6240 N.pl3 501  GDP501     -0.3206
     27  N3        11.1980   49.4890   21.1590 N.2   501  GDP501     -0.3551
     28  C4        11.7440   49.2700   19.9530 C.2   501  GDP501      0.2272
     29  H4'       15.7290   45.6640   20.5090 H     501  GDP501      0.0655
     30  H3'       13.8220   44.0710   19.4200 H     501  GDP501      0.0648
     31 HO3'       13.1420   44.0400   21.6940 H     501  GDP501      0.2100
     32  H2'       12.3080   45.7660   18.7020 H     501  GDP501      0.0663
     33 HO2'       11.1900   44.4010   20.2690 H     501  GDP501      0.2101
     34  H1'       12.7050   47.2770   21.2770 H     501  GDP501      0.0841
     35  H8        13.3710   47.9750   17.5070 H     501  GDP501      0.1149
     36  HN1        9.6420   52.3440   20.7070 H     501  GDP501      0.1589
     37 HN21        9.3670   51.5810   22.8250 H     501  GDP501      0.1459
     38 HN22       10.0910   50.0760   23.3460 H     501  GDP501      0.1459
@<TRIPOS>BOND
     1     3     1    2
     2     4     1    1
     3     1     5    1
     4     1     2    1
     5     7     6    2
     6     5     6    1
     7     6     8    1
     8     6     9    1
     9    35    19    1
    10    20    19    2
    11    20    21    2
    12    19    18    1
    13     9    10    1
    14    23    22    2
    15    10    11    1
    16    32    15    1
    17    21    22    1
    18    21    28    1
    19    22    24   am
    20    30    13    1
    21    18    28    1
    22    18    17    1
    23    15    13    1
    24    15    17    1
    25    15    16    1
    26    11    12    1
    27    11    13    1
    28    11    29    1
    29    28    27    2
    30    12    17    1
    31    13    14    1
    32    17    34    1
    33    33    16    1
    34    24    36    1
    35    24    25    1
    36    27    25    2
    37    25    26    1
    38    14    31    1
    39    26    37    1
    40    26    38    1
