@<TRIPOS>MOLECULE
4i50_ACP_F_1.pdb
 43 45 0 0 0
SMALL
GASTEIGER

@<TRIPOS>ATOM
      1  PG         8.2010   47.7110   94.4980 P.3   401  ACP401      0.3394
      2  O1G        7.3470   48.4360   95.4940 O.2   401  ACP401     -0.2582
      3  O2G        9.0870   48.7260   93.7030 O.3   401  ACP401     -0.3236
      4  O3G        7.2720   46.9570   93.4890 O.3   401  ACP401     -0.3236
      5  PB        10.6260   47.3720   96.3050 P.3   401  ACP401      0.3472
      6  O1B       11.4160   46.0350   96.5960 O.2   401  ACP401     -0.2577
      7  O2B       10.8290   48.5960   95.3290 O.3   401  ACP401     -0.3233
      8  C3B        9.2750   46.5090   95.3760 C.3   401  ACP401      0.1510
      9  PA         9.9160   48.7960   98.6070 P.3   401  ACP401      0.2201
     10  O1A        8.7520   49.3050   97.8090 O.co2 401  ACP401     -0.5170
     11  O2A       10.4500   50.0740   99.1970 O.3   401  ACP401     -0.4371
     12  O3A       10.9940   48.0740   97.6850 O.3   401  ACP401     -0.2502
     13  O5'        9.4100   47.8530   99.7740 O.3   401  ACP401     -0.3245
     14  C5'        8.5120   46.8150   99.4970 C.3   401  ACP401      0.0837
     15  C4'        7.8000   46.3720  100.7490 C.3   401  ACP401      0.1157
     16  O4'        8.5610   46.6220  101.9020 O.3   401  ACP401     -0.3218
     17  C3'        6.5120   47.0900  100.8760 C.3   401  ACP401      0.1162
     18  O3'        5.4630   46.3320  100.3950 O.3   401  ACP401     -0.3863
     19  C2'        6.3390   47.3640  102.3180 C.3   401  ACP401      0.1578
     20  O2'        5.4650   46.4740  102.9090 O.3   401  ACP401     -0.3819
     21  C1'        7.7270   47.2550  102.8550 C.3   401  ACP401      0.3075
     22  N9         8.2810   48.5410  103.2770 N.pl3 401  ACP401     -0.1443
     23  C8         9.2200   49.3000  102.5840 C.3   401  ACP401      0.3377
     24  N7         9.5080   50.4190  103.2770 N.2   401  ACP401     -0.2095
     25  C5         8.7730   50.4370  104.4530 C.2   401  ACP401      0.2526
     26  C6         8.6620   51.3380  105.5440 C.2   401  ACP401      0.4393
     27  N6         9.4320   52.5590  105.5810 N.pl3 401  ACP401      0.2180
     28  N1         7.8170   51.0200  106.5500 N.2   401  ACP401      0.0021
     29  C2         7.0970   49.8870  106.5260 C.3   401  ACP401      0.5254
     30  N3         7.1660   49.0080  105.5150 N.2   401  ACP401     -0.0055
     31  C4         7.9780   49.2380  104.4740 C.2   401  ACP401      0.3518
     32 HOG2        9.1420   48.4690   92.8560 H     401  ACP401      0.2198
     33 HOG3        6.7200   47.5360   93.1060 H     401  ACP401      0.2198
     34 HOB2       11.7030   48.7250   95.1900 H     401  ACP401      0.2198
     35 H3B1        8.7350   46.0150   96.0120 H     401  ACP401      0.0513
     36 H3B2        9.6580   45.8890   94.7360 H     401  ACP401      0.0513
     37 H5'1        8.9980   46.0620   99.1150 H     401  ACP401      0.0591
     38 H5'2        7.8480   47.1310   98.8500 H     401  ACP401      0.0591
     39  H4'        7.6370   45.4080  100.6860 H     401  ACP401      0.0648
     40  H3'        6.5580   47.9290  100.3960 H     401  ACP401      0.0648
     41 HO3'        4.9740   46.8230   99.8390 H     401  ACP401      0.2100
     42  H2'        6.0100   48.2670  102.4410 H     401  ACP401      0.0693
     43 HO2'        4.7750   46.9220  103.2570 H     401  ACP401      0.2102
@<TRIPOS>UNITY_ATOM_ATTR
10 1
charge -1
@<TRIPOS>BOND
     1    32     3    1
     2    33     4    1
     3     4     1    1
     4     3     1    1
     5     1     8    1
     6     1     2    2
     7    36     8    1
     8    34     7    1
     9     7     5    1
    10     8    35    1
    11     8     5    1
    12     5     6    2
    13     5    12    1
    14    12     9    1
    15    10     9    2
    16     9    11    1
    17     9    13    1
    18    38    14    1
    19    37    14    1
    20    14    13    1
    21    14    15    1
    22    41    18    1
    23    18    17    1
    24    40    17    1
    25    39    15    1
    26    15    17    1
    27    15    16    1
    28    17    19    1
    29    16    21    1
    30    19    42    1
    31    19    21    1
    32    19    20    1
    33    23    24    1
    34    23    22    1
    35    21    22    1
    36    20    43    1
    37    24    25    2
    38    22    31    1
    39    25    31    1
    40    25    26    1
    41    31    30    2
    42    30    29    1
    43    26    27    1
    44    26    28    2
    45    29    28    1
