@<TRIPOS>MOLECULE
4i51_SAH_A_1.pdb
 26 28 0 0 0
SMALL
GASTEIGER

@<TRIPOS>ATOM
      1  N        -11.8680    2.5340  -22.8530 N.3   3001  SAH3001    -0.1208
      2  CA       -10.5430    1.9440  -22.4940 C.3   3001  SAH3001     0.1952
      3  CB        -9.5910    1.8770  -23.7000 C.3   3001  SAH3001     0.0422
      4  CG        -9.8050    0.6510  -24.6200 C.3   3001  SAH3001     0.0597
      5  SD        -9.2500   -0.8450  -23.8170 S.3   3001  SAH3001    -0.1375
      6  C         -9.9480    2.7550  -21.3720 C.2   3001  SAH3001     0.3819
      7  O         -8.8030    2.5010  -20.9520 O.co2 3001  SAH3001    -0.2441
      8  OXT      -10.6380    3.6240  -20.7940 O.co2 3001  SAH3001    -0.2441
      9  C5'      -10.6830   -1.8850  -24.0320 C.3   3001  SAH3001     0.0899
     10  C4'      -11.6990   -1.7140  -22.9060 C.3   3001  SAH3001     0.1630
     11  O4'      -12.4180   -0.4700  -23.0190 O.3   3001  SAH3001    -0.3153
     12  C3'      -12.7760   -2.7930  -22.9580 C.3   3001  SAH3001     0.2168
     13  O3'      -12.4030   -3.9920  -22.2660 O.3   3001  SAH3001    -0.2175
     14  C2'      -13.9830   -2.1080  -22.3480 C.3   3001  SAH3001     0.2569
     15  O2'      -13.8500   -2.0250  -20.9240 O.3   3001  SAH3001    -0.2130
     16  C1'      -13.8420   -0.7010  -22.9230 C.3   3001  SAH3001     0.3185
     17  N9       -14.4780   -0.7560  -24.2760 N.pl3 3001  SAH3001    -0.1439
     18  C8       -13.8450   -0.6730  -25.4670 C.3   3001  SAH3001     0.3377
     19  N7       -14.7260   -0.8000  -26.4990 N.2   3001  SAH3001    -0.2095
     20  C5       -15.9420   -1.0130  -25.9660 C.2   3001  SAH3001     0.2526
     21  C6       -17.3170   -1.1880  -26.4840 C.2   3001  SAH3001     0.4393
     22  N6       -17.5430   -1.2340  -27.8220 N.pl3 3001  SAH3001     0.2180
     23  N1       -18.3260   -1.3220  -25.5880 N.2   3001  SAH3001     0.0021
     24  C2       -18.1080   -1.3220  -24.2540 C.3   3001  SAH3001     0.5254
     25  N3       -16.8820   -1.1250  -23.7180 N.2   3001  SAH3001    -0.0055
     26  C4       -15.7820   -0.9720  -24.5030 C.2   3001  SAH3001     0.3518
@<TRIPOS>BOND
     1    22    21    1
     2    19    20    2
     3    19    18    1
     4    21    20    1
     5    21    23    2
     6    20    26    1
     7    23    24    1
     8    18    17    1
     9     4     5    1
    10     4     3    1
    11    26    17    1
    12    26    25    2
    13    17    16    1
    14    24    25    1
    15     9     5    1
    16     9    10    1
    17     3     2    1
    18    11    16    1
    19    11    10    1
    20    12    10    1
    21    12    14    1
    22    12    13    1
    23    16    14    1
    24     1     2    1
    25     2     6    1
    26    14    15    1
    27     6     7   ar
    28     6     8   ar
