@<TRIPOS>MOLECULE
4i51_III_D_1.pdb
 49 48 0 0 0
SMALL
GASTEIGER

@<TRIPOS>ATOM
      1  N         44.8640  -11.6400  -32.2100 N.3   2005  GLN2005    -0.1231
      2  CA        45.8510  -11.4580  -33.3150 C.3   2005  GLN2005     0.1694
      3  C         45.2740  -10.6430  -34.4810 C.2   2005  GLN2005     0.2593
      4  O         45.8960  -10.5340  -35.5430 O.2   2005  GLN2005    -0.2718
      5  CB        46.3730  -12.8120  -33.8070 C.3   2005  GLN2005     0.0304
      6  N         44.0800  -10.0870  -34.2840 N.am  2006  THR2006    -0.1939
      7  CA        43.5780   -9.0160  -35.1400 C.3   2006  THR2006     0.2028
      8  C         43.7730   -7.6410  -34.4790 C.2   2006  THR2006     0.2642
      9  O         43.8730   -7.5320  -33.2570 O.2   2006  THR2006    -0.2714
     10  CB        42.0820   -9.2110  -35.4970 C.3   2006  THR2006     0.1808
     11  OG1       41.3040   -9.3320  -34.3000 O.3   2006  THR2006    -0.2208
     12  CG2       41.8770  -10.4490  -36.3670 C.3   2006  THR2006     0.0379
     13  N         43.8620   -6.5990  -35.2970 N.am  2007  ALA2007    -0.1963
     14  CA        43.8750   -5.2300  -34.7940 C.3   2007  ALA2007     0.1728
     15  C         42.4860   -4.8190  -34.3110 C.2   2007  ALA2007     0.2616
     16  O         41.4970   -4.9930  -35.0280 O.2   2007  ALA2007    -0.2715
     17  CB        44.3630   -4.2780  -35.8750 C.3   2007  ALA2007     0.0334
     18  N         42.4120   -4.3020  -33.0870 N.am  2008  ARG2008    -0.1963
     19  CA        41.1860   -3.6830  -32.5750 C.3   2008  ARG2008     0.1729
     20  C         41.4670   -2.2460  -32.1430 C.2   2008  ARG2008     0.2616
     21  O         42.4490   -1.9810  -31.4390 O.2   2008  ARG2008    -0.2715
     22  CB        40.6320   -4.4600  -31.3730 C.3   2008  ARG2008     0.0348
     23  CG        41.0130   -5.9270  -31.3240 C.3   2008  ARG2008     0.0492
     24  CD        40.1610   -6.7120  -32.3020 C.3   2008  ARG2008     0.2205
     25  NE        40.3000   -8.1520  -32.1090 N.pl3 2008  ARG2008    -0.0865
     26  CZ        39.6340   -8.8370  -31.1890 C.cat 2008  ARG2008     0.5346
     27  NH1       39.7750  -10.1510  -31.1070 N.pl3 2008  ARG2008     0.1354
     28  NH2       38.8080   -8.2030  -30.3650 N.pl3 2008  ARG2008     0.1354
     29  N         40.5890   -1.3300  -32.5420 N.am  2009  LYS2009    -0.1963
     30  CA        40.6120    0.0320  -32.0120 C.3   2009  LYS2009     0.1728
     31  CB        39.7080    0.9370  -32.8670 C.3   2009  LYS2009     0.0311
     32  CG        40.1970    1.0300  -34.3310 C.3   2009  LYS2009     0.0038
     33  CD        39.0770    1.5570  -35.2580 C.3   2009  LYS2009     0.0189
     34  CE        39.3530    1.2650  -36.7450 C.3   2009  LYS2009     0.0887
     35  NZ        40.6100    1.9020  -37.1790 N.3   2009  LYS2009    -0.2181
     36  CH        40.3810    3.1260  -37.9720 C.3   2009  LYS2009     0.0887
     37  C1        41.4420    4.1920  -37.6460 C.3   2009  LYS2009     0.0203
     38  C         40.1420    0.0070  -30.5340 C.2   2009  LYS2009     0.2616
     39  O         39.4030   -0.9020  -30.1160 O.2   2009  LYS2009    -0.2715
     40  N         40.6180    0.9770  -29.7540 N.am  2010  SER2010    -0.1963
     41  CA        40.4120    0.9940  -28.3040 C.3   2010  SER2010     0.1728
     42  C         39.7950    2.3260  -27.8670 C.2   2010  SER2010     0.2616
     43  O         40.2120    3.3910  -28.3420 O.2   2010  SER2010    -0.2715
     44  CB        41.7450    0.7830  -27.5820 C.3   2010  SER2010     0.0334
     45  N         38.8120    2.2630  -26.9630 N.am  2011  THR2011    -0.1977
     46  CA        38.1790    3.4630  -26.4020 C.3   2011  THR2011     0.1597
     47  C         39.0110    4.1070  -25.2970 C.2   2011  THR2011     0.2287
     48  O         39.5350    3.4200  -24.4180 O.2   2011  THR2011    -0.2864
     49  CB        36.7500    3.1820  -25.8730 C.3   2011  THR2011     0.0319
@<TRIPOS>BOND
     1    36    37    1
     2    36    35    1
     3    35    34    1
     4    34    33    1
     5    12    10    1
     6    17    14    1
     7     4     3    2
     8    10     7    1
     9    10    11    1
    10    13    14    1
    11    13     8   am
    12    33    32    1
    13     7     8    1
    14     7     6    1
    15    16    15    2
    16    14    15    1
    17     3     6   am
    18     3     2    1
    19     8     9    2
    20    32    31    1
    21    15    18   am
    22     5     2    1
    23     2     1    1
    24    18    19    1
    25    31    30    1
    26    19    20    1
    27    19    22    1
    28    29    20   am
    29    29    30    1
    30    24    25    1
    31    24    23    1
    32    20    21    2
    33    25    26    2
    34    30    38    1
    35    22    23    1
    36    26    27    1
    37    26    28    1
    38    38    39    2
    39    38    40   am
    40    40    41    1
    41    43    42    2
    42    41    42    1
    43    41    44    1
    44    42    45   am
    45    45    46    1
    46    46    49    1
    47    46    47    1
    48    47    48    2
