@<TRIPOS>MOLECULE
4i55_ACP_F_1.pdb
 48 50 0 0 0
SMALL
GASTEIGER

@<TRIPOS>ATOM
      1  PG         8.5140   48.5670   94.0090 P.3   703  ACP703      0.3394
      2  O1G        7.5980   49.1460   95.0560 O.2   703  ACP703     -0.2582
      3  O2G        9.2650   49.7430   93.2330 O.3   703  ACP703     -0.3236
      4  O3G        7.6300   47.7140   92.9710 O.3   703  ACP703     -0.3236
      5  PB        10.9660   48.3270   95.9510 P.3   703  ACP703      0.3472
      6  O1B       11.7950   47.2120   96.6250 O.2   703  ACP703     -0.2577
      7  O2B       11.8820   49.4080   95.2450 O.3   703  ACP703     -0.3233
      8  C3B        9.8180   47.4840   94.7930 C.3   703  ACP703      0.1510
      9  PA        10.7250   49.5320   98.4240 P.3   703  ACP703      0.2201
     10  O1A       10.2030   50.9290   98.8440 O.3   703  ACP703     -0.4371
     11  O2A       12.2380   49.5760   98.3990 O.2   703  ACP703     -0.5170
     12  O3A       10.1280   49.1470   97.0130 O.3   703  ACP703     -0.2502
     13  O5'       10.2260   48.4770   99.4740 O.3   703  ACP703     -0.3245
     14  C5'        9.0550   48.7500  100.0970 C.3   703  ACP703      0.0836
     15  C4'        8.5820   47.8680  101.2950 C.3   703  ACP703      0.1131
     16  O4'        9.2350   48.2760  102.4790 O.3   703  ACP703     -0.3474
     17  C3'        7.1330   48.1260  101.4810 C.3   703  ACP703      0.1133
     18  O3'        6.4150   47.0450  101.0400 O.3   703  ACP703     -0.3864
     19  C2'        6.9340   48.3560  102.8950 C.3   703  ACP703      0.1266
     20  O2'        6.3790   47.2280  103.4910 O.3   703  ACP703     -0.3849
     21  C1'        8.2710   48.6130  103.4630 C.3   703  ACP703      0.1617
     22  N9         8.8370   49.9030  103.7220 N.pl3 703  ACP703     -0.2234
     23  C8         9.6560   50.5910  102.9130 C.2   703  ACP703      0.1451
     24  N7         9.9710   51.7620  103.4890 N.2   703  ACP703     -0.3871
     25  C5         9.3370   51.8190  104.6720 C.2   703  ACP703      0.2211
     26  C6         9.2900   52.7850  105.6820 C.2   703  ACP703      0.2227
     27  N6        10.0430   54.0460  105.5490 N.pl3 703  ACP703     -0.3300
     28  N1         8.5490   52.5470  106.7740 N.2   703  ACP703     -0.3296
     29  C2         7.8640   51.4020  106.8910 C.1   703  ACP703      0.0930
     30  N3         7.8840   50.4540  105.9360 N.2   703  ACP703     -0.3287
     31  C4         8.6130   50.6380  104.8270 C.2   703  ACP703      0.2354
     32 HOG2        9.1360   49.6450   92.3300 H     703  ACP703      0.2198
     33 HOG3        6.9050   48.1880   92.7330 H     703  ACP703      0.2198
     34 HOB2       12.6140   49.0320   94.9720 H     703  ACP703      0.2198
     35 H3B1        9.3810   46.7600   95.2540 H     703  ACP703      0.0513
     36 H3B2       10.3470   47.1170   94.0940 H     703  ACP703      0.0513
     37 H5'1        8.3390   48.7220   99.3930 H     703  ACP703      0.0591
     38 H5'2        9.1170   49.6710  100.4260 H     703  ACP703      0.0591
     39  H4'        8.7500   46.8670  101.1200 H     703  ACP703      0.0647
     40  H3'        6.8710   48.9100  100.9710 H     703  ACP703      0.0647
     41 HO3'        5.9670   47.2680  100.2690 H     703  ACP703      0.2100
     42  H2'        6.3420   49.1280  103.0530 H     703  ACP703      0.0663
     43 HO2'        5.7330   47.4580  103.9840 H     703  ACP703      0.2101
     44  H1'        8.3970   48.0200  104.2730 H     703  ACP703      0.0841
     45  H8         9.9860   50.2800  102.0300 H     703  ACP703      0.1149
     46 HN61       10.5040   54.2170  104.7970 H     703  ACP703      0.1448
     47 HN62       10.0400   54.6530  106.2330 H     703  ACP703      0.1448
     48  H2         7.3310   51.2530  107.6930 H     703  ACP703      0.1751
@<TRIPOS>UNITY_ATOM_ATTR
10 1
charge 1
@<TRIPOS>BOND
     1    32     3    1
     2    33     4    1
     3     4     1    1
     4     3     1    1
     5     1     8    1
     6     1     2    2
     7    36     8    1
     8     8    35    1
     9     8     5    1
    10    34     7    1
    11     7     5    1
    12     5     6    2
    13     5    12    1
    14    12     9    1
    15    11     9    2
    16     9    10    1
    17     9    13    1
    18    37    14    1
    19    13    14    1
    20    14    38    1
    21    14    15    1
    22    41    18    1
    23    40    17    1
    24    18    17    1
    25    39    15    1
    26    15    17    1
    27    15    16    1
    28    17    19    1
    29    45    23    1
    30    16    21    1
    31    19    42    1
    32    19    21    1
    33    19    20    1
    34    23    24    2
    35    23    22    1
    36    21    22    1
    37    21    44    1
    38    24    25    2
    39    20    43    1
    40    22    31    1
    41    25    31    1
    42    25    26    1
    43    46    27    1
    44    31    30    2
    45    27    26    1
    46    27    47    1
    47    26    28    2
    48    30    29    2
    49    28    29    2
    50    29    48    1
