@<TRIPOS>MOLECULE
4i55_GDP_B_1.pdb
 38 40 0 0 0
SMALL
GASTEIGER

@<TRIPOS>ATOM
      1  PB        18.8020   48.8770   16.0340 P.3   501  GDP501      0.5373
      2  O1B       19.3070   49.6230   17.2760 O.3   501  GDP501     -0.1143
      3  O2B       18.4830   49.8650   14.9350 O.2   501  GDP501     -0.2221
      4  O3B       19.8810   47.9210   15.5820 O.3   501  GDP501     -0.1143
      5  O3A       17.5430   47.9830   16.4250 O.3   501  GDP501     -0.2261
      6  PA        16.2330   48.4750   17.2210 P.3   501  GDP501      0.2230
      7  O1A       15.0850   48.3940   16.2690 O.2   501  GDP501     -0.5169
      8  O2A       16.3660   49.8860   17.7470 O.3   501  GDP501     -0.4370
      9  O5'       16.1700   47.3670   18.3570 O.3   501  GDP501     -0.3116
     10  C5'       15.0800   46.4630   18.4810 C.3   501  GDP501      0.1742
     11  C4'       14.4850   46.6230   19.8740 C.3   501  GDP501      0.1246
     12  O4'       13.9390   47.9360   20.0820 O.3   501  GDP501     -0.3466
     13  C3'       13.3130   45.7040   20.0580 C.3   501  GDP501      0.1141
     14  O3'       13.2770   45.3780   21.4350 O.3   501  GDP501     -0.3864
     15  C2'       12.0810   46.4990   19.6970 C.3   501  GDP501      0.1266
     16  O2'       10.9590   46.0810   20.4750 O.3   501  GDP501     -0.3849
     17  C1'       12.5040   47.8720   20.1240 C.3   501  GDP501      0.1617
     18  N9        12.0670   48.9830   19.2850 N.pl3 501  GDP501     -0.2241
     19  C8        12.3620   49.2230   18.0050 C.2   501  GDP501      0.1451
     20  N7        11.8330   50.4080   17.6270 N.2   501  GDP501     -0.3865
     21  C5        11.2260   50.9380   18.6970 C.2   501  GDP501      0.2296
     22  C6        10.4670   52.1660   19.0070 C.2   501  GDP501      0.2859
     23  O6        10.2500   53.0490   18.1640 O.2   501  GDP501     -0.2668
     24  N1        10.0220   52.3130   20.2440 N.am  501  GDP501     -0.2418
     25  C2        10.1920   51.4080   21.2160 C.2   501  GDP501      0.2395
     26  N2         9.6620   51.6910   22.4430 N.pl3 501  GDP501     -0.3206
     27  N3        10.8770   50.2500   21.0140 N.2   501  GDP501     -0.3551
     28  C4        11.3970   49.9910   19.7940 C.2   501  GDP501      0.2272
     29  H4'       15.2510   46.3970   20.6290 H     501  GDP501      0.0655
     30  H3'       13.4080   44.8130   19.4230 H     501  GDP501      0.0648
     31 HO3'       12.5350   44.7820   21.6060 H     501  GDP501      0.2100
     32  H2'       11.8860   46.4610   18.6160 H     501  GDP501      0.0663
     33 HO2'       10.7250   45.1730   20.2410 H     501  GDP501      0.2101
     34  H1'       12.1610   48.0350   21.1550 H     501  GDP501      0.0841
     35  H8        12.9260   48.5600   17.3610 H     501  GDP501      0.1149
     36  HN1        9.4710   53.1670   20.4650 H     501  GDP501      0.1589
     37 HN21        9.1550   52.5530   22.5880 H     501  GDP501      0.1459
     38 HN22        9.7860   51.0440   23.2090 H     501  GDP501      0.1459
@<TRIPOS>BOND
     1     3     1    2
     2     4     1    1
     3     1     5    1
     4     1     2    1
     5     7     6    2
     6     5     6    1
     7     6     8    1
     8     6     9    1
     9    35    19    1
    10    20    19    2
    11    20    21    2
    12    19    18    1
    13    23    22    2
    14     9    10    1
    15    10    11    1
    16    32    15    1
    17    21    22    1
    18    21    28    1
    19    22    24   am
    20    18    28    1
    21    18    17    1
    22    30    13    1
    23    15    13    1
    24    15    17    1
    25    15    16    1
    26    28    27    2
    27    11    13    1
    28    11    12    1
    29    11    29    1
    30    13    14    1
    31    12    17    1
    32    17    34    1
    33    33    16    1
    34    24    36    1
    35    24    25    1
    36    27    25    2
    37    25    26    1
    38    14    31    1
    39    26    37    1
    40    26    38    1
