@<TRIPOS>MOLECULE
4i55_GTP_A_1.pdb
 42 44 0 0 0
SMALL
GASTEIGER

@<TRIPOS>ATOM
      1  PG        27.0870   72.9440   46.1710 P.3   501  GTP501      0.5373
      2  O1G       25.8860   73.4860   45.4210 O.3   501  GTP501     -0.1143
      3  O2G       28.3200   73.3700   45.4050 O.2   501  GTP501     -0.2221
      4  O3G       27.0090   71.4720   46.4030 O.3   501  GTP501     -0.1143
      5  O3B       27.2260   73.5920   47.6510 O.3   501  GTP501     -0.2258
      6  PB        26.3770   74.8480   48.2190 P.3   501  GTP501      0.2277
      7  O1B       26.0640   75.8980   47.2040 O.2   501  GTP501     -0.5168
      8  O2B       27.1360   75.4430   49.3940 O.3   501  GTP501     -0.4368
      9  O3A       25.0350   74.1380   48.7180 O.3   501  GTP501     -0.2700
     10  PA        23.8440   74.8510   49.5240 P.3   501  GTP501      0.2189
     11  O1A       22.6580   75.0760   48.6540 O.2   501  GTP501     -0.5170
     12  O2A       24.2720   76.1320   50.2170 O.3   501  GTP501     -0.4371
     13  O5'       23.5310   73.6550   50.5400 O.3   501  GTP501     -0.3116
     14  C5'       22.2670   73.0620   50.6130 C.3   501  GTP501      0.1742
     15  C4'       21.7830   73.1810   52.0480 C.3   501  GTP501      0.1246
     16  O4'       21.6530   74.5590   52.3890 O.3   501  GTP501     -0.3466
     17  C3'       20.3970   72.5820   52.2060 C.3   501  GTP501      0.1141
     18  O3'       20.2560   72.1590   53.5370 O.3   501  GTP501     -0.3864
     19  C2'       19.4930   73.7660   51.9020 C.3   501  GTP501      0.1266
     20  O2'       18.2250   73.6980   52.4860 O.3   501  GTP501     -0.3849
     21  C1'       20.2800   74.8950   52.5040 C.3   501  GTP501      0.1617
     22  N9        20.1060   76.1470   51.7880 N.pl3 501  GTP501     -0.2241
     23  C8        20.4480   76.4510   50.4990 C.2   501  GTP501      0.1451
     24  N7        20.1480   77.7580   50.2810 N.2   501  GTP501     -0.3865
     25  C5        19.6280   78.2860   51.4300 C.2   501  GTP501      0.2296
     26  C6        19.1650   79.5600   51.7880 C.2   501  GTP501      0.2859
     27  O6        19.1450   80.5190   51.0050 O.2   501  GTP501     -0.2668
     28  N1        18.7070   79.7570   53.0550 N.am  501  GTP501     -0.2418
     29  C2        18.6740   78.7250   53.9640 C.2   501  GTP501      0.2395
     30  N2        18.2110   78.9650   55.1790 N.pl3 501  GTP501     -0.3206
     31  N3        19.1390   77.4720   53.6290 N.2   501  GTP501     -0.3551
     32  C4        19.6050   77.2710   52.3780 C.2   501  GTP501      0.2272
     33  H4'       22.4810   72.6780   52.7180 H     501  GTP501      0.0655
     34  H3'       20.2370   71.7740   51.4930 H     501  GTP501      0.0648
     35 HO3'       19.5970   72.7240   53.9910 H     501  GTP501      0.2100
     36  H2'       19.4190   73.9060   50.8240 H     501  GTP501      0.0663
     37 HO2'       18.1360   74.4060   53.1590 H     501  GTP501      0.2101
     38  H1'       20.0030   75.0120   53.5510 H     501  GTP501      0.0841
     39  H8        20.8840   75.7650   49.7740 H     501  GTP501      0.1149
     40  HN1       18.3780   80.7010   53.3400 H     501  GTP501      0.1589
     41 HN21       18.1960   78.2240   55.8720 H     501  GTP501      0.1459
     42 HN22       17.8740   79.8920   55.4200 H     501  GTP501      0.1459
@<TRIPOS>BOND
     1     3     1    2
     2     2     1    1
     3     1     4    1
     4     1     5    1
     5     7     6    2
     6     5     6    1
     7     6     9    1
     8     6     8    1
     9    11    10    2
    10     9    10    1
    11    10    12    1
    12    10    13    1
    13    39    23    1
    14    24    23    2
    15    24    25    2
    16    23    22    1
    17    13    14    1
    18    14    15    1
    19    36    19    1
    20    27    26    2
    21    25    26    1
    22    25    32    1
    23    34    17    1
    24    26    28   am
    25    22    32    1
    26    22    21    1
    27    19    17    1
    28    19    20    1
    29    19    21    1
    30    15    17    1
    31    15    16    1
    32    15    33    1
    33    17    18    1
    34    32    31    2
    35    16    21    1
    36    20    37    1
    37    21    38    1
    38    28    40    1
    39    28    29    1
    40    18    35    1
    41    31    29    2
    42    29    30    1
    43    30    42    1
    44    30    41    1
