@<TRIPOS>MOLECULE
4i5i_NAD_A_1.pdb
 44 48 0 0 0
SMALL
GASTEIGER

@<TRIPOS>ATOM
      1  PA        50.0800  -27.1010   20.3500 P.3   602  NAD602      0.2189
      2  O1A       50.2850  -26.9690   18.8570 O.2   602  NAD602     -0.5170
      3  O2A       50.9780  -26.3480   21.2990 O.3   602  NAD602     -0.4371
      4  O5B       50.1670  -28.6450   20.7620 O.3   602  NAD602     -0.3112
      5  C5B       49.3470  -29.6160   20.1190 C.3   602  NAD602      0.1813
      6  C4B       49.8110  -30.9790   20.6090 C.3   602  NAD602      0.1821
      7  O4B       48.9900  -32.0060   20.0550 O.3   602  NAD602     -0.3135
      8  C3B       51.2340  -31.2810   20.1860 C.3   602  NAD602      0.2184
      9  O3B       51.8600  -31.9570   21.2790 O.3   602  NAD602     -0.2174
     10  C2B       51.0830  -32.2110   19.0020 C.3   602  NAD602      0.2570
     11  O2B       52.1830  -33.1160   18.8940 O.3   602  NAD602     -0.2130
     12  C1B       49.7920  -32.9420   19.3330 C.3   602  NAD602      0.3186
     13  N9A       49.0010  -33.3920   18.1660 N.pl3 602  NAD602     -0.1439
     14  C8A       48.7710  -32.7340   17.0130 C.3   602  NAD602      0.3377
     15  N7A       47.9730  -33.4700   16.1960 N.2   602  NAD602     -0.2095
     16  C5A       47.6800  -34.6160   16.8390 C.2   602  NAD602      0.2526
     17  C6A       46.8930  -35.8400   16.5610 C.2   602  NAD602      0.4393
     18  N6A       46.2380  -35.9860   15.3880 N.pl3 602  NAD602      0.2180
     19  N1A       46.8530  -36.8010   17.5170 N.2   602  NAD602      0.0021
     20  C2A       47.5040  -36.6730   18.6910 C.3   602  NAD602      0.5254
     21  N3A       48.2350  -35.5910   19.0090 N.2   602  NAD602     -0.0055
     22  C4A       48.3570  -34.5550   18.1420 C.2   602  NAD602      0.3518
     23  O3        48.5300  -26.7940   20.6420 O.3   602  NAD602     -0.2703
     24  PN        47.9770  -26.3790   22.0930 P.3   602  NAD602      0.2189
     25  O1N       48.6400  -27.2250   23.1510 O.3   602  NAD602     -0.4371
     26  O2N       46.4710  -26.3230   22.0070 O.2   602  NAD602     -0.5170
     27  O5D       48.5280  -24.8810   22.1760 O.3   602  NAD602     -0.3112
     28  C5D       48.4130  -24.1710   23.3960 C.3   602  NAD602      0.1813
     29  C4D       47.8240  -22.7860   23.1770 C.3   602  NAD602      0.1799
     30  O4D       48.6750  -21.8010   22.5640 O.3   602  NAD602     -0.3327
     31  C3D       46.5480  -22.7130   22.3480 C.3   602  NAD602      0.2158
     32  O3D       45.4020  -23.1510   23.0790 O.3   602  NAD602     -0.2175
     33  C2D       46.4530  -21.2270   22.1370 C.3   602  NAD602      0.2309
     34  O2D       45.4580  -20.7100   23.0080 O.3   602  NAD602     -0.2158
     35  C1D       47.7520  -20.7200   22.7190 C.3   602  NAD602      0.2263
     36  N1N       48.0150  -19.3340   22.3200 N.pl3 602  NAD602     -0.2787
     37  C2N       49.0410  -18.8910   21.5610 C.3   602  NAD602      0.1244
     38  C3N       49.1140  -17.5060   21.3070 C.2   602  NAD602      0.0544
     39  C7N       50.1830  -16.8530   20.4850 C.2   602  NAD602      0.2818
     40  O7N       50.9550  -17.5210   19.8240 O.2   602  NAD602     -0.2670
     41  N7N       50.2510  -15.5230   20.5140 N.am  602  NAD602     -0.0839
     42  C4N       48.1630  -16.6420   21.8340 C.2   602  NAD602      0.0033
     43  C5N       47.1270  -17.1280   22.5990 C.2   602  NAD602      0.0157
     44  C6N       47.0990  -18.4890   22.8290 C.2   602  NAD602      0.0633
@<TRIPOS>BOND
     1    18    17    1
     2    15    16    2
     3    15    14    1
     4    17    16    1
     5    17    19    2
     6    16    22    1
     7    14    13    1
     8    19    20    1
     9    22    13    1
    10    22    21    2
    11    13    12    1
    12    20    21    1
    13     2     1    2
    14    11    10    1
    15    10    12    1
    16    10     8    1
    17    12     7    1
    18    40    39    2
    19     7     6    1
    20     5     6    1
    21     5     4    1
    22     8     6    1
    23     8     9    1
    24     1    23    1
    25     1     4    1
    26     1     3    1
    27    39    41   am
    28    39    38    1
    29    23    24    1
    30    38    37    1
    31    38    42    2
    32    37    36    1
    33    42    43    1
    34    26    24    2
    35    24    27    1
    36    24    25    1
    37    33    31    1
    38    33    35    1
    39    33    34    1
    40    27    28    1
    41    36    35    1
    42    36    44    1
    43    31    32    1
    44    31    29    1
    45    30    35    1
    46    30    29    1
    47    43    44    2
    48    29    28    1
