@<TRIPOS>MOLECULE
4i5i_4I5_A_1.pdb
 18 20 0 0 0
SMALL
GASTEIGER

@<TRIPOS>ATOM
      1  C1        43.4360  -18.1020   20.3290 C.ar  601  4I5601      0.0578
      2  N1        41.3800  -25.4960   17.2130 N.am  601  4I5601     -0.0874
      3  O1        40.4510  -23.5980   17.9670 O.2   601  4I5601     -0.2712
      4 CL1        43.5880  -16.3910   20.4250 Cl    601  4I5601     -0.0822
      5  C2        43.4170  -18.8450   21.5100 C.ar  601  4I5601      0.0140
      6  N2        43.0960  -22.1750   19.8940 N.2   601  4I5601     -0.4061
      7  C3        43.2940  -20.2390   21.4720 C.ar  601  4I5601      0.0329
      8  C4        43.2140  -20.8490   20.2140 C.ar  601  4I5601      0.1308
      9  C5        43.2270  -20.1370   19.0090 C.ar  601  4I5601      0.0286
     10  C6        43.3410  -18.7260   19.0740 C.ar  601  4I5601      0.0137
     11  C7        43.1140  -21.0920   17.9420 C.2   601  4I5601      0.0062
     12  C8        43.0250  -22.3480   18.5370 C.2   601  4I5601      0.1134
     13  C9        42.9150  -23.7320   17.9710 C.3   601  4I5601      0.1316
     14  C10       43.8310  -23.9620   16.7540 C.3   601  4I5601      0.0163
     15  C11       43.5250  -23.1160   15.5060 C.3   601  4I5601      0.0013
     16  C12       43.9590  -21.6480   15.5800 C.3   601  4I5601      0.0048
     17  C13       43.0780  -20.7710   16.4740 C.3   601  4I5601      0.0287
     18  C14       41.4760  -24.2310   17.7270 C.2   601  4I5601      0.2670
@<TRIPOS>BOND
     1    15    16    1
     2    15    14    1
     3    16    17    1
     4    17    11    1
     5    14    13    1
     6     2    18   am
     7    18     3    2
     8    18    13    1
     9    11    12    1
    10    11     9    2
    11    13    12    1
    12    12     6    2
    13     9    10   ar
    14     9     8   ar
    15    10     1   ar
    16     6     8    2
    17     8     7   ar
    18     1     4    1
    19     1     5   ar
    20     7     5   ar
