@<TRIPOS>MOLECULE
4i62_ARG_A_1.pdb
 12 11 0 0 0
SMALL
GASTEIGER

@<TRIPOS>ATOM
      1  N         18.7190   24.8340   27.8140 N.3   301  ARG301     -0.1208
      2  CA        20.1680   24.6110   28.0590 C.3   301  ARG301      0.1944
      3  C         20.4320   23.2110   28.6070 C.2   301  ARG301      0.3819
      4  O         19.4930   22.5700   29.1240 O.co2 301  ARG301     -0.2441
      5  CB        20.7490   25.7030   28.9370 C.3   301  ARG301      0.0343
      6  CG        20.0160   25.8660   30.2710 C.3   301  ARG301      0.0490
      7  CD        20.7810   26.7490   31.2350 C.3   301  ARG301      0.2205
      8  NE        19.9270   27.1240   32.3470 N.pl3 301  ARG301     -0.0865
      9  CZ        20.2980   27.8610   33.3740 C.cat 301  ARG301      0.5346
     10  NH1       19.4290   28.1290   34.3430 N.pl3 301  ARG301      0.1354
     11  NH2       21.5440   28.3260   33.4430 N.pl3 301  ARG301      0.1354
     12  OXT       21.6330   22.7860   28.5490 O.co2 301  ARG301     -0.2441
@<TRIPOS>BOND
     1     1     2    1
     2     2     3    1
     3     2     5    1
     4    12     3   ar
     5     3     4   ar
     6     5     6    1
     7     6     7    1
     8     7     8    1
     9     8     9    2
    10     9    11    1
    11     9    10    1
