@<TRIPOS>MOLECULE
4i6k_CIT_A_1.pdb
 13 12 0 0 0
SMALL
GASTEIGER

@<TRIPOS>ATOM
      1  C1        27.9940   -0.7190    2.1720 C.2   301  CIT301      0.3680
      2  O1        27.3720   -1.7480    1.8110 O.co2 301  CIT301     -0.2455
      3  O2        28.1670    0.2200    1.3680 O.co2 301  CIT301     -0.2455
      4  C2        28.5060   -0.5720    3.5800 C.3   301  CIT301      0.1560
      5  C3        27.3090   -0.2040    4.4430 C.3   301  CIT301      0.2402
      6  O7        26.4750   -1.3950    4.5180 O.3   301  CIT301     -0.2129
      7  C4        27.7830    0.1280    5.8310 C.3   301  CIT301      0.1560
      8  C5        28.4440   -1.1600    6.2140 C.2   301  CIT301      0.3680
      9  O3        27.7560   -2.1980    6.3850 O.co2 301  CIT301     -0.2455
     10  O4        29.6850   -1.1790    6.3290 O.co2 301  CIT301     -0.2455
     11  C6        26.5140    0.9690    3.8710 C.2   301  CIT301      0.3927
     12  O5        26.9410    2.1510    3.9120 O.co2 301  CIT301     -0.2429
     13  O6        25.3910    0.7450    3.3570 O.co2 301  CIT301     -0.2429
@<TRIPOS>BOND
     1     3     1   ar
     2     2     1   ar
     3     1     4    1
     4    13    11   ar
     5     4     5    1
     6    11    12   ar
     7    11     5    1
     8     5     6    1
     9     5     7    1
    10     7     8    1
    11     8    10   ar
    12     8     9   ar
