@<TRIPOS>MOLECULE
4i78_FUC_A_1.pdb
 10 10 0 0 0
SMALL
GASTEIGER

@<TRIPOS>ATOM
      1  C1        16.5460  -26.0740  -62.4450 C.3   402  FUC402      0.1776
      2  C2        15.2130  -25.7200  -61.7630 C.3   402  FUC402      0.2141
      3  C3        15.5110  -24.9720  -60.4610 C.3   402  FUC402      0.2172
      4  C4        16.4180  -23.7610  -60.7280 C.3   402  FUC402      0.2116
      5  C5        17.6820  -24.1650  -61.5240 C.3   402  FUC402      0.1483
      6  C6        18.6040  -23.0010  -61.9250 C.3   402  FUC402      0.0349
      7  O2        14.4240  -26.8760  -61.5240 O.3   402  FUC402     -0.2176
      8  O3        14.3450  -24.5980  -59.7620 O.3   402  FUC402     -0.2175
      9  O4        15.7030  -22.7340  -61.3710 O.3   402  FUC402     -0.2177
     10  O5        17.3580  -24.9350  -62.6760 O.3   402  FUC402     -0.3508
@<TRIPOS>BOND
     1    10     1    1
     2    10     5    1
     3     1     2    1
     4     6     5    1
     5     2     7    1
     6     2     3    1
     7     5     4    1
     8     9     4    1
     9     4     3    1
    10     3     8    1
