@<TRIPOS>MOLECULE
4i7f_NVE_A_1.pdb
 37 40 0 0 0
SMALL
GASTEIGER

@<TRIPOS>ATOM
      1  C1        12.5980   12.0990   15.1900 C.3   601  NVE601      0.0237
      2  C2        12.5710   13.3150   16.1420 C.3   601  NVE601      0.0984
      3  N3        11.2480   13.8000   16.6510 N.pl3 601  NVE601     -0.2567
      4  C4        11.1920   14.8250   17.6520 C.ar  601  NVE601      0.1502
      5  C5        10.4640   14.6860   18.9080 C.ar  601  NVE601      0.0863
      6  N6         9.7490   13.4950   19.2660 N.am  601  NVE601     -0.2508
      7  C7         9.7630   13.1390   20.7370 C.3   601  NVE601      0.1204
      8  C8         9.0540   12.6430   18.4350 C.2   601  NVE601      0.2556
      9  O9         8.4840   11.6380   18.9060 O.2   601  NVE601     -0.2695
     10  C10        8.9230   12.8420   16.9860 C.ar  601  NVE601      0.0855
     11  C11        7.6870   12.4980   16.3620 C.ar  601  NVE601      0.0046
     12  C12        7.4930   12.6920   14.9240 C.ar  601  NVE601     -0.0025
     13  C13        8.5450   13.2210   14.1460 C.ar  601  NVE601      0.0960
     14  N14        9.7130   13.5440   14.7590 N.ar  601  NVE601     -0.2290
     15  C15        9.9690   13.3900   16.1360 C.ar  601  NVE601      0.1408
     16  C16       10.4770   15.8210   19.8170 C.ar  601  NVE601      0.0194
     17  C17       11.1710   17.0200   19.5100 C.ar  601  NVE601      0.0221
     18  C18       11.8800   17.1010   18.2630 C.ar  601  NVE601      0.1004
     19  N19       11.8660   16.0190   17.3850 N.ar  601  NVE601     -0.2275
     20  C20        6.2420    2.5690   11.6860 C.3   601  NVE601      0.0352
     21  C21        6.0890    3.3960   12.9980 C.3   601  NVE601      0.1515
     22  O22        6.4130    2.5900   14.2150 O.3   601  NVE601     -0.2917
     23  P23        7.4430    3.3090   15.3020 P.3   601  NVE601      0.3870
     24  C24        6.6950    4.9040   15.6710 C.3   601  NVE601      0.3201
     25  O25        7.2870    5.8700   14.8150 O.3   601  NVE601     -0.4630
     26  C26        6.8070    7.1600   14.9080 C.ar  601  NVE601      0.1394
     27  C27        6.7980    7.9060   13.6720 C.ar  601  NVE601      0.0366
     28  C28        6.3200    9.2420   13.6360 C.ar  601  NVE601     -0.0011
     29  C29        5.8230    9.8840   14.8690 C.ar  601  NVE601     -0.0217
     30  C30        5.8240    9.1470   16.1280 C.ar  601  NVE601     -0.0011
     31  C31        6.3120    7.7860   16.1650 C.ar  601  NVE601      0.0366
     32  C32        5.2960   11.3350   14.8730 C.3   601  NVE601      0.0311
     33  C33        6.1600   12.3720   14.0910 C.3   601  NVE601      0.0326
     34  O34        8.9320    3.4580   14.6400 O.3   601  NVE601     -0.2917
     35  C35        9.4530    2.1700   14.0550 C.3   601  NVE601      0.1515
     36  C36       10.1510    1.2270   15.0600 C.3   601  NVE601      0.0352
     37  O37        7.5040    2.5850   16.6190 O.2   601  NVE601     -0.2539
@<TRIPOS>BOND
     1    20    21    1
     2    21    22    1
     3    28    27   ar
     4    28    29   ar
     5    27    26   ar
     6    35    34    1
     7    35    36    1
     8    33    32    1
     9    33    12    1
    10    13    14   ar
    11    13    12   ar
    12    22    23    1
    13    34    23    1
    14    14    15   ar
    15    25    26    1
    16    25    24    1
    17    29    32    1
    18    29    30   ar
    19    26    31   ar
    20    12    11   ar
    21     1     2    1
    22    23    24    1
    23    23    37    2
    24    30    31   ar
    25    15     3    1
    26    15    10   ar
    27     2     3    1
    28    11    10   ar
    29     3     4    1
    30    10     8    1
    31    19     4   ar
    32    19    18   ar
    33     4     5   ar
    34    18    17   ar
    35     8     9    2
    36     8     6   am
    37     5     6    1
    38     5    16   ar
    39     6     7    1
    40    17    16   ar
