@<TRIPOS>MOLECULE
4i7g_T27_A_1.pdb
 28 30 0 0 0
SMALL
GASTEIGER

@<TRIPOS>ATOM
      1  C1        51.2000  -26.7070   38.2060 C.ar  607  T27607     -0.0068
      2  N2        52.4460  -25.5820   33.0330 N.2   607  T27607     -0.1683
      3  C3        49.0410  -27.0550   39.1780 C.ar  607  T27607      0.0001
      4  C4        48.6370  -25.8120   38.7220 C.ar  607  T27607     -0.0030
      5  C5        49.5190  -25.0140   38.0090 C.ar  607  T27607     -0.0068
      6  C6        50.8020  -25.4640   37.7500 C.ar  607  T27607      0.0651
      7  C7        52.5680  -27.2180   37.9460 C.3   607  T27607      0.0324
      8  C2        50.3180  -27.4910   38.9140 C.ar  607  T27607     -0.0030
      9  C8        49.0750  -23.6780   37.5220 C.3   607  T27607      0.0324
     10  N1        51.7320  -24.6690   37.0210 N.pl3 607  T27607     -0.1834
     11  C9        52.9730  -24.4480   33.5010 C.2   607  T27607      0.1158
     12  C10       52.7450  -24.1260   34.8350 C.2   607  T27607      0.0720
     13  C11       51.9930  -24.9660   35.6490 C.2   607  T27607      0.2178
     14  N3        51.5010  -26.0910   35.1070 N.2   607  T27607     -0.3189
     15  C12       51.7370  -26.3720   33.8320 C.1   607  T27607      0.1709
     16  N4        51.2250  -27.5500   33.2190 N.pl3 607  T27607     -0.1357
     17  C13       49.2110  -30.8470   34.8680 C.ar  607  T27607      0.0685
     18  C14       49.4110  -29.7400   35.6690 C.ar  607  T27607      0.0116
     19  C15       50.0700  -28.6290   35.1730 C.ar  607  T27607      0.0180
     20  C16       50.5400  -28.6200   33.8710 C.ar  607  T27607      0.0826
     21  C17       50.3240  -29.7310   33.0840 C.ar  607  T27607      0.0180
     22  C18       49.6680  -30.8330   33.5770 C.ar  607  T27607      0.0116
     23  N5        47.9850  -32.9940   35.7180 N.1   607  T27607     -0.1908
     24  C19       48.5150  -32.0620   35.3640 C.1   607  T27607      0.1004
     25  C20       46.9700  -27.5590   40.4640 C.2   607  T27607      0.0780
     26  C21       48.1470  -27.9720   39.9440 C.2   607  T27607      0.0109
     27  N6        45.6250  -29.1760   42.0300 N.1   607  T27607     -0.1908
     28  C22       46.2150  -28.4860   41.3510 C.1   607  T27607      0.1011
@<TRIPOS>BOND
     1     2    11    1
     2     2    15    2
     3    21    22   ar
     4    21    20   ar
     5    16    15    1
     6    16    20    1
     7    11    12    2
     8    22    17   ar
     9    15    14    2
    10    20    19   ar
    11    12    13    1
    12    17    24    1
    13    17    18   ar
    14    14    13    2
    15    19    18   ar
    16    24    23    3
    17    13    10    1
    18    10     6    1
    19     9     5    1
    20     6     5   ar
    21     6     1   ar
    22     7     1    1
    23     5     4   ar
    24     1     8   ar
    25     4     3   ar
    26     8     3   ar
    27     3    26    1
    28    26    25    2
    29    25    28    1
    30    28    27    3
