@<TRIPOS>MOLECULE
4i7g_1CJ_A_1.pdb
 14 15 0 0 0
SMALL
GASTEIGER

@<TRIPOS>ATOM
      1  O1        52.7680  -20.3890   42.8610 O.3   601  1CJ601     -0.1845
      2  C1        54.0760  -20.3810   43.2760 C.3   601  1CJ601      0.2955
      3  O2        54.2900  -19.4720   44.3960 O.3   601  1CJ601     -0.3251
      4  C9        53.3020  -19.3240   45.2590 C.3   601  1CJ601      0.1453
      5  C10       53.6580  -18.8650   46.6640 C.3   601  1CJ601      0.0348
      6  C2        54.9770  -20.1780   42.2290 C.ar  601  1CJ601      0.0749
      7  C8        54.7920  -20.5400   40.8250 C.ar  601  1CJ601      0.1227
      8  N2        55.9720  -20.2150   40.1710 N.ar  601  1CJ601     -0.1636
      9  N1        56.8810  -19.6540   41.0450 N.ar  601  1CJ601     -0.2283
     10  C3        56.3680  -19.6130   42.2980 C.ar  601  1CJ601      0.0852
     11  C7        58.1660  -19.2010   40.7500 C.ar  601  1CJ601      0.1004
     12  C6        58.9540  -18.6670   41.7160 C.ar  601  1CJ601      0.0207
     13  C5        58.4620  -18.6030   43.0090 C.ar  601  1CJ601      0.0031
     14  C4        57.1040  -19.0990   43.2920 C.ar  601  1CJ601      0.0191
@<TRIPOS>BOND
     1     8     7   ar
     2     8     9   ar
     3    11     9   ar
     4    11    12   ar
     5     7     6   ar
     6     9    10   ar
     7    12    13   ar
     8     6    10   ar
     9     6     2    1
    10    10    14   ar
    11     1     2    1
    12    13    14   ar
    13     2     3    1
    14     3     4    1
    15     4     5    1
