@<TRIPOS>MOLECULE
4i8c_HIS_A_1.pdb
 11 11 0 0 0
SMALL
GASTEIGER

@<TRIPOS>ATOM
      1  N         -3.6840   35.4020  -18.3050 N.3   601  HIS601     -0.1204
      2  CA        -2.6320   36.3910  -18.0810 C.3   601  HIS601      0.1999
      3  C         -1.8510   36.7480  -19.3420 C.2   601  HIS601      0.3822
      4  O         -1.3190   37.8640  -19.4860 O.co2 601  HIS601     -0.2440
      5  CB        -1.6570   35.9170  -17.0100 C.3   601  HIS601      0.0740
      6  CG        -0.6410   34.9340  -17.5000 C.2   601  HIS601      0.0651
      7  ND1       -0.9430   33.9140  -18.3880 N.2   601  HIS601     -0.2310
      8  CD2        0.6810   34.8100  -17.2340 C.3   601  HIS601      0.1683
      9  CE1        0.1400   33.2050  -18.6330 C.2   601  HIS601      0.1939
     10  NE2        1.1450   33.7310  -17.9480 N.2   601  HIS601     -0.2440
     11  OXT       -1.7310   35.9170  -20.2380 O.co2 601  HIS601     -0.2440
@<TRIPOS>BOND
     1    11     3   ar
     2     4     3   ar
     3     3     2    1
     4     9     7    1
     5     9    10    2
     6     7     6    2
     7     1     2    1
     8     2     5    1
     9    10     8    1
    10     6     8    1
    11     6     5    1
