@<TRIPOS>MOLECULE
4i8d_BGC_A_1.pdb
 12 12 0 0 0
SMALL
GASTEIGER

@<TRIPOS>ATOM
      1  C2        44.0780    6.0410    5.8880 C.3   810  BGC810      0.2434
      2  C3        43.2340    4.7540    5.7590 C.3   810  BGC810      0.2199
      3  C4        42.1380    4.9050    4.6950 C.3   810  BGC810      0.2144
      4  C5        42.7420    5.4090    3.3810 C.3   810  BGC810      0.1836
      5  C6        41.7130    5.5620    2.2690 C.3   810  BGC810      0.2142
      6  C1        44.4790    6.6090    4.5070 C.3   810  BGC810      0.3024
      7  O1        45.0620    7.9170    4.6190 O.3   810  BGC810     -0.1869
      8  O2        45.2480    5.8110    6.7010 O.3   810  BGC810     -0.2148
      9  O3        42.6340    4.3980    7.0150 O.3   810  BGC810     -0.2174
     10  O4        41.4390    3.6670    4.5110 O.3   810  BGC810     -0.2176
     11  O5        43.3520    6.6820    3.6210 O.3   810  BGC810     -0.3236
     12  O6        40.9790    6.7770    2.4520 O.3   810  BGC810     -0.2176
@<TRIPOS>BOND
     1     5    12    1
     2     5     4    1
     3     4    11    1
     4     4     3    1
     5    11     6    1
     6     6     7    1
     7     6     1    1
     8    10     3    1
     9     3     2    1
    10     2     1    1
    11     2     9    1
    12     1     8    1
