@<TRIPOS>MOLECULE
4i8d_BMA_A_1.pdb
 11 11 0 0 0
SMALL
GASTEIGER

@<TRIPOS>ATOM
      1  C1        62.9550  -17.6710   17.9630 C.3   803  BMA803      0.1777
      2  C2        63.2370  -18.7620   16.9320 C.3   803  BMA803      0.2141
      3  C3        63.1960  -20.1680   17.5450 C.3   803  BMA803      0.2173
      4  C4        64.0090  -20.2400   18.8410 C.3   803  BMA803      0.2142
      5  C5        63.6750  -19.0760   19.7670 C.3   803  BMA803      0.1810
      6  C6        64.5810  -19.0860   20.9850 C.3   803  BMA803      0.2141
      7  O2        64.5250  -18.5170   16.3550 O.3   803  BMA803     -0.2176
      8  O3        63.6830  -21.1130   16.5740 O.3   803  BMA803     -0.2175
      9  O4        63.7210  -21.4570   19.5330 O.3   803  BMA803     -0.2176
     10  O5        63.8300  -17.8310   19.0830 O.3   803  BMA803     -0.3481
     11  O6        64.2430  -17.9430   21.7650 O.3   803  BMA803     -0.2176
@<TRIPOS>BOND
     1     7     2    1
     2     8     3    1
     3     2     3    1
     4     2     1    1
     5     3     4    1
     6     1    10    1
     7     4     9    1
     8     4     5    1
     9    10     5    1
    10     5     6    1
    11     6    11    1
