@<TRIPOS>MOLECULE
4i8d_MAN_A_1.pdb
 11 11 0 0 0
SMALL
GASTEIGER

@<TRIPOS>ATOM
      1  C1        62.8090  -14.2400   24.7230 C.3   808  MAN808      0.1777
      2  C2        62.7780  -12.9420   25.5280 C.3   808  MAN808      0.2141
      3  C3        62.6190  -13.2050   27.0310 C.3   808  MAN808      0.2173
      4  C4        61.6810  -14.3650   27.3820 C.3   808  MAN808      0.2142
      5  C5        61.7620  -15.5460   26.4130 C.3   808  MAN808      0.1810
      6  C6        60.6170  -16.5290   26.6480 C.3   808  MAN808      0.2141
      7  O2        61.7440  -12.1060   25.0500 O.3   808  MAN808     -0.2176
      8  O3        62.1190  -12.0410   27.6480 O.3   808  MAN808     -0.2175
      9  O4        61.9940  -14.8200   28.6770 O.3   808  MAN808     -0.2176
     10  O5        61.7240  -15.0840   25.0720 O.3   808  MAN808     -0.3481
     11  O6        60.7350  -17.6160   25.7580 O.3   808  MAN808     -0.2176
@<TRIPOS>BOND
     1     1    10    1
     2     1     2    1
     3     7     2    1
     4    10     5    1
     5     2     3    1
     6    11     6    1
     7     5     6    1
     8     5     4    1
     9     3     4    1
    10     3     8    1
    11     4     9    1
