@<TRIPOS>MOLECULE
4i8e_RMY_X_1.pdb
 34 35 0 0 0
SMALL
GASTEIGER

@<TRIPOS>ATOM
      1  C1       -20.6900   -7.0740   90.3200 C.3   704  RMY704      0.1954
      2  C2       -19.4980   -7.4970   91.1810 C.3   704  RMY704      0.2188
      3  O1       -18.3600   -6.7030   90.8430 O.3   704  RMY704     -0.2168
      4  C3       -19.1720   -8.9780   90.9730 C.3   704  RMY704      0.1844
      5  O2       -18.2020   -9.3950   91.9470 O.3   704  RMY704     -0.3230
      6  C4       -20.4460   -9.8090   91.1310 C.3   704  RMY704      0.2111
      7  O3       -20.8430   -9.8180   92.5060 O.3   704  RMY704     -0.2177
      8  C5       -21.5800   -9.2430   90.2750 C.3   704  RMY704      0.1819
      9  O4       -21.8300   -7.8810   90.6520 O.3   704  RMY704     -0.3398
     10  C6       -22.8470  -10.0730   90.4930 C.3   704  RMY704      0.2142
     11  O5       -23.9910   -9.2140   90.4660 O.3   704  RMY704     -0.2176
     12  C7       -22.3900   -5.3140   93.0750 C.3   704  RMY704      0.0126
     13  C8       -20.9900   -5.2870   92.4580 C.3   704  RMY704      0.0600
     14  S1       -21.0770   -5.3120   90.6330 S.3   704  RMY704     -0.1094
     15  C9       -16.8100   -7.7870   90.7960 C.2   704  RMY704      0.4152
     16  C10      -15.6830   -6.5650   93.7460 C.3   704  RMY704      0.1554
     17  C11      -16.9530   -6.1810   92.9810 C.3   704  RMY704      0.1733
     18  C12      -15.0140   -7.7880   93.1190 C.3   704  RMY704      0.1797
     19  C13      -17.2460   -8.3500   92.1510 C.3   704  RMY704      0.2863
     20  C14      -17.3390   -4.2890   96.0860 C.3   704  RMY704      0.2175
     21  C15      -17.6440   -5.0180   93.6920 C.3   704  RMY704      0.2135
     22  C16      -17.9180   -5.3590   95.1600 C.3   704  RMY704      0.2173
     23  C17      -16.0280   -8.9110   92.8860 C.3   704  RMY704      0.1028
     24  C18      -13.9430   -5.1720   94.7630 C.2   704  RMY704      0.2420
     25  C19      -13.2770   -6.0210   95.3480 C.3   704  RMY704      0.0964
     26  N1       -14.7460   -5.4320   93.7330 N.am  704  RMY704     -0.2020
     27  O6       -17.4470   -8.1700   89.7910 O.co2 704  RMY704     -0.2402
     28  O7       -15.8510   -6.9890   90.7980 O.co2 704  RMY704     -0.2402
     29  O8       -13.9730   -8.2580   93.9820 O.3   704  RMY704     -0.2210
     30  O9       -17.8080   -3.0000   95.6810 O.3   704  RMY704     -0.2175
     31  O10      -16.8200   -3.8520   93.6180 O.3   704  RMY704     -0.2176
     32  O11      -19.3290   -5.4620   95.3720 O.3   704  RMY704     -0.2175
     33  O12      -17.8400   -7.3090   92.9330 O.3   704  RMY704     -0.3239
     34  O13      -13.8990   -3.7030   95.1920 O.2   704  RMY704     -0.2733
@<TRIPOS>BOND
     1    27    15   ar
     2     8    10    1
     3     8     9    1
     4     8     6    1
     5     1    14    1
     6     1     9    1
     7     1     2    1
     8    11    10    1
     9    14    13    1
    10    15    28   ar
    11    15    19    1
    12     3     2    1
    13     4     6    1
    14     4     2    1
    15     4     5    1
    16     6     7    1
    17     5    19    1
    18    19    23    1
    19    19    33    1
    20    13    12    1
    21    23    18    1
    22    33    17    1
    23    17    21    1
    24    17    16    1
    25    18    16    1
    26    18    29    1
    27    31    21    1
    28    21    22    1
    29    26    16    1
    30    26    24   am
    31    24    34    2
    32    24    25    1
    33    22    32    1
    34    22    20    1
    35    30    20    1
