@<TRIPOS>MOLECULE
4i8n_1CG_A_1.pdb
 34 37 0 0 0
SMALL
GASTEIGER

@<TRIPOS>ATOM
      1  C4       -13.5560   36.6020   32.2970 C.ar  401  1CG401      0.0203
      2  C5       -12.3380   37.1380   31.8940 C.ar  401  1CG401      0.0908
      3  C6       -11.4630   36.3040   31.2130 C.ar  401  1CG401      0.0203
      4  C13      -12.5550   39.2960   35.2880 C.2   401  1CG401      0.2818
      5  C15      -11.1000   42.1990   35.4620 C.ar  401  1CG401     -0.0198
      6  C17       -9.6240   44.0730   35.9080 C.ar  401  1CG401      0.0163
      7  C20      -10.8360   41.7540   36.7440 C.ar  401  1CG401     -0.0029
      8  C22       -8.0840   44.1720   39.1750 C.2   401  1CG401      0.3491
      9  C28      -13.8650   38.5420   36.8970 C.2   401  1CG401      0.1684
     10  O26       -6.1200   44.7140   40.2080 O.co2 401  1CG401     -0.2353
     11  C23       -7.1530   45.1170   39.7430 C.2   401  1CG401      0.4422
     12  O25       -7.3810   46.3980   39.7350 O.co2 401  1CG401     -0.2353
     13  O24       -8.3910   43.2550   39.8690 O.2   401  1CG401     -0.2607
     14  N21       -8.5160   44.3610   37.9280 N.am  401  1CG401     -0.1698
     15  C18       -9.3560   43.6220   37.1760 C.ar  401  1CG401      0.0739
     16  C16      -10.4870   43.3750   35.0850 C.ar  401  1CG401     -0.0029
     17  C19       -9.9680   42.4510   37.5830 C.ar  401  1CG401      0.0163
     18  C14      -12.0320   41.5250   34.4630 C.3   401  1CG401      0.0627
     19  C12      -11.9150   40.0180   34.1820 C.3   401  1CG401      0.2433
     20  S9       -12.8050   39.5500   32.8770 S.O2  401  1CG401      0.0816
     21  O10      -13.1880   40.6580   32.0120 O.2   401  1CG401     -0.1524
     22  O11      -14.0570   39.0640   33.4010 O.2   401  1CG401     -0.1524
     23  N8       -11.9710   38.4240   32.1120 N.pl3 401  1CG401     -0.1002
     24  C3       -13.8700   35.2630   32.0290 C.ar  401  1CG401      0.0310
     25  C2       -12.9850   34.4330   31.3540 C.ar  401  1CG401      0.1402
     26  F7       -13.2860   33.1430   31.0890 F     401  1CG401     -0.2042
     27  C1       -11.7770   34.9720   30.9480 C.ar  401  1CG401      0.0310
     28  O30      -11.8630   38.3000   35.8700 O.2   401  1CG401     -0.4269
     29  C29      -12.7150   37.8430   36.8770 C.2   401  1CG401      0.1734
     30  C34      -12.4620   36.8310   37.7590 C.2   401  1CG401      0.0188
     31  C33      -13.4290   36.5470   38.6970 C.3   401  1CG401      0.0554
     32  C32      -14.5990   37.2550   38.7280 C.2   401  1CG401     -0.0186
     33  C31      -14.8280   38.2580   37.8220 C.2   401  1CG401      0.0311
     34  N27      -13.7520   39.4280   35.8910 N.2   401  1CG401     -0.3665
@<TRIPOS>BOND
     1    27     3   ar
     2    27    25   ar
     3    26    25    1
     4     3     2   ar
     5    25    24   ar
     6     2    23    1
     7     2     1   ar
     8    21    20    2
     9    24     1   ar
    10    23    20    1
    11    20    22    2
    12    20    19    1
    13    19    18    1
    14    19     4    1
    15    18     5    1
    16    16     5   ar
    17    16     6   ar
    18     4    28    1
    19     4    34    2
    20     5     7   ar
    21    28    29    1
    22    34     9    2
    23     6    15   ar
    24     7    17   ar
    25    29     9    1
    26    29    30    2
    27     9    33    1
    28    15    17   ar
    29    15    14    1
    30    30    31    1
    31    33    32    2
    32    14     8   am
    33    31    32    1
    34     8    11    1
    35     8    13    2
    36    12    11   ar
    37    11    10   ar
