@<TRIPOS>MOLECULE
4i8p_NAD_A_1.pdb
 44 48 0 0 0
SMALL
GASTEIGER

@<TRIPOS>ATOM
      1  PA        -6.6320  -15.0840   32.1600 P.3   601  NAD601      0.2189
      2  O1A       -6.9980  -16.5260   32.1540 O.2   601  NAD601     -0.5170
      3  O2A       -5.1520  -14.8520   32.3060 O.3   601  NAD601     -0.4371
      4  O5B       -7.1880  -14.4290   30.8360 O.3   601  NAD601     -0.3112
      5  C5B       -7.0610  -13.0080   30.5450 C.3   601  NAD601      0.1813
      6  C4B       -7.2250  -12.8390   29.0540 C.3   601  NAD601      0.1821
      7  O4B       -6.1640  -13.5500   28.3800 O.3   601  NAD601     -0.3135
      8  C3B       -8.5300  -13.3480   28.4350 C.3   601  NAD601      0.2184
      9  O3B       -8.9360  -12.4810   27.3790 O.3   601  NAD601     -0.2174
     10  C2B       -8.1290  -14.7210   27.8890 C.3   601  NAD601      0.2570
     11  O2B       -8.9790  -15.2010   26.8530 O.3   601  NAD601     -0.2130
     12  C1B       -6.7130  -14.4250   27.4160 C.3   601  NAD601      0.3186
     13  N9A       -5.8320  -15.5810   27.3040 N.pl3 601  NAD601     -0.1439
     14  C8A       -5.9200  -16.7600   27.9980 C.3   601  NAD601      0.3377
     15  N7A       -5.0070  -17.6400   27.6690 N.2   601  NAD601     -0.2095
     16  C5A       -4.2560  -16.9910   26.7010 C.2   601  NAD601      0.2526
     17  C6A       -3.0930  -17.3630   25.9920 C.2   601  NAD601      0.4393
     18  N6A       -2.5590  -18.5890   26.0290 N.pl3 601  NAD601      0.2180
     19  N1A       -2.5130  -16.4310   25.2010 N.2   601  NAD601      0.0021
     20  C2A       -3.0850  -15.2250   25.0980 C.3   601  NAD601      0.5254
     21  N3A       -4.1990  -14.7750   25.6850 N.2   601  NAD601     -0.0055
     22  C4A       -4.7400  -15.7120   26.4810 C.2   601  NAD601      0.3518
     23  O3        -7.3520  -14.2560   33.3300 O.3   601  NAD601     -0.2703
     24  PN        -8.8900  -13.9800   33.6920 P.3   601  NAD601      0.2189
     25  O1N       -9.4010  -15.1900   34.3810 O.3   601  NAD601     -0.4371
     26  O2N       -9.5920  -13.4810   32.4900 O.2   601  NAD601     -0.5170
     27  O5D       -8.7750  -12.7500   34.6960 O.3   601  NAD601     -0.3112
     28  C5D       -8.4960  -12.9140   36.0960 C.3   601  NAD601      0.1813
     29  C4D       -7.0260  -12.6680   36.3590 C.3   601  NAD601      0.1799
     30  O4D       -6.6930  -11.3140   35.9610 O.3   601  NAD601     -0.3327
     31  C3D       -6.6380  -12.7300   37.8330 C.3   601  NAD601      0.2158
     32  O3D       -5.3860  -13.3810   38.0310 O.3   601  NAD601     -0.2175
     33  C2D       -6.5980  -11.2460   38.2080 C.3   601  NAD601      0.2309
     34  O2D       -5.7400  -10.9420   39.2980 O.3   601  NAD601     -0.2158
     35  C1D       -5.9790  -10.6310   36.9320 C.3   601  NAD601      0.2263
     36  N1N       -6.3140   -9.1440   36.8560 N.pl3 601  NAD601     -0.2787
     37  C2N       -5.2170   -8.2680   36.9950 C.3   601  NAD601      0.1244
     38  C3N       -5.4390   -6.8980   36.9830 C.2   601  NAD601      0.0544
     39  C7N       -4.3120   -5.8960   37.1540 C.2   601  NAD601      0.2818
     40  O7N       -3.1410   -6.2980   37.5780 O.2   601  NAD601     -0.2670
     41  N7N       -4.5980   -4.6190   36.9850 N.am  601  NAD601     -0.0839
     42  C4N       -6.7550   -6.4330   36.8750 C.2   601  NAD601      0.0033
     43  C5N       -7.8190   -7.3260   36.7570 C.2   601  NAD601      0.0157
     44  C6N       -7.5730   -8.6780   36.7340 C.2   601  NAD601      0.0633
@<TRIPOS>BOND
     1    20    19    1
     2    20    21    1
     3    19    17    2
     4    21    22    2
     5    17    18    1
     6    17    16    1
     7    22    16    1
     8    22    13    1
     9    16    15    2
    10    11    10    1
    11    13    12    1
    12    13    14    1
    13     9     8    1
    14    12    10    1
    15    12     7    1
    16    15    14    1
    17    10     8    1
    18     7     6    1
    19     8     6    1
    20     6     5    1
    21     5     4    1
    22     4     1    1
    23     2     1    2
    24     1     3    1
    25     1    23    1
    26    26    24    2
    27    23    24    1
    28    24    25    1
    29    24    27    1
    30    27    28    1
    31    30    29    1
    32    30    35    1
    33    28    29    1
    34    29    31    1
    35    44    43    2
    36    44    36    1
    37    43    42    1
    38    36    35    1
    39    36    37    1
    40    42    38    2
    41    35    33    1
    42    38    37    1
    43    38    39    1
    44    41    39   am
    45    39    40    2
    46    31    32    1
    47    31    33    1
    48    33    34    1
