@<TRIPOS>MOLECULE
4i8q_NAD_A_1.pdb
 44 48 0 0 0
SMALL
GASTEIGER

@<TRIPOS>ATOM
      1  PA       -16.5310   25.8000   -8.6680 P.3   601  NAD601      0.2189
      2  O1A      -15.3720   26.6890   -8.4330 O.2   601  NAD601     -0.5170
      3  O2A      -17.4520   25.7020   -7.4090 O.3   601  NAD601     -0.4371
      4  O5B      -16.0180   24.3530   -9.0710 O.3   601  NAD601     -0.3112
      5  C5B      -15.6670   23.9020  -10.3940 C.3   601  NAD601      0.1813
      6  C4B      -15.0190   22.5460  -10.2500 C.3   601  NAD601      0.1821
      7  O4B      -13.9050   22.6200   -9.3240 O.3   601  NAD601     -0.3135
      8  C3B      -15.9020   21.4120   -9.7430 C.3   601  NAD601      0.2184
      9  O3B      -15.5910   20.2420  -10.4940 O.3   601  NAD601     -0.2174
     10  C2B      -15.5480   21.3480   -8.2500 C.3   601  NAD601      0.2570
     11  O2B      -15.8220   20.0920   -7.6490 O.3   601  NAD601     -0.2130
     12  C1B      -14.0570   21.6490   -8.3060 C.3   601  NAD601      0.3186
     13  N9A      -13.4460   22.1640   -7.0800 N.pl3 601  NAD601     -0.1439
     14  C8A      -14.0470   22.8850   -6.0790 C.3   601  NAD601      0.3377
     15  N7A      -13.2510   23.1820   -5.0820 N.2   601  NAD601     -0.2095
     16  C5A      -12.0410   22.6080   -5.4450 C.2   601  NAD601      0.2526
     17  C6A      -10.7950   22.5260   -4.7920 C.2   601  NAD601      0.4393
     18  N6A      -10.5730   22.9870   -3.5560 N.pl3 601  NAD601      0.2180
     19  N1A       -9.7800   21.9160   -5.4480 N.2   601  NAD601      0.0021
     20  C2A      -10.0120   21.4010   -6.6620 C.3   601  NAD601      0.5254
     21  N3A      -11.1540   21.3790   -7.3570 N.2   601  NAD601     -0.0055
     22  C4A      -12.1390   22.0020   -6.6860 C.2   601  NAD601      0.3518
     23  O3       -17.4280   26.3820   -9.8670 O.3   601  NAD601     -0.2703
     24  PN       -18.8500   25.8980  -10.4290 P.3   601  NAD601      0.2189
     25  O1N      -18.7650   24.4330  -10.6420 O.2   601  NAD601     -0.5170
     26  O2N      -19.9070   26.4270   -9.5370 O.3   601  NAD601     -0.4371
     27  O5D      -18.9160   26.6670  -11.8280 O.3   601  NAD601     -0.3112
     28  C5D      -19.5530   27.9400  -12.0420 C.3   601  NAD601      0.1813
     29  C4D      -18.4850   28.9800  -12.2770 C.3   601  NAD601      0.1799
     30  O4D      -17.7110   28.6200  -13.4420 O.3   601  NAD601     -0.3327
     31  C3D      -18.9680   30.4010  -12.5520 C.3   601  NAD601      0.2158
     32  O3D      -18.1440   31.3380  -11.8680 O.3   601  NAD601     -0.2175
     33  C2D      -18.7990   30.5000  -14.0690 C.3   601  NAD601      0.2309
     34  O2D      -18.7590   31.8120  -14.6170 O.3   601  NAD601     -0.2158
     35  C1D      -17.4910   29.6970  -14.3100 C.3   601  NAD601      0.2263
     36  N1N      -17.4520   29.1160  -15.7340 N.pl3 601  NAD601     -0.2787
     37  C2N      -16.4800   29.6690  -16.5680 C.3   601  NAD601      0.1244
     38  C3N      -16.3520   29.2310  -17.8760 C.2   601  NAD601      0.0544
     39  C7N      -15.3670   29.8740  -18.8260 C.2   601  NAD601      0.2818
     40  O7N      -15.2510   29.4330  -19.9600 O.2   601  NAD601     -0.2670
     41  N7N      -14.6500   30.9040  -18.3860 N.am  601  NAD601     -0.0839
     42  C4N      -17.2050   28.2260  -18.3300 C.2   601  NAD601      0.0033
     43  C5N      -18.1640   27.6850  -17.4840 C.2   601  NAD601      0.0157
     44  C6N      -18.2700   28.1450  -16.1810 C.2   601  NAD601      0.0633
@<TRIPOS>BOND
     1    40    39    2
     2    39    41   am
     3    39    38    1
     4    42    38    2
     5    42    43    1
     6    38    37    1
     7    43    44    2
     8    37    36    1
     9    44    36    1
    10    36    35    1
    11    34    33    1
    12    35    33    1
    13    35    30    1
    14    33    31    1
    15    30    29    1
    16    31    29    1
    17    31    32    1
    18    29    28    1
    19    28    27    1
    20    27    24    1
    21    25    24    2
    22     9     8    1
    23    24    23    1
    24    24    26    1
    25     5     6    1
    26     5     4    1
    27     6     8    1
    28     6     7    1
    29    23     1    1
    30     8    10    1
    31     7    12    1
    32     4     1    1
    33     1     2    2
    34     1     3    1
    35    12    10    1
    36    12    13    1
    37    10    11    1
    38    21    22    2
    39    21    20    1
    40    13    22    1
    41    13    14    1
    42    22    16    1
    43    20    19    1
    44    14    15    1
    45    19    17    2
    46    16    15    2
    47    16    17    1
    48    17    18    1
