@<TRIPOS>MOLECULE
4i8v_BHF_A_1.pdb
 21 24 0 0 0
SMALL
GASTEIGER

@<TRIPOS>ATOM
      1  C8       -17.8680   35.3670  -30.5000 C.ar  602  BHF602      0.0796
      2  C9       -17.0870   34.2850  -29.9890 C.ar  602  BHF602      0.2016
      3  O2       -17.1000   33.0860  -30.4260 O.2   602  BHF602     -0.2864
      4  C10      -16.1890   34.5660  -28.8540 C.ar  602  BHF602      0.0735
      5  C11      -15.3900   33.5890  -28.2760 C.ar  602  BHF602      0.0062
      6  C12      -14.5490   33.9090  -27.1860 C.ar  602  BHF602      0.0003
      7  C13      -14.5130   35.2250  -26.6890 C.ar  602  BHF602      0.0029
      8  C14      -13.7260   35.6080  -25.6270 C.ar  602  BHF602      0.0001
      9  C15      -13.7590   36.9280  -25.1770 C.ar  602  BHF602      0.0000
     10  C16      -14.5420   37.9080  -25.7770 C.ar  602  BHF602      0.0001
     11  C17      -15.3340   37.6140  -26.8500 C.ar  602  BHF602      0.0030
     12  C18      -15.3220   36.2980  -27.2780 C.ar  602  BHF602      0.0347
     13  C19      -16.1660   35.9490  -28.3710 C.ar  602  BHF602      0.1482
     14  O1       -16.9170   36.9800  -28.8780 O.2   602  BHF602     -0.4533
     15  C7       -17.7550   36.6930  -29.9300 C.ar  602  BHF602      0.1484
     16  C1       -18.4770   37.9290  -30.3250 C.ar  602  BHF602      0.0347
     17  C2       -18.0840   39.0990  -29.6620 C.ar  602  BHF602      0.0030
     18  C3       -18.7350   40.2810  -29.9370 C.ar  602  BHF602      0.0001
     19  C4       -19.7650   40.2790  -30.9070 C.ar  602  BHF602      0.0000
     20  C5       -20.1830   39.1100  -31.5660 C.ar  602  BHF602      0.0001
     21  C6       -19.5240   37.9130  -31.2670 C.ar  602  BHF602      0.0030
@<TRIPOS>BOND
     1    20    21   ar
     2    20    19   ar
     3    21    16   ar
     4    19    18   ar
     5     1     2   ar
     6     1    15   ar
     7     3     2    2
     8    16    15    1
     9    16    17   ar
    10     2     4   ar
    11    18    17   ar
    12    15    14   ar
    13    14    13   ar
    14     4    13   ar
    15     4     5   ar
    16    13    12   ar
    17     5     6   ar
    18    12    11   ar
    19    12     7   ar
    20     6     7   ar
    21    11    10   ar
    22     7     8   ar
    23    10     9   ar
    24     8     9   ar
