@<TRIPOS>MOLECULE
4i8v_HEM_A_1.pdb
 43 50 0 0 0
SMALL
GASTEIGER

@<TRIPOS>ATOM
      1  CHA      -20.3940   44.2740  -31.3970 C.2   601  HEM601      0.0000
      2  CHB      -22.2300   42.5200  -35.3880 C.2   601  HEM601      0.0000
      3  CHC      -17.8150   41.6020  -37.0970 C.2   601  HEM601      0.0000
      4  CHD      -15.9470   43.4390  -33.0600 C.2   601  HEM601      0.0000
      5  C1A      -21.2780   43.8520  -32.3440 C.ar  601  HEM601      0.0000
      6  C2A      -22.6820   43.9100  -32.2160 C.ar  601  HEM601      0.0000
      7  C3A      -23.1820   43.3980  -33.3410 C.ar  601  HEM601      0.0000
      8  C4A      -22.1010   43.0960  -34.1820 C.ar  601  HEM601      0.0000
      9  CMA      -24.6540   43.1960  -33.6520 C.3   601  HEM601      0.0000
     10  CAA      -23.5120   44.3210  -31.0200 C.3   601  HEM601      0.0000
     11  CBA      -23.8490   45.8000  -30.8530 C.3   601  HEM601      0.0000
     12  CGA      -24.5540   46.0240  -29.5330 C.2   601  HEM601      0.0000
     13  O1A      -25.2780   47.0560  -29.4470 O.co2 601  HEM601      0.0000
     14  O2A      -24.4280   45.2520  -28.4960 O.co2 601  HEM601      0.0000
     15  C1B      -21.1710   42.0920  -36.1760 C.2   601  HEM601      0.0000
     16  C2B      -21.4020   41.4610  -37.4210 C.2   601  HEM601      0.0000
     17  C3B      -20.1700   41.1940  -37.9070 C.2   601  HEM601      0.0000
     18  C4B      -19.1900   41.6550  -36.9040 C.2   601  HEM601      0.0000
     19  CMB      -22.7140   41.1760  -38.0570 C.3   601  HEM601      0.0000
     20  CAB      -19.7950   40.5720  -39.1560 C.2   601  HEM601      0.0000
     21  CBB      -20.6150   40.1900  -40.0940 C.2   601  HEM601      0.0000
     22  C1C      -16.8880   42.0530  -36.1840 C.ar  601  HEM601      0.0000
     23  C2C      -15.4990   41.9590  -36.3210 C.ar  601  HEM601      0.0000
     24  C3C      -14.9770   42.4910  -35.1600 C.ar  601  HEM601      0.0000
     25  C4C      -16.0590   42.8840  -34.3280 C.ar  601  HEM601      0.0000
     26  CMC      -14.7340   41.4650  -37.5400 C.3   601  HEM601      0.0000
     27  CAC      -13.5610   42.6780  -34.8010 C.2   601  HEM601      0.0000
     28  CBC      -12.5460   42.4300  -35.5890 C.2   601  HEM601      0.0000
     29  C1D      -17.0550   43.7600  -32.3010 C.2   601  HEM601      0.0000
     30  C2D      -16.8790   44.2430  -30.9580 C.2   601  HEM601      0.0000
     31  C3D      -18.1050   44.5010  -30.5060 C.2   601  HEM601      0.0000
     32  C4D      -19.0300   44.1640  -31.5830 C.2   601  HEM601      0.0000
     33  CMD      -15.6020   44.4970  -30.1850 C.3   601  HEM601      0.0000
     34  CAD      -18.4200   45.0220  -29.1170 C.3   601  HEM601      0.0000
     35  CBD      -18.6760   46.5390  -29.0970 C.3   601  HEM601      0.0000
     36  CGD      -19.0390   47.0070  -27.7020 C.2   601  HEM601      0.0000
     37  O1D      -19.0480   48.2500  -27.3410 O.co2 601  HEM601      0.0000
     38  O2D      -19.3540   46.0890  -26.8900 O.co2 601  HEM601      0.0000
     39  NA       -20.9400   43.3930  -33.5890 N.ar  601  HEM601      0.0000
     40  NB       -19.8670   42.2030  -35.9550 N.2   601  HEM601      0.0000
     41  NC       -17.1990   42.6100  -35.0020 N.ar  601  HEM601      0.0000
     42  ND       -18.3720   43.7920  -32.6880 N.2   601  HEM601      0.0000
     43 FE        -19.1000   43.0590  -34.2900 Fe    601  HEM601      0.0000
@<TRIPOS>BOND
     1    21    20    2
     2    20    17    1
     3    19    16    1
     4    17    16    2
     5    17    18    1
     6    26    23    1
     7    16    15    1
     8     3    18    2
     9     3    22    1
    10    18    40    1
    11    23    22   ar
    12    23    24   ar
    13    22    41   ar
    14    15    40    2
    15    15     2    1
    16    40    43    1
    17    28    27    2
    18     2     8    2
    19    24    27    1
    20    24    25   ar
    21    41    25   ar
    22    41    43    1
    23    25     4    1
    24    43    39    1
    25    43    42    1
    26     8    39   ar
    27     8     7   ar
    28     9     7    1
    29    39     5   ar
    30     7     6   ar
    31     4    29    2
    32    42    29    1
    33    42    32    2
    34     5     6   ar
    35     5     1    2
    36    29    30    1
    37     6    10    1
    38    32     1    1
    39    32    31    1
    40    10    11    1
    41    30    31    2
    42    30    33    1
    43    11    12    1
    44    31    34    1
    45    12    13   ar
    46    12    14   ar
    47    34    35    1
    48    35    36    1
    49    36    37   ar
    50    36    38   ar
