@<TRIPOS>MOLECULE
4i8x_6P3_A_1.pdb
 15 16 0 0 0
SMALL
GASTEIGER

@<TRIPOS>ATOM
      1  C1        11.9180   12.6490   43.3830 C.ar  401  6P3401      0.0177
      2  C2        11.6020   13.7030   42.4880 C.ar  401  6P3401      0.0015
      3  C3        11.9930   13.6590   41.1240 C.ar  401  6P3401      0.0000
      4  C4        12.7160   12.5500   40.6280 C.ar  401  6P3401      0.0000
      5  C5        13.0380   11.4890   41.5090 C.ar  401  6P3401      0.0000
      6  C6        12.6430   11.5440   42.8670 C.ar  401  6P3401      0.0015
      7  C12       11.4950   12.7480   44.8220 C.ar  401  6P3401      0.0813
      8  N13       11.3280   14.0280   45.3590 N.ar  401  6P3401     -0.2436
      9  C14       10.9600   14.2330   46.6500 C.ar  401  6P3401      0.1054
     10  C15       10.7210   13.1580   47.5330 C.ar  401  6P3401      0.0989
     11  C16       10.8790   11.8440   47.0140 C.ar  401  6P3401      0.0097
     12  C17       11.2640   11.6370   45.6640 C.ar  401  6P3401      0.0194
     13  C21       10.3350   13.4190   48.9330 C.2   401  6P3401      0.3893
     14  O22       10.5780   14.4690   49.4480 O.co2 401  6P3401     -0.2405
     15  O23        9.7190   12.4140   49.5940 O.co2 401  6P3401     -0.2405
@<TRIPOS>BOND
     1     4     3   ar
     2     4     5   ar
     3     3     2   ar
     4     5     6   ar
     5     2     1   ar
     6     6     1   ar
     7     1     7    1
     8     7     8   ar
     9     7    12   ar
    10     8     9   ar
    11    12    11   ar
    12     9    10   ar
    13    11    10   ar
    14    10    13    1
    15    13    14   ar
    16    13    15   ar
