@<TRIPOS>MOLECULE
4i9b_NAD_A_1.pdb
 27 29 0 0 0
SMALL
GASTEIGER

@<TRIPOS>ATOM
      1  PA        -8.5290   34.2580   -1.8420 P.3   601  NAD601      0.2231
      2  O1A       -9.0780   33.9930   -3.2300 O.2   601  NAD601     -0.5169
      3  O2A       -7.0770   33.9630   -1.7400 O.3   601  NAD601     -0.4370
      4  O5B       -9.2560   33.4140   -0.7280 O.3   601  NAD601     -0.3111
      5  C5B      -10.5520   32.7850   -0.7910 C.3   601  NAD601      0.1813
      6  C4B      -10.4660   31.5110    0.0200 C.3   601  NAD601      0.1821
      7  O4B       -9.5280   30.5930   -0.6020 O.3   601  NAD601     -0.3135
      8  C3B      -10.0150   31.6490    1.4820 C.3   601  NAD601      0.2184
      9  O3B      -10.7230   30.7200    2.3080 O.3   601  NAD601     -0.2174
     10  C2B       -8.5260   31.2950    1.3950 C.3   601  NAD601      0.2570
     11  O2B       -7.9760   30.8350    2.6140 O.3   601  NAD601     -0.2130
     12  C1B       -8.5710   30.1760    0.3540 C.3   601  NAD601      0.3186
     13  N9A       -7.3150   29.8390   -0.3210 N.pl3 601  NAD601     -0.1439
     14  C8A       -6.2480   30.6630   -0.5740 C.3   601  NAD601      0.3377
     15  N7A       -5.2310   30.0610   -1.1420 N.2   601  NAD601     -0.2095
     16  C5A       -5.6650   28.7530   -1.2990 C.2   601  NAD601      0.2526
     17  C6A       -5.0970   27.6320   -1.9430 C.2   601  NAD601      0.4393
     18  N6A       -3.8760   27.6220   -2.4860 N.pl3 601  NAD601      0.2180
     19  N1A       -5.8470   26.5080   -2.0310 N.2   601  NAD601      0.0021
     20  C2A       -7.0650   26.5020   -1.4800 C.3   601  NAD601      0.5254
     21  N3A       -7.6940   27.4850   -0.8270 N.2   601  NAD601     -0.0055
     22  C4A       -6.9470   28.5990   -0.7890 C.2   601  NAD601      0.3518
     23  O3        -8.8110   35.7970   -1.4870 O.3   601  NAD601     -0.2261
     24  PN        -7.8540   36.8450   -0.7370 P.3   601  NAD601      0.5373
     25  O1N       -7.7290   36.2070    0.7180 O.3   601  NAD601     -0.1143
     26  O2N       -8.5400   38.1550   -0.6580 O.3   601  NAD601     -0.1143
     27  O5D       -6.5020   36.7820   -1.3420 O.2   601  NAD601     -0.2221
@<TRIPOS>BOND
     1     2     1    2
     2    18    17    1
     3    19    17    2
     4    19    20    1
     5    17    16    1
     6     1     3    1
     7     1    23    1
     8     1     4    1
     9    23    24    1
    10    20    21    1
    11    27    24    2
    12    16    15    2
    13    16    22    1
    14    15    14    1
    15    21    22    2
    16     5     4    1
    17     5     6    1
    18    22    13    1
    19    24    26    1
    20    24    25    1
    21     7     6    1
    22     7    12    1
    23    14    13    1
    24    13    12    1
    25     6     8    1
    26    12    10    1
    27    10     8    1
    28    10    11    1
    29     8     9    1
