@<TRIPOS>MOLECULE
4i9i_1DY_A_1.pdb
 33 36 0 0 0
SMALL
GASTEIGER

@<TRIPOS>ATOM
      1  N1        35.7040   25.8820   18.2710 N.2   1402  1DY1402    -0.2706
      2  C1        35.9180   25.5960   16.9930 C.1   1402  1DY1402     0.2162
      3  O1        36.6710   24.6830   16.6820 O.2   1402  1DY1402    -0.2085
      4  C2        35.2460   26.4510   16.0480 C.2   1402  1DY1402     0.1218
      5  C3        35.4240   26.2140   14.6570 C.2   1402  1DY1402    -0.0061
      6  C4        34.7440   27.1060   13.7530 C.3   1402  1DY1402     0.0529
      7  C5        33.9280   28.1850   14.2250 C.2   1402  1DY1402    -0.0187
      8  C6        33.7420   28.4270   15.6280 C.2   1402  1DY1402     0.0295
      9  C7        34.4210   27.5310   16.5290 C.2   1402  1DY1402     0.1548
     10  N2        34.2940   27.7070   17.8590 N.2   1402  1DY1402    -0.3421
     11  C8        34.9230   26.8960   18.7210 C.1   1402  1DY1402     0.1263
     12  C9        34.7570   27.1120   20.2110 C.3   1402  1DY1402     0.1353
     13  C10       33.2680   27.1630   20.4880 C.3   1402  1DY1402     0.1053
     14  C11       32.7050   25.8360   20.9710 C.2   1402  1DY1402     0.2467
     15  O2        32.1820   25.0610   20.1730 O.2   1402  1DY1402    -0.2729
     16  N3        32.8290   25.6060   22.3310 N.am  1402  1DY1402    -0.1792
     17  C12       32.6250   24.4490   23.0110 C.ar  1402  1DY1402     0.0734
     18  C13       33.2020   24.3870   24.3220 C.ar  1402  1DY1402     0.0167
     19  C14       32.9980   23.1710   25.0880 C.ar  1402  1DY1402     0.0059
     20  C15       31.8610   23.3570   22.4370 C.ar  1402  1DY1402     0.0167
     21  C16       31.6520   22.1590   23.1730 C.ar  1402  1DY1402     0.0059
     22  C17       32.2210   22.0950   24.4810 C.ar  1402  1DY1402     0.0555
     23  C18       31.9160   20.8600   25.2130 C.2   1402  1DY1402     0.2691
     24  O3        31.4480   19.8620   24.6760 O.2   1402  1DY1402    -0.2680
     25  N4        32.1530   20.8820   26.5510 N.am  1402  1DY1402    -0.1724
     26  C19       32.1590   19.8290   27.4520 C.ar  1402  1DY1402     0.1075
     27  C20       31.7480   18.4780   27.1670 C.ar  1402  1DY1402     0.0197
     28  C21       31.8160   17.4890   28.2420 C.ar  1402  1DY1402     0.0015
     29  C22       32.2820   17.8220   29.5650 C.ar  1402  1DY1402     0.0032
     30  C23       32.6950   19.1690   29.8600 C.ar  1402  1DY1402     0.0383
     31  C24       32.6170   20.1480   28.7750 C.ar  1402  1DY1402     0.1539
     32  O4        32.9160   21.4880   28.7470 O.3   1402  1DY1402    -0.4701
     33  C25       33.0190   22.2070   29.9700 C.3   1402  1DY1402     0.2525
@<TRIPOS>BOND
     1     6     7    1
     2     6     5    1
     3     7     8    2
     4     5     4    2
     5     8     9    1
     6     4     9    1
     7     4     2    1
     8     9    10    2
     9     3     2    2
    10     2     1    2
    11    10    11    2
    12     1    11    2
    13    11    12    1
    14    15    14    2
    15    12    13    1
    16    13    14    1
    17    14    16   am
    18    16    17    1
    19    20    17   ar
    20    20    21   ar
    21    17    18   ar
    22    21    22   ar
    23    18    19   ar
    24    22    19   ar
    25    22    23    1
    26    24    23    2
    27    23    25   am
    28    25    26    1
    29    27    26   ar
    30    27    28   ar
    31    26    31   ar
    32    28    29   ar
    33    32    31    1
    34    32    33    1
    35    31    30   ar
    36    29    30   ar
