@<TRIPOS>MOLECULE
4i9n_1E6_A_1.pdb
 29 30 0 0 0
SMALL
GASTEIGER

@<TRIPOS>ATOM
      1  C1         7.7040   11.8760   27.0080 C.2   401  1E6401      0.3893
      2  C2         8.9320   11.1090   26.7280 C.ar  401  1E6401      0.0989
      3  O3         7.8690   13.1520   27.3990 O.co2 401  1E6401     -0.2405
      4  O4         6.6190   11.3690   26.8920 O.co2 401  1E6401     -0.2405
      5  C5        10.2010   11.7480   26.6410 C.ar  401  1E6401      0.1060
      6  N6        11.3630   11.0320   26.3800 N.ar  401  1E6401     -0.2374
      7  C7        11.2980    9.6670   26.1980 C.ar  401  1E6401      0.1071
      8  C8        10.0820    8.9510   26.2650 C.ar  401  1E6401      0.0257
      9  C9         8.8980    9.6830   26.5320 C.ar  401  1E6401      0.0102
     10  S10       12.7940    8.7980   25.8670 S.3   401  1E6401     -0.0851
     11  C11       14.1000    9.6020   26.0950 C.3   401  1E6401      0.1504
     12  C12       14.4590   10.0340   27.6710 C.2   401  1E6401      0.2570
     13  N15       13.8460   11.1150   28.2540 N.am  401  1E6401     -0.1754
     14  C16       14.0640   11.5860   29.5690 C.ar  401  1E6401      0.1082
     15  C17       15.3330   11.3400   30.3150 C.ar  401  1E6401      0.0341
     16  C18       15.4910   11.8520   31.6510 C.ar  401  1E6401      0.0930
     17  C19       14.4180   12.6050   32.2730 C.ar  401  1E6401      0.1522
     18  C20       13.2270   12.8180   31.5400 C.ar  401  1E6401      0.0760
     19  C21       13.0100   12.3380   30.2180 C.ar  401  1E6401      0.1570
     20  O22       14.5450   13.1160   33.5630 O.3   401  1E6401     -0.4717
     21  C23       14.1520   14.4820   33.6920 C.3   401  1E6401      0.2408
     22  C24       14.7050   15.0610   34.9770 C.3   401  1E6401      0.2280
     23  C27       16.2350   14.9850   35.0120 C.3   401  1E6401      0.2187
     24  O28       16.7220   16.0330   34.1660 O.3   401  1E6401     -0.2174
     25 CL3        16.9840   11.5440   32.4900 Cl    401  1E6401     -0.0790
     26  O37       11.7970   12.5730   29.5120 O.3   401  1E6401     -0.4700
     27  C38       11.0560   13.7760   29.7900 C.3   401  1E6401      0.2525
     28  O43       15.2950    9.1920   28.0110 O.2   401  1E6401     -0.2720
     29  O44       14.1860   14.3360   36.0820 O.3   401  1E6401     -0.2163
@<TRIPOS>BOND
     1    10    11    1
     2    10     7    1
     3    11    12    1
     4     7     8   ar
     5     7     6   ar
     6     8     9   ar
     7     6     5   ar
     8     9     2   ar
     9     5     2   ar
    10     2     1    1
    11     4     1   ar
    12     1     3   ar
    13    12    28    2
    14    12    13   am
    15    13    14    1
    16    26    27    1
    17    26    19    1
    18    14    19   ar
    19    14    15   ar
    20    19    18   ar
    21    15    16   ar
    22    18    17   ar
    23    16    17   ar
    24    16    25    1
    25    17    20    1
    26    20    21    1
    27    21    22    1
    28    24    23    1
    29    22    23    1
    30    22    29    1
