@<TRIPOS>MOLECULE
4i9n_1E5_A_1.pdb
 21 22 0 0 0
SMALL
GASTEIGER

@<TRIPOS>ATOM
      1  C1        11.7250   12.9210   43.3550 C.ar  402  1E5402      0.0229
      2  C2        12.4160   11.6920   42.8770 C.ar  402  1E5402      0.0313
      3  C3        12.9110   11.6520   41.5620 C.ar  402  1E5402      0.1432
      4  C4        12.7840   12.7300   40.6820 C.ar  402  1E5402      0.0665
      5  C5        12.1200   13.9300   41.1210 C.ar  402  1E5402      0.1417
      6  C6        11.6090   13.9930   42.4470 C.ar  402  1E5402      0.0386
      7  O7        11.9210   15.1070   40.3590 O.3   402  1E5402     -0.4636
      8  C8        12.5440   15.2490   39.0700 C.3   402  1E5402      0.3186
      9  C9        14.1470   15.7440   39.1230 C.2   402  1E5402      0.4084
     10  O12       14.8130   15.8910   38.1600 O.co2 402  1E5402     -0.2415
     11  O13       14.6610   15.7210   40.3600 O.co2 402  1E5402     -0.2415
     12  C17       11.2320   12.9910   44.7590 C.ar  402  1E5402      0.0815
     13  N18       11.0130   14.2630   45.2710 N.ar  402  1E5402     -0.2436
     14  C19       10.5960   14.4720   46.5390 C.ar  402  1E5402      0.1054
     15  C20       10.3650   13.3760   47.4190 C.ar  402  1E5402      0.0989
     16  C21       10.5730   12.0310   46.9280 C.ar  402  1E5402      0.0097
     17  C22       11.0090   11.8610   45.5910 C.ar  402  1E5402      0.0194
     18  C23        9.9380   13.6410   48.7930 C.2   402  1E5402      0.3893
     19  O24        9.5400   12.5740   49.5110 O.co2 402  1E5402     -0.2405
     20  O25       10.3710   14.8320   49.4270 O.co2 402  1E5402     -0.2405
     21  F31       13.5300   10.5530   41.1470 F     402  1E5402     -0.2041
@<TRIPOS>BOND
     1    10     9   ar
     2     8     9    1
     3     8     7    1
     4     9    11   ar
     5     7     5    1
     6     4     5   ar
     7     4     3   ar
     8     5     6   ar
     9    21     3    1
    10     3     2   ar
    11     6     1   ar
    12     2     1   ar
    13     1    12    1
    14    12    13   ar
    15    12    17   ar
    16    13    14   ar
    17    17    16   ar
    18    14    15   ar
    19    16    15   ar
    20    15    18    1
    21    18    20   ar
    22    18    19   ar
