@<TRIPOS>MOLECULE
4i9o_KI1_A_1.pdb
 23 24 0 0 0
SMALL
GASTEIGER

@<TRIPOS>ATOM
      1  O2        25.2660   -2.1370   14.4930 O.2   701  KI1701     -0.2748
      2  C3        25.9380   -1.6990   15.4100 C.2   701  KI1701      0.2266
      3  C2        27.4430   -1.8340   15.3840 C.3   701  KI1701      0.0978
      4  C1        28.4730   -1.5040   14.4080 C.3   701  KI1701      0.0782
      5  S         28.7670    0.2840   14.4620 S.3   701  KI1701     -0.0816
      6  N         25.3770   -1.0730   16.4650 N.am  701  KI1701     -0.2793
      7  C6        23.9430   -0.7790   16.5870 C.3   701  KI1701      0.0963
      8  C7        23.6850    0.7220   16.5320 C.3   701  KI1701      0.0562
      9  C8        24.4430    1.4560   17.6470 C.3   701  KI1701      0.1486
     10  O1        23.8390    1.1010   18.8930 O.3   701  KI1701     -0.2211
     11  C5        25.8950    0.9700   17.7040 C.3   701  KI1701      0.0562
     12  C4        26.1240   -0.5270   17.6050 C.3   701  KI1701      0.0963
     13  C9        24.3810    2.9710   17.4780 C.ar  701  KI1701      0.0051
     14  C15       24.4570    3.5730   16.2230 C.ar  701  KI1701     -0.0011
     15  C14       24.4220    4.9520   16.0900 C.ar  701  KI1701      0.0111
     16  C13       24.3270    5.7540   17.2220 C.ar  701  KI1701      0.0615
     17 CL         24.3090    7.4750   17.0060 Cl    701  KI1701     -0.0823
     18  C11       24.2550    5.1870   18.4930 C.ar  701  KI1701      0.0817
     19  C10       24.2770    3.8000   18.5910 C.ar  701  KI1701      0.0028
     20  C12       24.2130    6.0200   19.7370 C.3   701  KI1701      0.4194
     21  F1        23.1320    6.7870   19.7980 F     701  KI1701     -0.1658
     22  F2        25.2510    6.8310   19.8080 F     701  KI1701     -0.1658
     23  F3        24.1410    5.3010   20.8380 F     701  KI1701     -0.1658
@<TRIPOS>BOND
     1     4     5    1
     2     4     3    1
     3     1     2    2
     4     3     2    1
     5     2     6   am
     6    15    14   ar
     7    15    16   ar
     8    14    13   ar
     9     6     7    1
    10     6    12    1
    11     8     7    1
    12     8     9    1
    13    17    16    1
    14    16    18   ar
    15    13     9    1
    16    13    19   ar
    17    12    11    1
    18     9    11    1
    19     9    10    1
    20    18    19   ar
    21    18    20    1
    22    20    21    1
    23    20    22    1
    24    20    23    1
