@<TRIPOS>MOLECULE
4i9u_1E7_A_1.pdb
 23 24 0 0 0
SMALL
GASTEIGER

@<TRIPOS>ATOM
      1  C1        14.1590    9.9010   27.2220 C.2   401  1E7401      0.2570
      2  N2        13.6060   10.8580   28.0850 N.am  401  1E7401     -0.1754
      3  C3        14.1080   11.4110   29.3620 C.ar  401  1E7401      0.1080
      4  O4        15.0740    9.0900   27.6210 O.2   401  1E7401     -0.2720
      5  C6        13.6380    9.8330   25.7610 C.3   401  1E7401      0.1504
      6  S7        12.1560    8.7600   25.6520 S.3   401  1E7401     -0.0851
      7  C10       10.8020    9.8860   26.1530 C.ar  401  1E7401      0.1071
      8  C11        9.4350    9.4520   26.0200 C.ar  401  1E7401      0.0257
      9  C12        8.3770   10.3860   26.4380 C.ar  401  1E7401      0.0102
     10  C13        8.6980   11.7020   26.9650 C.ar  401  1E7401      0.0989
     11  C14       10.0990   12.0240   27.0490 C.ar  401  1E7401      0.1060
     12  N15       11.1270   11.1220   26.6460 N.ar  401  1E7401     -0.2374
     13  C19        7.5930   12.6820   27.4100 C.2   401  1E7401      0.3893
     14  O20        7.7620   14.0490   27.1720 O.co2 401  1E7401     -0.2405
     15  O21        6.5750   12.2830   27.9710 O.co2 401  1E7401     -0.2405
     16  C23       15.3460   10.9780   30.0270 C.ar  401  1E7401      0.0311
     17  C24       15.8120   11.5660   31.3020 C.ar  401  1E7401      0.0592
     18  C25       15.0450   12.5970   31.9280 C.ar  401  1E7401      0.0146
     19  C26       13.8280   13.0490   31.3160 C.ar  401  1E7401      0.0391
     20  C27       13.3200   12.4930   30.0420 C.ar  401  1E7401      0.1539
     21  O31       12.1030   12.9170   29.3970 O.3   401  1E7401     -0.4701
     22 CL3        17.2970   11.0110   32.0540 Cl    401  1E7401     -0.0822
     23  C33       11.1570   13.7270   30.1440 C.3   401  1E7401      0.2525
@<TRIPOS>BOND
     1     6     5    1
     2     6     7    1
     3     5     1    1
     4     8     7   ar
     5     8     9   ar
     6     7    12   ar
     7     9    10   ar
     8    12    11   ar
     9    10    11   ar
    10    10    13    1
    11    14    13   ar
    12     1     4    2
    13     1     2   am
    14    13    15   ar
    15     2     3    1
    16     3    16   ar
    17     3    20   ar
    18    21    20    1
    19    21    23    1
    20    16    17   ar
    21    20    19   ar
    22    17    18   ar
    23    17    22    1
    24    19    18   ar
