@<TRIPOS>MOLECULE
4ia9_IA9_A_1.pdb
 28 30 0 0 0
SMALL
GASTEIGER

@<TRIPOS>ATOM
      1 CLG         8.1610   25.7870   -1.4980 Cl    401  IA9401     -0.0824
      2  CAX        8.5080   27.3630   -1.7120 C.ar  401  IA9401      0.0603
      3  CAS        7.4730   28.3370   -1.6300 C.ar  401  IA9401      0.0163
      4  CAA        6.1080   27.9860   -1.3680 C.3   401  IA9401      0.0343
      5  CAT        7.8010   29.6890   -1.8140 C.ar  401  IA9401      0.1370
      6  FAF        6.8750   30.6510   -1.7460 F     401  IA9401     -0.2045
      7  CAH        9.1050   30.0660   -2.0710 C.ar  401  IA9401      0.0295
      8  CAJ       10.1100   29.1090   -2.1570 C.ar  401  IA9401      0.0077
      9  CAW        9.8470   27.7540   -1.9700 C.ar  401  IA9401      0.0658
     10  CAR       10.9500   26.8550   -2.0920 C.2   401  IA9401      0.2698
     11  OAC       10.8980   25.9140   -2.8920 O.2   401  IA9401     -0.2680
     12  NAQ       12.0410   27.1380   -1.3180 N.am  401  IA9401     -0.1741
     13  CAV       13.2070   26.4260   -1.4200 C.ar  401  IA9401      0.0886
     14  CAL       13.9370   26.4830   -2.6190 C.ar  401  IA9401      0.0419
     15  CAU       15.1540   25.8070   -2.7690 C.ar  401  IA9401      0.1443
     16  NBB       15.8470   25.8500   -3.9430 N.pl3 401  IA9401      0.0577
     17  OAE       15.1520   26.0340   -5.1430 O.2   401  IA9401     -0.1261
     18  OAD       17.2480   25.6880   -3.9450 O.2   401  IA9401     -0.1261
     19  CAI       15.6470   25.0780   -1.6960 C.ar  401  IA9401      0.0254
     20  CAK       14.9420   25.0220   -0.4860 C.ar  401  IA9401      0.0175
     21  CAY       13.7210   25.7030   -0.3160 C.ar  401  IA9401      0.0636
     22  NBA       13.0990   25.5510    0.8810 N.pl3 401  IA9401     -0.3036
     23  CAO       11.7440   24.9840    0.8880 C.3   401  IA9401      0.1082
     24  CAM       11.0290   25.4320    2.0880 C.3   401  IA9401      0.0938
     25  NAZ       11.6510   24.8930    3.2760 N.3   401  IA9401     -0.2686
     26  CAB       11.0220   25.2160    4.5500 C.3   401  IA9401      0.0897
     27  CAN       12.8360   25.8110    3.4270 C.3   401  IA9401      0.0938
     28  CAP       13.8000   25.6290    2.1720 C.3   401  IA9401      0.1082
@<TRIPOS>BOND
     1    17    16    2
     2    18    16    2
     3    16    15    1
     4    11    10    2
     5    15    14   ar
     6    15    19   ar
     7    14    13   ar
     8     8     7   ar
     9     8     9   ar
    10    10     9    1
    11    10    12   am
    12     7     5   ar
    13     9     2   ar
    14     5     6    1
    15     5     3   ar
    16     2     3   ar
    17     2     1    1
    18    19    20   ar
    19     3     4    1
    20    13    12    1
    21    13    21   ar
    22    20    21   ar
    23    21    22    1
    24    22    23    1
    25    22    28    1
    26    23    24    1
    27    24    25    1
    28    28    27    1
    29    25    27    1
    30    25    26    1
