@<TRIPOS>MOLECULE
4ial_THP_A_1.pdb
 25 26 0 0 0
SMALL
GASTEIGER

@<TRIPOS>ATOM
      1  P2        17.8100   11.1250    4.5470 P.3   202  THP202      0.5327
      2  O4P       17.7350    9.6690    4.8250 O.2   202  THP202     -0.2224
      3  O5P       16.5910   11.8300    4.9900 O.3   202  THP202     -0.1145
      4  O6P       19.0670   11.8560    4.9070 O.3   202  THP202     -0.1145
      5  P1        21.0850   14.5550    0.6460 P.3   202  THP202      0.5326
      6  O1P       22.0810   15.1540   -0.3430 O.2   202  THP202     -0.2224
      7  O2P       21.7040   13.4070    1.4170 O.3   202  THP202     -0.1145
      8  O3P       20.3860   15.6090    1.4530 O.3   202  THP202     -0.1145
      9  O5'       17.7880   11.1820    2.8340 O.3   202  THP202     -0.2675
     10  C5'       17.8860   12.5080    2.3080 C.3   202  THP202      0.1857
     11  C4'       18.7850   12.4160    1.0760 C.3   202  THP202      0.1748
     12  O4'       18.3780   11.2100    0.4930 O.3   202  THP202     -0.3340
     13  C3'       18.7030   13.5630    0.0520 C.3   202  THP202      0.1600
     14  O3'       20.0650   13.8980   -0.3840 O.3   202  THP202     -0.2700
     15  C2'       17.8620   12.9530   -1.0420 C.3   202  THP202      0.0847
     16  C1'       18.0320   11.4650   -0.9050 C.3   202  THP202      0.2089
     17  N1        16.7480   10.8930   -1.2590 N.am  202  THP202     -0.1794
     18  C2        16.4100   10.6500   -2.6410 C.1   202  THP202      0.2844
     19  O2        17.2850   10.9610   -3.5300 O.2   202  THP202     -0.1918
     20  N3        15.2080   10.1680   -3.0020 N.2   202  THP202     -0.2455
     21  C4        14.2060    9.8300   -2.1590 C.1   202  THP202      0.2134
     22  O4        13.1330    9.3560   -2.5830 O.2   202  THP202     -0.2088
     23  C5        14.5350   10.0630   -0.7290 C.2   202  THP202      0.0891
     24  C5M       13.5320    9.7530    0.3620 C.3   202  THP202      0.0462
     25  C6        15.7750   10.5710   -0.3560 C.2   202  THP202      0.0877
@<TRIPOS>BOND
     1    19    18    2
     2    20    18    2
     3    20    21    2
     4    18    17   am
     5    22    21    2
     6    21    23    1
     7    17    16    1
     8    17    25    1
     9    15    16    1
    10    15    13    1
    11    16    12    1
    12    23    25    2
    13    23    24    1
    14    14    13    1
    15    14     5    1
    16     6     5    2
    17    13    11    1
    18    12    11    1
    19     5     7    1
    20     5     8    1
    21    11    10    1
    22    10     9    1
    23     9     1    1
    24     1     2    2
    25     1     4    1
    26     1     3    1
