@<TRIPOS>MOLECULE
4iao_APR_A_1.pdb
 36 39 0 0 0
SMALL
GASTEIGER

@<TRIPOS>ATOM
      1  N1        97.2760   56.0860   65.9040 N.2   602  APR602      0.0021
      2  C2        98.3340   56.5930   66.5730 C.3   602  APR602      0.5254
      3  N3        98.4810   57.9130   66.6950 N.2   602  APR602     -0.0055
      4  C4        97.5920   58.7720   66.1630 C.2   602  APR602      0.3518
      5  C5        96.4910   58.2710   65.4660 C.2   602  APR602      0.2526
      6  C6        96.3510   56.8900   65.3490 C.2   602  APR602      0.4393
      7  N6        95.2470   56.3320   64.6500 N.pl3 602  APR602      0.2180
      8  N7        95.7870   59.3460   65.0550 N.2   602  APR602     -0.2095
      9  C8        96.4130   60.4610   65.4700 C.3   602  APR602      0.3377
     10  N9        97.5180   60.1120   66.1340 N.pl3 602  APR602     -0.1439
     11  C1'       98.5130   60.9620   66.8220 C.3   602  APR602      0.3186
     12  C2'       99.0030   62.1520   66.1320 C.3   602  APR602      0.2570
     13  O2'      100.2000   61.8290   65.4780 O.3   602  APR602     -0.2130
     14  C3'       99.2840   63.0610   67.1740 C.3   602  APR602      0.2184
     15  O3'      100.6570   63.0560   67.5200 O.3   602  APR602     -0.2174
     16  O4'       97.9420   61.4180   68.0220 O.3   602  APR602     -0.3135
     17  C4'       98.4690   62.6550   68.3190 C.3   602  APR602      0.1821
     18  C5'       97.3380   63.6090   68.4590 C.3   602  APR602      0.1813
     19  O5'       97.0050   64.1200   69.7120 O.3   602  APR602     -0.3112
     20  PA        96.5380   65.6270   69.7890 P.3   602  APR602      0.2189
     21  O1A       95.9350   66.0360   68.4670 O.2   602  APR602     -0.5170
     22  O2A       97.6930   66.4770   70.0620 O.3   602  APR602     -0.4371
     23  O3A       95.5080   65.7590   70.9200 O.3   602  APR602     -0.2703
     24  PB        95.7360   65.0880   72.3430 P.3   602  APR602      0.2189
     25  O1B       97.2030   64.9920   72.6660 O.3   602  APR602     -0.4371
     26  O2B       95.0830   63.7330   72.3630 O.2   602  APR602     -0.5170
     27  O5D       95.0050   65.9460   73.4440 O.3   602  APR602     -0.3112
     28  C5D       95.4000   67.2530   73.7700 C.3   602  APR602      0.1813
     29  O4D       94.4490   69.4090   73.8680 O.3   602  APR602     -0.3237
     30  O1D       92.9830   71.0160   73.1990 O.3   602  APR602     -0.1869
     31  C1D       93.1940   69.9730   74.0720 C.3   602  APR602      0.3023
     32  O2D       91.2100   68.9500   74.7720 O.3   602  APR602     -0.2148
     33  C2D       92.2680   68.8960   73.8080 C.3   602  APR602      0.2433
     34  O3D       92.4670   66.8530   74.9760 O.3   602  APR602     -0.2175
     35  C3D       93.0290   67.6950   73.9640 C.3   602  APR602      0.2168
     36  C4D       94.3450   68.1320   74.3800 C.3   602  APR602      0.1807
@<TRIPOS>BOND
     1     7     6    1
     2     8     5    2
     3     8     9    1
     4     6     5    1
     5     6     1    2
     6     5     4    1
     7     9    10    1
     8    13    12    1
     9     1     2    1
    10    12    11    1
    11    12    14    1
    12    10     4    1
    13    10    11    1
    14     4     3    2
    15     2     3    1
    16    11    16    1
    17    14    15    1
    18    14    17    1
    19    16    17    1
    20    17    18    1
    21    18    19    1
    22    21    20    2
    23    19    20    1
    24    20    22    1
    25    20    23    1
    26    23    24    1
    27    24    26    2
    28    24    25    1
    29    24    27    1
    30    30    31    1
    31    27    28    1
    32    28    36    1
    33    33    35    1
    34    33    31    1
    35    33    32    1
    36    29    31    1
    37    29    36    1
    38    35    36    1
    39    35    34    1
