@<TRIPOS>MOLECULE
4ibp_GSH_A_1.pdb
 20 19 0 0 0
SMALL
GASTEIGER

@<TRIPOS>ATOM
      1  N1        21.5520   39.0100    0.9750 N.3   302  GSH302     -0.1208
      2  CA1       22.8000   39.1870    1.6320 C.3   302  GSH302      0.1948
      3  C1        23.0360   38.0580    2.5910 C.2   302  GSH302      0.3819
      4  O11       22.0640   37.4370    3.0950 O.co2 302  GSH302     -0.2441
      5  O12       24.2070   37.6920    2.9000 O.co2 302  GSH302     -0.2441
      6  CB1       22.7870   40.4890    2.3660 C.3   302  GSH302      0.0402
      7  CG1       24.1550   40.6870    3.0330 C.3   302  GSH302      0.0889
      8  CD1       24.4200   42.1390    3.4210 C.2   302  GSH302      0.2418
      9  OE1       23.6560   43.0230    3.0860 O.2   302  GSH302     -0.2733
     10  N2        25.6150   42.4710    4.2150 N.am  302  GSH302     -0.1968
     11  CA2       25.9220   43.8210    4.5820 C.3   302  GSH302      0.1843
     12  C2        26.7990   44.3600    3.4670 C.2   302  GSH302      0.2627
     13  O2        27.6140   43.6000    2.9200 O.2   302  GSH302     -0.2714
     14  CB2       26.7710   43.8110    5.8080 C.3   302  GSH302      0.0997
     15  SG2       25.7230   43.5920    7.2110 S.3   302  GSH302     -0.0797
     16  N3        26.7200   45.7430    3.0220 N.am  302  GSH302     -0.1917
     17  CA3       27.5890   46.1800    1.9470 C.3   302  GSH302      0.2285
     18  C3        26.7410   46.6500    0.8100 C.2   302  GSH302      0.3865
     19  O31       27.2710   47.1860   -0.2020 O.co2 302  GSH302     -0.2437
     20  O32       25.4920   46.5120    0.8600 O.co2 302  GSH302     -0.2437
@<TRIPOS>BOND
     1    19    18   ar
     2    18    20   ar
     3    18    17    1
     4     1     2    1
     5     2     6    1
     6     2     3    1
     7    17    16    1
     8     6     7    1
     9     3     5   ar
    10     3     4   ar
    11    13    12    2
    12    16    12   am
    13     7     8    1
    14     9     8    2
    15     8    10   am
    16    12    11    1
    17    10    11    1
    18    11    14    1
    19    14    15    1
