@<TRIPOS>MOLECULE
4ic7_ANP_A_1.pdb
 31 33 0 0 0
SMALL
GASTEIGER

@<TRIPOS>ATOM
      1  PG        26.0920  -18.3250   12.2820 P.3   501  ANP501      0.4884
      2  O1G       24.7740  -19.0320   12.2780 O.3   501  ANP501     -0.1240
      3  O2G       27.2780  -19.1500   11.7370 O.2   501  ANP501     -0.2331
      4  O3G       26.5590  -18.0210   13.7710 O.3   501  ANP501     -0.1240
      5  PB        25.8850  -16.7690    9.7990 P.3   501  ANP501      0.4669
      6  O1B       25.7590  -18.3210    9.5170 O.3   501  ANP501     -0.1253
      7  O2B       27.0460  -16.0230    9.0710 O.2   501  ANP501     -0.2351
      8  N3B       25.9800  -16.8560   11.5430 N.3   501  ANP501     -0.0163
      9  PA        23.3010  -17.2120    8.8510 P.3   501  ANP501      0.2220
     10  O1A       23.2300  -18.6160    9.4110 O.3   501  ANP501     -0.4370
     11  O2A       23.7620  -17.3180    7.4590 O.2   501  ANP501     -0.5170
     12  O3A       24.3720  -16.3470    9.5720 O.3   501  ANP501     -0.2360
     13  O5'       21.9420  -16.4880    8.9120 O.3   501  ANP501     -0.3111
     14  C5'       21.3740  -16.2170   10.1660 C.3   501  ANP501      0.1813
     15  C4'       20.0520  -16.7480   10.4420 C.3   501  ANP501      0.1821
     16  O4'       19.1400  -16.1170    9.6520 O.3   501  ANP501     -0.3135
     17  C3'       19.9950  -18.1570   10.0640 C.3   501  ANP501      0.2184
     18  O3'       20.2360  -18.9870   11.1160 O.3   501  ANP501     -0.2174
     19  C2'       18.6690  -18.3550    9.6840 C.3   501  ANP501      0.2570
     20  O2'       17.9000  -18.8280   10.7030 O.3   501  ANP501     -0.2130
     21  C1'       18.2310  -17.0740    9.1650 C.3   501  ANP501      0.3186
     22  N9        18.3780  -17.1240    7.7130 N.pl3 501  ANP501     -0.1439
     23  C8        19.5400  -17.1860    7.0690 C.3   501  ANP501      0.3377
     24  N7        19.2900  -17.2400    5.7770 N.2   501  ANP501     -0.2095
     25  C5        17.9690  -17.2230    5.5780 C.2   501  ANP501      0.2526
     26  C6        17.1790  -17.2660    4.4360 C.2   501  ANP501      0.4393
     27  N6        17.7780  -17.3350    3.1400 N.pl3 501  ANP501      0.2180
     28  N1        15.8620  -17.2320    4.5630 N.2   501  ANP501      0.0021
     29  C2        15.3370  -17.1670    5.7840 C.3   501  ANP501      0.5254
     30  N3        16.0550  -17.1340    6.9120 N.2   501  ANP501     -0.0055
     31  C4        17.3820  -17.1600    6.8230 C.2   501  ANP501      0.3518
@<TRIPOS>BOND
     1    27    26    1
     2    26    28    2
     3    26    25    1
     4    28    29    1
     5    25    24    2
     6    25    31    1
     7    24    23    1
     8    29    30    1
     9    31    30    2
    10    31    22    1
    11    23    22    1
    12    11     9    2
    13    22    21    1
    14     9    13    1
    15     9    10    1
    16     9    12    1
    17    13    14    1
    18     7     5    2
    19    21    16    1
    20    21    19    1
    21     6     5    1
    22    12     5    1
    23    16    15    1
    24    19    17    1
    25    19    20    1
    26     5     8    1
    27    17    15    1
    28    17    18    1
    29    14    15    1
    30     8     1    1
    31     3     1    2
    32     2     1    1
    33     1     4    1
