@<TRIPOS>MOLECULE
4ici_FMN_A_1.pdb
 31 33 0 0 0
SMALL
GASTEIGER

@<TRIPOS>ATOM
      1  N1        42.4880   25.5670   34.8660 N.2   200  FMN200     -0.2890
      2  C2        42.6650   24.5680   35.7910 C.1   200  FMN200      0.3669
      3  O2        43.7790   24.4010   36.2820 O.2   200  FMN200     -0.1744
      4  N3        41.5870   23.7760   36.1630 N.2   200  FMN200     -0.2300
      5  C4        40.3070   23.9710   35.6720 C.1   200  FMN200      0.2513
      6  O4        39.4320   23.1630   36.0360 O.2   200  FMN200     -0.2057
      7  C4A       40.1180   25.0170   34.7540 C.2   200  FMN200      0.2700
      8  N5        38.8320   25.2870   34.2370 N.2   200  FMN200     -0.3878
      9  C5A       38.7100   26.3160   33.2940 C.2   200  FMN200      0.1320
     10  C6        37.4520   26.5820   32.7360 C.2   200  FMN200      0.0250
     11  C7        37.2970   27.5720   31.7990 C.2   200  FMN200     -0.0238
     12  C7M       35.9550   27.8120   31.1740 C.3   200  FMN200      0.0308
     13  C8        38.3830   28.3200   31.3770 C.2   200  FMN200     -0.0280
     14  C8M       38.2020   29.4220   30.3590 C.3   200  FMN200      0.0304
     15  C9        39.6320   28.0720   31.9320 C.2   200  FMN200     -0.0041
     16  C9A       39.8210   27.0520   32.8850 C.3   200  FMN200      0.1497
     17  N10       41.0830   26.7850   33.4390 N.pl3 200  FMN200     -0.2691
     18  C10       41.2270   25.7750   34.3590 C.2   200  FMN200      0.2416
     19  C1'       42.2890   27.5550   32.9660 C.3   200  FMN200      0.1294
     20  C2'       42.7510   26.9710   31.6010 C.3   200  FMN200      0.2044
     21  O2'       42.9060   25.5720   31.5970 O.3   200  FMN200     -0.2185
     22  C3'       44.1310   27.5210   31.1880 C.3   200  FMN200      0.2164
     23  O3'       44.1590   28.9760   31.3380 O.3   200  FMN200     -0.2175
     24  C4'       44.5860   27.0710   29.7670 C.3   200  FMN200      0.2147
     25  O4'       45.9780   27.2690   29.7050 O.3   200  FMN200     -0.2176
     26  C5'       43.9100   27.9790   28.6710 C.3   200  FMN200      0.1892
     27  O5'       44.3770   27.4810   27.4440 O.3   200  FMN200     -0.2674
     28  P         44.1050   28.2180   26.0490 P.3   200  FMN200      0.5327
     29  O1P       44.8330   29.5670   26.1680 O.3   200  FMN200     -0.1145
     30  O2P       44.5490   27.3480   24.9730 O.2   200  FMN200     -0.2224
     31  O3P       42.6020   28.4460   25.8580 O.3   200  FMN200     -0.1145
@<TRIPOS>BOND
     1    30    28    2
     2    31    28    1
     3    28    29    1
     4    28    27    1
     5    27    26    1
     6    26    24    1
     7    25    24    1
     8    24    22    1
     9    14    13    1
    10    12    11    1
    11    22    23    1
    12    22    20    1
    13    13    11    1
    14    13    15    2
    15    21    20    1
    16    20    19    1
    17    11    10    2
    18    15    16    1
    19    10     9    1
    20    16     9    1
    21    16    17    1
    22    19    17    1
    23     9     8    2
    24    17    18    1
    25     8     7    2
    26    18     7    1
    27    18     1    2
    28     7     5    1
    29     1     2    2
    30     5     6    2
    31     5     4    2
    32     2     4    2
    33     2     3    2
