@<TRIPOS>MOLECULE
4icl_T27_A_1.pdb
 46 48 0 0 0
SMALL
GASTEIGER

@<TRIPOS>ATOM
      1  C1        49.2120  -24.9120   38.3780 C.ar  601  T27601     -0.0284
      2  N2        52.2770  -25.6040   33.4860 N.2   601  T27601     -0.3408
      3  C3        48.5910  -26.8670   39.5900 C.ar  601  T27601     -0.0238
      4  C4        49.8430  -27.3700   39.3830 C.ar  601  T27601     -0.0499
      5  C5        50.8110  -26.6760   38.6960 C.ar  601  T27601     -0.0284
      6  C6        50.4800  -25.4260   38.1930 C.ar  601  T27601      0.0388
      7  C7        48.8970  -23.5580   37.8120 C.3   601  T27601     -0.0379
      8  C2        48.2490  -25.6200   39.0940 C.ar  601  T27601     -0.0499
      9  C8        52.1630  -27.2820   38.5270 C.3   601  T27601     -0.0379
     10  N1        51.4730  -24.7060   37.4730 N.pl3 601  T27601     -0.2913
     11  C9        52.7680  -24.4400   33.9880 C.2   601  T27601      0.0820
     12  C10       52.5020  -24.1110   35.3320 C.3   601  T27601      0.0912
     13  C11       51.7600  -24.9850   36.1230 C.2   601  T27601      0.1758
     14  N3        51.2970  -26.1510   35.5890 N.2   601  T27601     -0.3172
     15  C12       51.5760  -26.4110   34.3080 C.1   601  T27601      0.2033
     16  N4        51.0920  -27.6090   33.7100 N.pl3 601  T27601     -0.2390
     17  C13       49.1490  -30.9080   35.3130 C.ar  601  T27601      0.0519
     18  C14       49.6020  -30.8870   34.0310 C.ar  601  T27601     -0.0426
     19  C15       50.2410  -29.7890   33.5250 C.ar  601  T27601     -0.0387
     20  C16       50.4210  -28.6680   34.3580 C.ar  601  T27601      0.0418
     21  C17       49.9330  -28.6690   35.6390 C.ar  601  T27601     -0.0387
     22  C18       49.2980  -29.8070   36.1270 C.ar  601  T27601     -0.0426
     23  N5        47.9760  -33.0870   36.1620 N.1   601  T27601     -0.1909
     24  C19       48.4840  -32.1420   35.7980 C.1   601  T27601      0.0992
     25  C20       46.5630  -27.3940   40.9670 C.2   601  T27601      0.0159
     26  C21       47.7000  -27.7780   40.3810 C.2   601  T27601     -0.0444
     27  N6        45.3000  -29.1490   42.4600 N.1   601  T27601     -0.1915
     28  C22       45.8760  -28.3870   41.8340 C.1   601  T27601      0.0914
     29  H4        50.0670  -28.2380   39.7540 H     601  T27601      0.0627
     30  H7        49.1050  -23.5310   36.8610 H     601  T27601      0.0278
     31  H7A       47.9530  -23.3570   37.9430 H     601  T27601      0.0278
     32  H7B       49.4350  -22.8960   38.2810 H     601  T27601      0.0278
     33  H2        47.3590  -25.2580   39.2240 H     601  T27601      0.0627
     34  H8        52.6880  -26.7420   37.9090 H     601  T27601      0.0278
     35  H8A       52.0600  -28.1780   38.1610 H     601  T27601      0.0278
     36  H8B       52.6220  -27.3310   39.3850 H     601  T27601      0.0278
     37  HN1       51.9100  -24.0240   37.8830 H     601  T27601      0.1543
     38  H9        53.2810  -23.8380   33.4230 H     601  T27601      0.0939
     39  H10       52.8420  -23.2840   35.7050 H     601  T27601      0.0468
     40  HN4       51.0340  -27.6020   32.8010 H     601  T27601      0.1656
     41  H14       49.5000  -31.6760   33.4760 H     601  T27601      0.0631
     42  H15       50.5780  -29.7870   32.6160 H     601  T27601      0.0637
     43  H17       50.0570  -27.8950   36.2110 H     601  T27601      0.0637
     44  H18       48.9720  -29.8280   37.0400 H     601  T27601      0.0631
     45  H20       46.2910  -26.4650   40.9620 H     601  T27601      0.0733
     46  H21       48.0330  -28.6640   40.5880 H     601  T27601      0.0630
@<TRIPOS>BOND
     1    42    19    1
     2    40    16    1
     3    38    11    1
     4    41    18    1
     5     2    11    2
     6     2    15    2
     7    19    18   ar
     8    19    20   ar
     9    16    15    1
    10    16    20    1
    11    11    12    1
    12    18    17   ar
    13    15    14    2
    14    20    21   ar
    15    17    24    1
    16    17    22   ar
    17    12    39    1
    18    12    13    1
    19    14    13    2
    20    21    22   ar
    21    21    43    1
    22    24    23    3
    23    13    10    1
    24    22    44    1
    25    30     7    1
    26    10    37    1
    27    10     6    1
    28     7    31    1
    29     7    32    1
    30     7     1    1
    31    34     9    1
    32    35     9    1
    33     6     1   ar
    34     6     5   ar
    35     1     8   ar
    36     9     5    1
    37     9    36    1
    38     5     4   ar
    39     8    33    1
    40     8     3   ar
    41     4     3   ar
    42     4    29    1
    43     3    26    1
    44    26    46    1
    45    26    25    2
    46    45    25    1
    47    25    28    1
    48    28    27    3
