@<TRIPOS>MOLECULE
4icl_14N_A_1.pdb
 16 17 0 0 0
SMALL
GASTEIGER

@<TRIPOS>ATOM
      1  C3        47.2290  -23.2810   57.9120 C.3   607  14N607      0.1081
      2  C2        48.1150  -24.4960   57.6450 C.3   607  14N607      0.0938
      3  N1        47.7020  -25.6810   58.3760 N.3   607  14N607     -0.2686
      4  C1        48.6300  -26.7110   58.7800 C.3   607  14N607      0.0897
      5  C5        46.3140  -26.0830   58.0710 C.3   607  14N607      0.0938
      6  C4        45.4040  -24.9510   58.3170 C.3   607  14N607      0.1081
      7  N2        46.1770  -23.7830   58.7500 N.pl3 607  14N607     -0.3046
      8  C6        45.9960  -23.1160   60.0320 C.ar  607  14N607      0.0479
      9  C7        45.2700  -23.7760   61.0250 C.ar  607  14N607      0.0147
     10  C8        45.0580  -23.1090   62.3670 C.ar  607  14N607      0.0078
     11  C9        45.5720  -21.8530   62.5840 C.ar  607  14N607      0.0799
     12  C12       45.3600  -21.2000   63.8740 C.2   607  14N607      0.3878
     13  O2        45.2700  -19.9530   63.9370 O.co2 607  14N607     -0.2406
     14  O1        45.2530  -21.8910   64.9050 O.co2 607  14N607     -0.2406
     15  C10       46.3690  -21.1460   61.4890 C.ar  607  14N607      0.0078
     16  C11       46.5750  -21.7520   60.2680 C.ar  607  14N607      0.0147
@<TRIPOS>BOND
     1     2     1    1
     2     2     3    1
     3     1     7    1
     4     5     6    1
     5     5     3    1
     6     6     7    1
     7     3     4    1
     8     7     8    1
     9     8    16   ar
    10     8     9   ar
    11    16    15   ar
    12     9    10   ar
    13    15    11   ar
    14    10    11   ar
    15    11    12    1
    16    12    13   ar
    17    12    14   ar
