@<TRIPOS>MOLECULE
4id0_GSF_B_1.pdb
 22 21 0 0 0
SMALL
GASTEIGER

@<TRIPOS>ATOM
      1  CB1        4.1420    2.7120    1.1590 C.3   302  GSF302      0.0402
      2  CG1        5.5100    2.9280    1.7200 C.3   302  GSF302      0.0889
      3  CD1        5.8430    4.3790    1.9920 C.2   302  GSF302      0.2419
      4  OE1        5.0970    5.3220    1.6550 O.2   302  GSF302     -0.2733
      5  C1         4.0670    0.2200    1.5070 C.2   302  GSF302      0.3819
      6  O11        3.0100   -0.2370    2.0110 O.co2 302  GSF302     -0.2441
      7  O12        5.2300   -0.2230    1.7820 O.co2 302  GSF302     -0.2441
      8  N1         2.6600    1.2800   -0.2010 N.3   302  GSF302     -0.1208
      9  CA1        3.9420    1.3590    0.5200 C.3   302  GSF302      0.1948
     10  N2         6.9900    4.6150    2.6780 N.am  302  GSF302     -0.1959
     11  CA2        7.5180    5.9450    2.8260 C.3   302  GSF302      0.1959
     12  CB2        8.3130    6.1510    4.0820 C.3   302  GSF302      0.1788
     13  SG2        7.3460    6.3710    5.5470 S.3   302  GSF302     -0.0161
     14  O1S        6.7520    5.2130    5.8550 O.3   302  GSF302     -0.0781
     15  O2S        8.3630    6.8300    6.5330 O.3   302  GSF302     -0.0781
     16  C2         8.4080    6.2160    1.6820 C.2   302  GSF302      0.2635
     17  O2         9.1360    5.3660    1.1750 O.2   302  GSF302     -0.2714
     18  N3         8.4240    7.5420    1.1960 N.am  302  GSF302     -0.1917
     19  CA3        9.2730    7.9510    0.1110 C.3   302  GSF302      0.2285
     20  C3         8.5390    8.4600   -1.0800 C.2   302  GSF302      0.3865
     21  O31        7.2740    8.3750   -1.1690 O.co2 302  GSF302     -0.2437
     22  O32        9.2540    8.9660   -1.9670 O.co2 302  GSF302     -0.2437
@<TRIPOS>BOND
     1    22    20   ar
     2    21    20   ar
     3    20    19    1
     4     8     9    1
     5    19    18    1
     6     9     1    1
     7     9     5    1
     8     1     2    1
     9    17    16    2
    10    18    16   am
    11     5     7   ar
    12     5     6   ar
    13     4     3    2
    14    16    11    1
    15     2     3    1
    16     3    10   am
    17    10    11    1
    18    11    12    1
    19    12    13    1
    20    13    14    1
    21    13    15    1
