@<TRIPOS>MOLECULE
4id5_T27_A_1.pdb
 28 30 0 0 0
SMALL
GASTEIGER

@<TRIPOS>ATOM
      1  C1        51.0800  -26.6990   38.4800 C.ar  601  T27601     -0.0068
      2  N2        52.4150  -25.5270   33.2660 N.2   601  T27601     -0.1683
      3  C3        48.8800  -26.9700   39.4070 C.ar  601  T27601      0.0001
      4  C4        48.5000  -25.7290   38.9200 C.ar  601  T27601     -0.0030
      5  C5        49.4270  -24.9620   38.2120 C.ar  601  T27601     -0.0068
      6  C6        50.7140  -25.4510   37.9810 C.ar  601  T27601      0.0651
      7  C7        52.4430  -27.2750   38.2840 C.3   601  T27601      0.0324
      8  C2        50.1540  -27.4400   39.1850 C.ar  601  T27601     -0.0030
      9  C8        49.0140  -23.6210   37.6860 C.3   601  T27601      0.0324
     10  N1        51.6800  -24.6720   37.2580 N.pl3 601  T27601     -0.1834
     11  C9        52.9460  -24.3830   33.7470 C.2   601  T27601      0.1158
     12  C10       52.7150  -24.0710   35.0940 C.2   601  T27601      0.0720
     13  C11       51.9600  -24.9420   35.8820 C.2   601  T27601      0.2178
     14  N3        51.4610  -26.0740   35.3360 N.2   601  T27601     -0.3189
     15  C12       51.7110  -26.3460   34.0470 C.1   601  T27601      0.1709
     16  N4        51.2160  -27.5360   33.4110 N.pl3 601  T27601     -0.1357
     17  C13       49.2760  -30.8570   35.0820 C.ar  601  T27601      0.0685
     18  C14       49.4640  -29.7450   35.8980 C.ar  601  T27601      0.0116
     19  C15       50.1070  -28.6290   35.3730 C.ar  601  T27601      0.0180
     20  C16       50.5510  -28.6260   34.0500 C.ar  601  T27601      0.0826
     21  C17       50.3630  -29.7450   33.2560 C.ar  601  T27601      0.0180
     22  C18       49.7230  -30.8470   33.7780 C.ar  601  T27601      0.0116
     23  N5        48.0960  -33.0500   35.9310 N.1   601  T27601     -0.1908
     24  C19       48.6100  -32.0960   35.5760 C.1   601  T27601      0.1004
     25  C20       46.8700  -27.4360   40.8300 C.2   601  T27601      0.0780
     26  C21       47.9620  -27.8700   40.1650 C.2   601  T27601      0.0109
     27  N6        45.4640  -29.1410   42.2520 N.1   601  T27601     -0.1908
     28  C22       46.0610  -28.4180   41.6030 C.1   601  T27601      0.1011
@<TRIPOS>BOND
     1    21    22   ar
     2    21    20   ar
     3     2    11    1
     4     2    15    2
     5    16    15    1
     6    16    20    1
     7    11    12    2
     8    22    17   ar
     9    15    14    2
    10    20    19   ar
    11    17    24    1
    12    17    18   ar
    13    12    13    1
    14    14    13    2
    15    19    18   ar
    16    24    23    3
    17    13    10    1
    18    10     6    1
    19     9     5    1
    20     6     5   ar
    21     6     1   ar
    22     5     4   ar
    23     7     1    1
    24     1     8   ar
    25     4     3   ar
    26     8     3   ar
    27     3    26    1
    28    26    25    2
    29    25    28    1
    30    28    27    3
