@<TRIPOS>MOLECULE
4id5_1FF_A_1.pdb
 15 16 0 0 0
SMALL
GASTEIGER

@<TRIPOS>ATOM
      1  O1         5.9240    1.7090   14.9810 O.co2 609  1FF609     -0.2404
      2  C11        5.5920    2.1660   13.8340 C.2   609  1FF609      0.3908
      3  O2         5.0020    3.2700   13.7650 O.co2 609  1FF609     -0.2404
      4  C1         5.9480    1.3720   12.6090 C.ar  609  1FF609      0.1178
      5  C3         6.5630    0.1340   12.6810 C.ar  609  1FF609      0.1282
      6  N2         6.7550   -0.3140   11.4300 N.ar  609  1FF609     -0.1674
      7  N1         6.2730    0.6100   10.5480 N.ar  609  1FF609     -0.2486
      8  C4         6.3110    0.4430    9.1070 C.3   609  1FF609      0.1537
      9  C2         5.7720    1.6580   11.2440 C.ar  609  1FF609      0.0858
     10  C5         5.1710    2.8360   10.6610 C.ar  609  1FF609      0.0176
     11  C10        3.8370    3.1410   10.9210 C.ar  609  1FF609      0.0015
     12  C9         3.2640    4.2810   10.3630 C.ar  609  1FF609      0.0000
     13  C8         4.0080    5.1110    9.5360 C.ar  609  1FF609      0.0000
     14  C7         5.3360    4.8060    9.2640 C.ar  609  1FF609      0.0000
     15  C6         5.9170    3.6740    9.8250 C.ar  609  1FF609      0.0015
@<TRIPOS>BOND
     1     8     7    1
     2    14    13   ar
     3    14    15   ar
     4    13    12   ar
     5    15    10   ar
     6    12    11   ar
     7     7     9   ar
     8     7     6   ar
     9    10    11   ar
    10    10     9    1
    11     9     4   ar
    12     6     5   ar
    13     4     5   ar
    14     4     2    1
    15     3     2   ar
    16     2     1   ar
