@<TRIPOS>MOLECULE
4id9_NAD_A_1.pdb
 44 48 0 0 0
SMALL
GASTEIGER

@<TRIPOS>ATOM
      1  PA        50.3240   45.7400   89.8810 P.3   403  NAD403      0.2189
      2  O1A       50.5390   45.8400   91.3720 O.3   403  NAD403     -0.4371
      3  O2A       48.8880   46.1760   89.5030 O.2   403  NAD403     -0.5170
      4  O5B       51.3870   46.6130   89.1380 O.3   403  NAD403     -0.3112
      5  C5B       51.1140   47.0230   87.8300 C.3   403  NAD403      0.1813
      6  C4B       51.7570   48.3140   87.5930 C.3   403  NAD403      0.1821
      7  O4B       51.6800   48.5720   86.1510 O.3   403  NAD403     -0.3135
      8  C3B       51.1060   49.4220   88.2860 C.3   403  NAD403      0.2184
      9  O3B       52.0250   50.0150   89.1830 O.3   403  NAD403     -0.2174
     10  C2B       50.7120   50.3500   87.2520 C.3   403  NAD403      0.2570
     11  O2B       50.7870   51.7470   87.6620 O.3   403  NAD403     -0.2130
     12  C1B       51.5620   50.0190   86.1250 C.3   403  NAD403      0.3186
     13  N9A       50.9690   50.4700   84.9040 N.pl3 403  NAD403     -0.1439
     14  C8A       49.6690   50.3250   84.5080 C.3   403  NAD403      0.3377
     15  N7A       49.4880   50.9280   83.3160 N.2   403  NAD403     -0.2095
     16  C5A       50.6670   51.4990   82.9220 C.2   403  NAD403      0.2526
     17  C6A       51.1000   52.2470   81.8320 C.2   403  NAD403      0.4393
     18  N6A       50.2150   52.6000   80.7720 N.pl3 403  NAD403      0.2180
     19  N1A       52.3960   52.6710   81.7710 N.2   403  NAD403      0.0021
     20  C2A       53.2890   52.3860   82.7440 C.3   403  NAD403      0.5254
     21  N3A       52.9020   51.6640   83.8270 N.2   403  NAD403     -0.0055
     22  C4A       51.6210   51.2160   83.9340 C.2   403  NAD403      0.3518
     23  O3        50.4480   44.2600   89.4680 O.3   403  NAD403     -0.2703
     24  PN        51.6070   43.2280   89.8960 P.3   403  NAD403      0.2189
     25  O1N       51.0530   42.2840   90.9860 O.3   403  NAD403     -0.4371
     26  O2N       52.9240   43.8640   90.2750 O.2   403  NAD403     -0.5170
     27  O5D       51.8030   42.3730   88.5520 O.3   403  NAD403     -0.3112
     28  C5D       53.0190   42.3860   87.8000 C.3   403  NAD403      0.1813
     29  C4D       52.7480   41.8490   86.4400 C.3   403  NAD403      0.1799
     30  O4D       52.4360   40.4150   86.5210 O.3   403  NAD403     -0.3327
     31  C3D       51.6170   42.4690   85.7490 C.3   403  NAD403      0.2158
     32  O3D       51.9250   42.4840   84.3360 O.3   403  NAD403     -0.2175
     33  C2D       50.4810   41.6110   85.9590 C.3   403  NAD403      0.2309
     34  O2D       49.5210   41.7700   84.9100 O.3   403  NAD403     -0.2158
     35  C1D       51.0490   40.2880   85.9580 C.3   403  NAD403      0.2263
     36  N1N       50.3680   39.3620   86.7550 N.pl3 403  NAD403     -0.2787
     37  C2N       50.1600   39.6050   88.1060 C.3   403  NAD403      0.1244
     38  C3N       49.5030   38.6520   88.8740 C.2   403  NAD403      0.0544
     39  C7N       49.2520   38.8990   90.3460 C.2   403  NAD403      0.2818
     40  O7N       48.5650   38.0520   90.9680 O.2   403  NAD403     -0.2670
     41  N7N       49.7810   40.0970   91.0650 N.am  403  NAD403     -0.0839
     42  C4N       49.0700   37.4780   88.3080 C.2   403  NAD403      0.0033
     43  C5N       49.2900   37.2320   86.9660 C.2   403  NAD403      0.0157
     44  C6N       49.9430   38.1800   86.2020 C.2   403  NAD403      0.0633
@<TRIPOS>BOND
     1    18    17    1
     2    19    17    2
     3    19    20    1
     4    17    16    1
     5    20    21    1
     6    16    15    2
     7    16    22    1
     8    15    14    1
     9    21    22    2
    10    22    13    1
    11    32    31    1
    12    14    13    1
    13    13    12    1
    14    34    33    1
    15    31    33    1
    16    31    29    1
    17    35    33    1
    18    35    30    1
    19    35    36    1
    20    12     7    1
    21    12    10    1
    22     7     6    1
    23    44    36    1
    24    44    43    2
    25    29    30    1
    26    29    28    1
    27    36    37    1
    28    43    42    1
    29    10    11    1
    30    10     8    1
    31     6     5    1
    32     6     8    1
    33    28    27    1
    34     5     4    1
    35    37    38    1
    36     8     9    1
    37    42    38    2
    38    27    24    1
    39    38    39    1
    40     4     1    1
    41    23     1    1
    42    23    24    1
    43     3     1    2
    44     1     2    1
    45    24    26    2
    46    24    25    1
    47    39    40    2
    48    39    41   am
