@<TRIPOS>MOLECULE
4idg_NAD_A_1.pdb
 44 48 0 0 0
SMALL
GASTEIGER

@<TRIPOS>ATOM
      1  PA         1.0120    5.4930   42.5120 P.3   402  NAD402      0.2189
      2  O1A        0.7240    5.9130   43.9270 O.3   402  NAD402     -0.4371
      3  O2A       -0.2310    4.8110   41.9020 O.2   402  NAD402     -0.5170
      4  O5B        1.4180    6.7300   41.6290 O.3   402  NAD402     -0.3112
      5  C5B        1.3340    6.6590   40.2340 C.3   402  NAD402      0.1813
      6  C4B        0.9400    7.9680   39.7020 C.3   402  NAD402      0.1821
      7  O4B        1.0740    7.9980   38.2310 O.3   402  NAD402     -0.3135
      8  C3B       -0.4550    8.2260   40.0300 C.3   402  NAD402      0.2184
      9  O3B       -0.5680    9.4320   40.7750 O.3   402  NAD402     -0.2174
     10  C2B       -1.1410    8.3240   38.7630 C.3   402  NAD402      0.2570
     11  O2B       -2.2100    9.2880   38.7850 O.3   402  NAD402     -0.2130
     12  C1B       -0.1300    8.7400   37.8220 C.3   402  NAD402      0.3186
     13  N9A       -0.5960    8.4660   36.4950 N.pl3 402  NAD402     -0.1439
     14  C8A       -1.2140    7.3340   36.0420 C.3   402  NAD402      0.3377
     15  N7A       -1.5200    7.4760   34.7470 N.2   402  NAD402     -0.2095
     16  C5A       -1.1050    8.7090   34.3100 C.2   402  NAD402      0.2526
     17  C6A       -1.1420    9.4190   33.1120 C.2   402  NAD402      0.4393
     18  N6A       -1.7130    8.8680   31.9200 N.pl3 402  NAD402      0.2180
     19  N1A       -0.6140   10.6710   33.0550 N.2   402  NAD402      0.0021
     20  C2A       -0.0590   11.2660   34.1360 C.3   402  NAD402      0.5254
     21  N3A       -0.0120   10.6090   35.3190 N.2   402  NAD402     -0.0055
     22  C4A       -0.5150    9.3520   35.4340 C.2   402  NAD402      0.3518
     23  O3         2.1460    4.4620   42.5420 O.3   402  NAD402     -0.2703
     24  PN         3.5920    4.7100   43.1700 P.3   402  NAD402      0.2189
     25  O1N        3.7600    3.7490   44.3500 O.3   402  NAD402     -0.4371
     26  O2N        3.8270    6.1470   43.5950 O.2   402  NAD402     -0.5170
     27  O5D        4.6510    4.2300   42.0560 O.3   402  NAD402     -0.3112
     28  C5D        5.4350    5.1450   41.2830 C.3   402  NAD402      0.1813
     29  C4D        6.0620    4.3800   40.1780 C.3   402  NAD402      0.1799
     30  O4D        6.7910    3.2050   40.6940 O.3   402  NAD402     -0.3327
     31  C3D        5.0600    3.8540   39.2570 C.3   402  NAD402      0.2158
     32  O3D        5.6330    3.9640   37.9470 O.3   402  NAD402     -0.2175
     33  C2D        4.8660    2.4660   39.5840 C.3   402  NAD402      0.2309
     34  O2D        4.4230    1.7160   38.4480 O.3   402  NAD402     -0.2158
     35  C1D        6.1660    2.0290   40.0020 C.3   402  NAD402      0.2263
     36  N1N        6.1120    0.9300   40.8730 N.pl3 402  NAD402     -0.2787
     37  C2N        5.4620    1.0380   42.0990 C.3   402  NAD402      0.1244
     38  C3N        5.4180   -0.0470   42.9640 C.2   402  NAD402      0.0544
     39  C7N        4.6940    0.0970   44.2970 C.2   402  NAD402      0.2818
     40  O7N        4.8480   -0.7900   45.1690 O.2   402  NAD402     -0.2670
     41  N7N        3.8080    1.2560   44.6180 N.am  402  NAD402     -0.0839
     42  C4N        6.0290   -1.2280   42.6050 C.2   402  NAD402      0.0033
     43  C5N        6.6830   -1.3400   41.3860 C.2   402  NAD402      0.0157
     44  C6N        6.7250   -0.2520   40.5310 C.2   402  NAD402      0.0633
@<TRIPOS>BOND
     1    18    17    1
     2    19    17    2
     3    19    20    1
     4    17    16    1
     5    20    21    1
     6    16    15    2
     7    16    22    1
     8    15    14    1
     9    21    22    2
    10    22    13    1
    11    14    13    1
    12    13    12    1
    13    12     7    1
    14    12    10    1
    15    32    31    1
    16     7     6    1
    17    34    33    1
    18    10    11    1
    19    10     8    1
    20    31    33    1
    21    31    29    1
    22    33    35    1
    23     6     8    1
    24     6     5    1
    25    35    30    1
    26    35    36    1
    27     8     9    1
    28    29    30    1
    29    29    28    1
    30     5     4    1
    31    44    36    1
    32    44    43    2
    33    36    37    1
    34    28    27    1
    35    43    42    1
    36     4     1    1
    37     3     1    2
    38    27    24    1
    39    37    38    1
    40     1    23    1
    41     1     2    1
    42    23    24    1
    43    42    38    2
    44    38    39    1
    45    24    26    2
    46    24    25    1
    47    39    41   am
    48    39    40    2
