@<TRIPOS>MOLECULE
4idk_T27_A_1.pdb
 28 30 0 0 0
SMALL
GASTEIGER

@<TRIPOS>ATOM
      1  C1        51.0440  -26.8420   38.3780 C.ar  601  T27601     -0.0068
      2  N2        52.3060  -25.5640   33.1760 N.2   601  T27601     -0.1683
      3  C3        48.8790  -27.1220   39.3400 C.ar  601  T27601      0.0001
      4  C4        48.4900  -25.8670   38.8970 C.ar  601  T27601     -0.0030
      5  C5        49.4030  -25.0830   38.1930 C.ar  601  T27601     -0.0068
      6  C6        50.6740  -25.5740   37.9250 C.ar  601  T27601      0.0651
      7  C7        52.3980  -27.4230   38.1360 C.3   601  T27601      0.0324
      8  C2        50.1420  -27.6020   39.0810 C.ar  601  T27601     -0.0030
      9  C8        48.9880  -23.7310   37.7030 C.3   601  T27601      0.0324
     10  N1        51.6180  -24.7730   37.1900 N.pl3 601  T27601     -0.1834
     11  C9        52.8270  -24.4170   33.6580 C.2   601  T27601      0.1158
     12  C10       52.6160  -24.1230   35.0110 C.2   601  T27601      0.0720
     13  C11       51.8780  -25.0120   35.8050 C.2   601  T27601      0.2178
     14  N3        51.3890  -26.1450   35.2550 N.2   601  T27601     -0.3189
     15  C12       51.6190  -26.4020   33.9620 C.1   601  T27601      0.1709
     16  N4        51.1130  -27.5940   33.3440 N.pl3 601  T27601     -0.1357
     17  C13       49.1430  -30.9310   35.0100 C.ar  601  T27601      0.0685
     18  C14       49.3200  -29.8040   35.8160 C.ar  601  T27601      0.0116
     19  C15       49.9710  -28.6890   35.2890 C.ar  601  T27601      0.0180
     20  C16       50.4470  -28.6930   33.9820 C.ar  601  T27601      0.0826
     21  C17       50.2560  -29.8220   33.1990 C.ar  601  T27601      0.0180
     22  C18       49.6100  -30.9320   33.7090 C.ar  601  T27601      0.0116
     23  N5        47.9510  -33.1190   35.8790 N.1   601  T27601     -0.1908
     24  C19       48.4700  -32.1650   35.5150 C.1   601  T27601      0.1004
     25  C20       46.9100  -27.5600   40.7770 C.2   601  T27601      0.0780
     26  C21       47.9740  -28.0190   40.0990 C.2   601  T27601      0.0109
     27  N6        45.4600  -29.2520   42.1810 N.1   601  T27601     -0.1908
     28  C22       46.0760  -28.5270   41.5440 C.1   601  T27601      0.1011
@<TRIPOS>BOND
     1     2    11    1
     2     2    15    2
     3    21    22   ar
     4    21    20   ar
     5    16    15    1
     6    16    20    1
     7    11    12    2
     8    22    17   ar
     9    15    14    2
    10    20    19   ar
    11    17    24    1
    12    17    18   ar
    13    12    13    1
    14    14    13    2
    15    19    18   ar
    16    24    23    3
    17    13    10    1
    18    10     6    1
    19     9     5    1
    20     6     5   ar
    21     6     1   ar
    22     7     1    1
    23     5     4   ar
    24     1     8   ar
    25     4     3   ar
    26     8     3   ar
    27     3    26    1
    28    26    25    2
    29    25    28    1
    30    28    27    3
