@<TRIPOS>MOLECULE
4idk_1FE_A_1.pdb
 15 16 0 0 0
SMALL
GASTEIGER

@<TRIPOS>ATOM
      1  O2        31.7220   -5.5750    0.3150 O.2   602  1FE602     -0.1752
      2  C6        30.4820   -5.0050    0.1470 C.1   602  1FE602      0.3554
      3  N2        29.2920   -5.3910    0.6800 N.2   602  1FE602     -0.3058
      4  N3        30.1860   -3.9150   -0.6090 N.2   602  1FE602     -0.3058
      5  C7        28.7880   -3.5590   -0.5810 C.ar  602  1FE602      0.1784
      6  C5        28.1860   -4.5360    0.2730 C.ar  602  1FE602      0.1772
      7  C4        26.7370   -4.4720    0.5300 C.ar  602  1FE602      0.0371
      8  C3        25.9830   -3.4740   -0.0580 C.ar  602  1FE602      0.0194
      9  C8        27.9880   -2.4920   -1.2030 C.ar  602  1FE602      0.0524
     10  C2        26.6340   -2.4340   -0.9680 C.ar  602  1FE602      0.0762
     11  N1        25.8090   -1.4200   -1.5670 N.am  602  1FE602     -0.1779
     12  C1        26.1480   -0.4950   -2.6080 C.2   602  1FE602      0.2650
     13  O1        27.2580   -0.4670   -3.1190 O.2   602  1FE602     -0.2714
     14  C9        25.1080    0.4700   -3.0730 C.3   602  1FE602      0.1959
     15  N4        25.6810    1.3610   -4.0490 N.3   602  1FE602     -0.1209
@<TRIPOS>BOND
     1    15    14    1
     2    13    12    2
     3    14    12    1
     4    12    11   am
     5    11    10    1
     6     9    10   ar
     7     9     5   ar
     8    10     8   ar
     9     4     5    2
    10     4     2    2
    11     5     6   ar
    12     8     7   ar
    13     2     1    2
    14     2     3    2
    15     6     7   ar
    16     6     3    2
