@<TRIPOS>MOLECULE
4idn_GNP_A_1.pdb
 32 34 0 0 0
SMALL
GASTEIGER

@<TRIPOS>ATOM
      1  PG        21.3790   -2.4220  -49.0530 P.3   501  GNP501      0.4884
      2  O1G       20.9210   -3.0770  -50.3380 O.2   501  GNP501     -0.2331
      3  O2G       20.4870   -1.3360  -48.5020 O.3   501  GNP501     -0.1240
      4  O3G       21.5910   -3.3990  -47.9210 O.3   501  GNP501     -0.1240
      5  N3B       22.8050   -1.7560  -49.3550 N.3   501  GNP501     -0.0163
      6  PB        24.0300   -2.4890  -50.0740 P.3   501  GNP501      0.4669
      7  O1B       23.5070   -3.1370  -51.2930 O.2   501  GNP501     -0.2351
      8  O2B       24.7480   -3.3640  -49.1120 O.3   501  GNP501     -0.1253
      9  O3A       25.0330   -1.3760  -50.4950 O.3   501  GNP501     -0.2360
     10  PA        25.0650   -0.6560  -51.8650 P.3   501  GNP501      0.2220
     11  O1A       25.7660   -1.5420  -52.8350 O.2   501  GNP501     -0.5170
     12  O2A       23.7070   -0.1930  -52.2750 O.3   501  GNP501     -0.4370
     13  O5'       25.9220    0.6670  -51.7280 O.3   501  GNP501     -0.3111
     14  C5'       25.7610    1.5150  -50.6010 C.3   501  GNP501      0.1813
     15  C4'       26.8230    2.6090  -50.5690 C.3   501  GNP501      0.1799
     16  O4'       28.1150    2.0390  -50.2520 O.3   501  GNP501     -0.3326
     17  C3'       27.0350    3.4150  -51.8520 C.3   501  GNP501      0.2158
     18  O3'       27.1140    4.8150  -51.5030 O.3   501  GNP501     -0.2175
     19  C2'       28.3790    2.8980  -52.3710 C.3   501  GNP501      0.2310
     20  O2'       29.0610    3.8830  -53.1220 O.3   501  GNP501     -0.2158
     21  C1'       29.1130    2.6530  -51.0630 C.3   501  GNP501      0.2293
     22  N9        30.1940    1.6700  -51.0880 N.pl3 501  GNP501     -0.2354
     23  C8        30.3520    0.6340  -51.9800 C.3   501  GNP501      0.2246
     24  N7        31.3910   -0.1090  -51.7150 N.2   501  GNP501     -0.2322
     25  C5        31.9570    0.4490  -50.5810 C.2   501  GNP501      0.2182
     26  C6        33.0980    0.0480  -49.8430 C.1   501  GNP501      0.2372
     27  O6        33.8690   -0.9120  -50.0500 O.2   501  GNP501     -0.2069
     28  N1        33.3160    0.8910  -48.7530 N.2   501  GNP501     -0.2485
     29  C2        32.5230    1.9680  -48.4150 C.1   501  GNP501      0.2531
     30  N2        32.8980    2.6640  -47.3180 N.pl3 501  GNP501     -0.0226
     31  N3        31.4510    2.3450  -49.1060 N.2   501  GNP501     -0.3074
     32  C4        31.2230    1.5430  -50.1740 C.2   501  GNP501      0.2300
@<TRIPOS>BOND
     1    20    19    1
     2    11    10    2
     3    19    17    1
     4    19    21    1
     5    12    10    1
     6    23    24    1
     7    23    22    1
     8    10    13    1
     9    10     9    1
    10    17    18    1
    11    17    15    1
    12    13    14    1
    13    24    25    2
    14     7     6    2
    15    22    21    1
    16    22    32    1
    17    21    16    1
    18    14    15    1
    19    25    32    1
    20    25    26    1
    21    15    16    1
    22     9     6    1
    23     2     1    2
    24    32    31    2
    25     6     5    1
    26     6     8    1
    27    27    26    2
    28    26    28    2
    29     5     1    1
    30    31    29    2
    31     1     3    1
    32     1     4    1
    33    28    29    2
    34    29    30    1
