@<TRIPOS>MOLECULE
4ido_GDP_A_1.pdb
 28 30 0 0 0
SMALL
GASTEIGER

@<TRIPOS>ATOM
      1  PB       -25.6840   -3.6380   42.1840 P.3   501  GDP501      0.5373
      2  O1B      -26.1410   -4.4380   40.9640 O.2   501  GDP501     -0.2221
      3  O2B      -24.7740   -4.4410   43.0660 O.3   501  GDP501     -0.1143
      4  O3B      -26.8460   -3.1270   42.9600 O.3   501  GDP501     -0.1143
      5  O3A      -24.8370   -2.3320   41.7550 O.3   501  GDP501     -0.2261
      6  PA       -24.7340   -1.7370   40.2590 P.3   501  GDP501      0.2231
      7  O1A      -24.0710   -2.7580   39.3640 O.2   501  GDP501     -0.5169
      8  O2A      -26.0680   -1.3110   39.7010 O.3   501  GDP501     -0.4370
      9  O5'      -23.7300   -0.5030   40.5050 O.3   501  GDP501     -0.3111
     10  C5'      -23.8490    0.3140   41.6710 C.3   501  GDP501      0.1813
     11  C4'      -22.8160    1.4350   41.6370 C.3   501  GDP501      0.1799
     12  O4'      -21.5410    0.8660   41.9130 O.3   501  GDP501     -0.3326
     13  C3'      -22.6600    2.1400   40.2950 C.3   501  GDP501      0.2158
     14  O3'      -22.6050    3.5610   40.5160 O.3   501  GDP501     -0.2175
     15  C2'      -21.3050    1.7010   39.7620 C.3   501  GDP501      0.2310
     16  O2'      -20.6530    2.7260   39.0230 O.3   501  GDP501     -0.2158
     17  C1'      -20.5580    1.4810   41.0530 C.3   501  GDP501      0.2293
     18  N9       -19.4940    0.4900   40.9540 N.pl3 501  GDP501     -0.2354
     19  C8       -19.3630   -0.5080   40.0540 C.3   501  GDP501      0.2246
     20  N7       -18.2680   -1.2430   40.3690 N.2   501  GDP501     -0.2322
     21  C5       -17.7200   -0.7150   41.4920 C.2   501  GDP501      0.2182
     22  C6       -16.5710   -1.0090   42.3650 C.1   501  GDP501      0.2372
     23  O6       -15.8450   -1.9850   42.0890 O.2   501  GDP501     -0.2069
     24  N1       -16.3530   -0.2190   43.4440 N.2   501  GDP501     -0.2485
     25  C2       -17.1530    0.8240   43.7380 C.1   501  GDP501      0.2531
     26  N2       -16.8860    1.5650   44.8300 N.pl3 501  GDP501     -0.0226
     27  N3       -18.2370    1.1470   42.9880 N.2   501  GDP501     -0.3074
     28  C4       -18.5480    0.4120   41.8850 C.2   501  GDP501      0.2300
@<TRIPOS>BOND
     1    16    15    1
     2     7     6    2
     3     8     6    1
     4    15    13    1
     5    15    17    1
     6    19    20    1
     7    19    18    1
     8     6     9    1
     9     6     5    1
    10    13    14    1
    11    13    11    1
    12    20    21    2
    13     9    10    1
    14    18    17    1
    15    18    28    1
    16     2     1    2
    17    17    12    1
    18    21    28    1
    19    21    22    1
    20    11    10    1
    21    11    12    1
    22     5     1    1
    23    28    27    2
    24    23    22    2
    25     1     4    1
    26     1     3    1
    27    22    24    2
    28    27    25    2
    29    24    25    2
    30    25    26    1
