@<TRIPOS>MOLECULE
4idp_GNP_A_1.pdb
 32 34 0 0 0
SMALL
GASTEIGER

@<TRIPOS>ATOM
      1  PG       -21.0940   54.4980  -53.5620 P.3   501  GNP501      0.4884
      2  O1G      -21.8050   54.3900  -54.9050 O.2   501  GNP501     -0.2331
      3  O2G      -19.6180   54.6260  -53.6070 O.3   501  GNP501     -0.1240
      4  O3G      -21.5340   53.3430  -52.6620 O.3   501  GNP501     -0.1240
      5  N3B      -21.5930   55.8700  -52.9100 N.3   501  GNP501     -0.0163
      6  PB       -21.0530   56.5260  -51.5720 P.3   501  GNP501      0.4669
      7  O1B      -21.6410   55.9490  -50.3500 O.3   501  GNP501     -0.1253
      8  O2B      -19.5770   56.4660  -51.5490 O.2   501  GNP501     -0.2351
      9  O3A      -21.5280   57.9900  -51.6430 O.3   501  GNP501     -0.2360
     10  PA       -20.7320   59.2520  -52.0660 P.3   501  GNP501      0.2220
     11  O1A      -20.3230   59.0770  -53.4860 O.2   501  GNP501     -0.5170
     12  O2A      -19.6950   59.5390  -51.0600 O.3   501  GNP501     -0.4370
     13  O5'      -21.8350   60.3770  -52.0100 O.3   501  GNP501     -0.3111
     14  C5'      -23.0360   60.3520  -52.7890 C.3   501  GNP501      0.1813
     15  C4'      -23.8960   61.6030  -52.5870 C.3   501  GNP501      0.1799
     16  O4'      -24.2020   61.6890  -51.1850 O.3   501  GNP501     -0.3326
     17  C3'      -23.2810   62.9620  -52.9480 C.3   501  GNP501      0.2158
     18  O3'      -24.1150   63.7430  -53.7940 O.3   501  GNP501     -0.2175
     19  C2'      -23.1090   63.6420  -51.5980 C.3   501  GNP501      0.2310
     20  O2'      -23.2970   65.0290  -51.6770 O.3   501  GNP501     -0.2158
     21  C1'      -24.2530   63.0360  -50.7980 C.3   501  GNP501      0.2293
     22  N9       -24.0280   63.0070  -49.3570 N.pl3 501  GNP501     -0.2354
     23  C8       -22.8150   62.9380  -48.7140 C.3   501  GNP501      0.2246
     24  N7       -22.9210   62.9200  -47.4120 N.2   501  GNP501     -0.2322
     25  C5       -24.2910   62.9460  -47.1930 C.2   501  GNP501      0.2182
     26  C6       -25.0220   62.9170  -45.9840 C.1   501  GNP501      0.2372
     27  O6       -24.6210   62.8590  -44.8060 O.2   501  GNP501     -0.2069
     28  N1       -26.3790   62.9650  -46.2440 N.2   501  GNP501     -0.2485
     29  C2       -26.9700   63.0370  -47.4630 C.1   501  GNP501      0.2531
     30  N2       -28.3020   63.0780  -47.4630 N.pl3 501  GNP501     -0.0226
     31  N3       -26.2990   63.0510  -48.5910 N.2   501  GNP501     -0.3074
     32  C4       -24.9760   63.0010  -48.3760 C.2   501  GNP501      0.2300
@<TRIPOS>BOND
     1     2     1    2
     2    18    17    1
     3     3     1    1
     4     1     5    1
     5     1     4    1
     6    11    10    2
     7    17    15    1
     8    17    19    1
     9     5     6    1
    10    14    15    1
    11    14    13    1
    12    15    16    1
    13    10    13    1
    14    10     9    1
    15    10    12    1
    16    20    19    1
    17     9     6    1
    18    19    21    1
    19     6     8    2
    20     6     7    1
    21    16    21    1
    22    21    22    1
    23    22    23    1
    24    22    32    1
    25    23    24    1
    26    31    32    2
    27    31    29    2
    28    32    25    1
    29    29    30    1
    30    29    28    2
    31    24    25    2
    32    25    26    1
    33    28    26    2
    34    26    27    2
