@<TRIPOS>MOLECULE
4idq_GDP_A_1.pdb
 28 30 0 0 0
SMALL
GASTEIGER

@<TRIPOS>ATOM
      1  PB       -44.1190   56.5680  -10.9530 P.3   501  GDP501      0.5373
      2  O1B      -43.6160   56.0350  -12.2670 O.2   501  GDP501     -0.2221
      3  O2B      -45.6330   56.4780  -10.9450 O.3   501  GDP501     -0.1143
      4  O3B      -43.5600   55.7690   -9.8020 O.3   501  GDP501     -0.1143
      5  O3A      -43.5420   58.0590  -10.7840 O.3   501  GDP501     -0.2261
      6  PA       -44.4170   59.3230  -10.3320 P.3   501  GDP501      0.2231
      7  O1A      -45.5140   59.5500  -11.3390 O.2   501  GDP501     -0.5169
      8  O2A      -44.9650   59.1880   -8.9280 O.3   501  GDP501     -0.4370
      9  O5'      -43.3180   60.4920  -10.4460 O.3   501  GDP501     -0.3111
     10  C5'      -42.0260   60.3510   -9.8660 C.3   501  GDP501      0.1813
     11  C4'      -41.2120   61.6330  -10.0680 C.3   501  GDP501      0.1799
     12  O4'      -40.9150   61.8420  -11.4420 O.3   501  GDP501     -0.3326
     13  C3'      -41.8990   62.9190   -9.6060 C.3   501  GDP501      0.2158
     14  O3'      -40.9680   63.6390   -8.7900 O.3   501  GDP501     -0.2175
     15  C2'      -42.1550   63.6990  -10.8780 C.3   501  GDP501      0.2310
     16  O2'      -42.1180   65.1190  -10.7070 O.3   501  GDP501     -0.2158
     17  C1'      -40.9910   63.2390  -11.7190 C.3   501  GDP501      0.2293
     18  N9       -41.2570   63.2640  -13.1580 N.pl3 501  GDP501     -0.2354
     19  C8       -42.4410   63.2060  -13.8050 C.3   501  GDP501      0.2246
     20  N7       -42.2360   63.1930  -15.1440 N.2   501  GDP501     -0.2322
     21  C5       -40.8960   63.2260  -15.3380 C.2   501  GDP501      0.2182
     22  C6       -39.9780   63.1950  -16.4880 C.1   501  GDP501      0.2372
     23  O6       -40.4380   63.1580  -17.6410 O.2   501  GDP501     -0.2069
     24  N1       -38.6590   63.2210  -16.2550 N.2   501  GDP501     -0.2485
     25  C2       -38.1470   63.2530  -15.0110 C.1   501  GDP501      0.2531
     26  N2       -36.8010   63.2640  -14.8580 N.pl3 501  GDP501     -0.0226
     27  N3       -38.9270   63.2730  -13.8980 N.2   501  GDP501     -0.3074
     28  C4       -40.2680   63.2640  -14.0200 C.2   501  GDP501      0.2300
@<TRIPOS>BOND
     1    23    22    2
     2    22    24    2
     3    22    21    1
     4    24    25    2
     5    21    20    2
     6    21    28    1
     7    20    19    1
     8    25    26    1
     9    25    27    2
    10    28    27    2
    11    28    18    1
    12    19    18    1
    13    18    17    1
    14     2     1    2
    15    17    12    1
    16    17    15    1
    17    12    11    1
    18     7     6    2
    19     1     3    1
    20     1     5    1
    21     1     4    1
    22    15    16    1
    23    15    13    1
    24     5     6    1
    25     9     6    1
    26     9    10    1
    27     6     8    1
    28    11    10    1
    29    11    13    1
    30    13    14    1
