@<TRIPOS>MOLECULE
4iel_GSH_A_1.pdb
 20 19 0 0 0
SMALL
GASTEIGER

@<TRIPOS>ATOM
      1  N1        47.1420   68.9650   43.8870 N.3   301  GSH301     -0.1208
      2  CA1       46.0500   69.0740   44.7890 C.3   301  GSH301      0.1948
      3  C1        45.1330   67.9070   44.5900 C.2   301  GSH301      0.3819
      4  O11       44.7360   67.6280   43.4230 O.co2 301  GSH301     -0.2441
      5  O12       44.7330   67.2060   45.5730 O.co2 301  GSH301     -0.2441
      6  CB1       45.3160   70.3350   44.4530 C.3   301  GSH301      0.0402
      7  CG1       44.5210   70.8980   45.6400 C.3   301  GSH301      0.0889
      8  CD1       44.4430   72.4060   45.4630 C.2   301  GSH301      0.2418
      9  OE1       45.4410   72.9930   45.0980 O.2   301  GSH301     -0.2733
     10  N2        43.2140   73.1840   45.6960 N.am  301  GSH301     -0.1968
     11  CA2       41.9780   72.6040   46.1370 C.3   301  GSH301      0.1843
     12  C2        40.9280   72.5210   45.0350 C.2   301  GSH301      0.2627
     13  O2        40.1030   71.5970   45.0790 O.2   301  GSH301     -0.2714
     14  CB2       41.4710   73.3380   47.3340 C.3   301  GSH301      0.0997
     15  SG2       42.5800   73.0390   48.6860 S.3   301  GSH301     -0.0797
     16  N3        40.8690   73.4830   43.9350 N.am  301  GSH301     -0.1917
     17  CA3       39.8750   73.3540   42.8740 C.3   301  GSH301      0.2285
     18  C3        38.6060   74.1200   43.0550 C.2   301  GSH301      0.3865
     19  O31       37.5370   73.5080   43.3430 O.co2 301  GSH301     -0.2437
     20  O32       38.5980   75.3670   42.8770 O.co2 301  GSH301     -0.2437
@<TRIPOS>BOND
     1    17    18    1
     2    17    16    1
     3    20    18   ar
     4    18    19   ar
     5     4     3   ar
     6     1     2    1
     7    16    12   am
     8     6     2    1
     9     6     7    1
    10     3     2    1
    11     3     5   ar
    12    12    13    2
    13    12    11    1
    14     9     8    2
    15     8     7    1
    16     8    10   am
    17    10    11    1
    18    11    14    1
    19    14    15    1
