@<TRIPOS>MOLECULE
4ifb_PPS_A_1.pdb
 31 33 0 0 0
SMALL
GASTEIGER

@<TRIPOS>ATOM
      1  S2        -6.0020  -11.6570   54.9780 S.3   302  PPS302      0.0049
      2  OS1       -6.2770  -10.0280   54.7880 O.2   302  PPS302     -0.3449
      3  OS2       -4.8300  -12.0380   54.1990 O.2   302  PPS302     -0.3449
      4  OS3       -5.7090  -11.8860   56.3800 O.3   302  PPS302     -0.2679
      5  O6P       -7.2630  -12.4950   54.5470 O.3   302  PPS302     -0.1945
      6  P2        -7.5230  -13.9520   55.1740 P.3   302  PPS302      0.2383
      7  O4P       -8.0950  -13.7660   56.5910 O.3   302  PPS302     -0.4361
      8  O5P       -6.3150  -14.8680   55.1500 O.2   302  PPS302     -0.5161
      9  O5'       -8.6140  -14.6310   54.2030 O.3   302  PPS302     -0.3102
     10  C5'       -9.9110  -14.1210   53.9840 C.3   302  PPS302      0.1813
     11  C4'      -10.7150  -15.2680   53.3840 C.3   302  PPS302      0.1795
     12  O4'      -11.0560  -16.2240   54.4110 O.3   302  PPS302     -0.3136
     13  C1'      -12.4620  -16.2960   54.5230 C.3   302  PPS302      0.3185
     14  N9       -12.9780  -16.5060   55.8820 N.pl3 302  PPS302     -0.1439
     15  C4       -13.8050  -17.5000   56.2470 C.2   302  PPS302      0.3518
     16  N3       -14.2930  -18.6280   55.6570 N.2   302  PPS302     -0.0055
     17  C2       -15.0640  -19.5030   56.3550 C.3   302  PPS302      0.5254
     18  N1       -15.4400  -19.2760   57.6350 N.2   302  PPS302      0.0021
     19  C6       -15.0240  -18.1990   58.3420 C.2   302  PPS302      0.4393
     20  N6       -15.4040  -17.9790   59.6410 N.pl3 302  PPS302      0.2180
     21  C5       -14.1490  -17.2290   57.6470 C.2   302  PPS302      0.2526
     22  N7       -13.5530  -16.0660   57.9890 N.2   302  PPS302     -0.2095
     23  C8       -12.8510  -15.6400   56.9170 C.3   302  PPS302      0.3377
     24  C2'      -12.9440  -14.9340   53.9890 C.3   302  PPS302      0.2543
     25  O2'      -14.3470  -14.9300   53.6710 O.3   302  PPS302     -0.2131
     26  C3'      -12.0270  -14.7710   52.7750 C.3   302  PPS302      0.1928
     27  O3'      -12.3270  -15.7250   51.7350 O.3   302  PPS302     -0.2673
     28  P1       -13.3610  -15.4950   50.4710 P.3   302  PPS302      0.5327
     29  O1P      -12.9040  -14.1560   49.8870 O.3   302  PPS302     -0.1145
     30  O2P      -14.7470  -15.4940   51.1020 O.3   302  PPS302     -0.1145
     31  O3P      -13.1030  -16.7060   49.6330 O.2   302  PPS302     -0.2224
@<TRIPOS>BOND
     1    31    28    2
     2    29    28    1
     3    28    30    1
     4    28    27    1
     5    27    26    1
     6    26    11    1
     7    26    24    1
     8    11    10    1
     9    11    12    1
    10    25    24    1
    11    10     9    1
    12    24    13    1
    13     3     1    2
    14     9     6    1
    15    12    13    1
    16    13    14    1
    17     5     1    1
    18     5     6    1
    19     2     1    2
    20     1     4    1
    21     8     6    2
    22     6     7    1
    23    16    15    2
    24    16    17    1
    25    14    15    1
    26    14    23    1
    27    15    21    1
    28    17    18    1
    29    23    22    1
    30    18    19    2
    31    21    22    2
    32    21    19    1
    33    19    20    1
