@<TRIPOS>MOLECULE
4ifv_FMQ_A_1.pdb
 15 16 0 0 0
SMALL
GASTEIGER

@<TRIPOS>ATOM
      1  F12        2.9950    6.0930    8.1610 F     602  FMQ602     -0.2042
      2  C9         3.5210    5.3100    8.9990 C.ar  602  FMQ602      0.1402
      3  C8         2.6840    4.5900    9.9060 C.ar  602  FMQ602      0.0312
      4  C7         3.2570    3.7420   10.8170 C.ar  602  FMQ602      0.0214
      5  C10        4.8380    5.1660    9.0330 C.ar  602  FMQ602      0.0312
      6  C11        5.4340    4.2930    9.9670 C.ar  602  FMQ602      0.0214
      7  C6         4.6340    3.5900   10.8490 C.ar  602  FMQ602      0.0826
      8  N3         5.1880    2.7200   11.8020 N.ar  602  FMQ602     -0.2339
      9  C2         5.6650    1.4710   11.5660 C.ar  602  FMQ602      0.0609
     10  C13        5.7090    0.7720   10.2110 C.3   602  FMQ602      0.0519
     11  N4         5.3090    2.9920   13.0850 N.ar  602  FMQ602     -0.1641
     12  C5         5.8640    1.9350   13.6980 C.ar  602  FMQ602      0.1199
     13  C1         6.0910    0.9770   12.7500 C.ar  602  FMQ602      0.0451
     14  C14        6.7070   -0.3690   12.9970 C.3   602  FMQ602      0.2114
     15  O15        7.7880   -0.7830   12.0960 O.3   602  FMQ602     -0.2151
@<TRIPOS>BOND
     1     1     2    1
     2     2     5   ar
     3     2     3   ar
     4     5     6   ar
     5     3     4   ar
     6     6     7   ar
     7    10     9    1
     8     4     7   ar
     9     7     8    1
    10     9     8   ar
    11     9    13   ar
    12     8    11   ar
    13    15    14    1
    14    13    14    1
    15    13    12   ar
    16    11    12   ar
