@<TRIPOS>MOLECULE
4ifv_T27_A_1.pdb
 28 30 0 0 0
SMALL
GASTEIGER

@<TRIPOS>ATOM
      1  C1        51.1580  -26.8030   38.4380 C.ar  601  T27601     -0.0068
      2  N2        52.5560  -25.6140   33.2420 N.2   601  T27601     -0.1683
      3  C3        48.9540  -27.0640   39.3730 C.ar  601  T27601      0.0001
      4  C4        48.5920  -25.8170   38.8880 C.ar  601  T27601     -0.0030
      5  C5        49.5180  -25.0530   38.1840 C.ar  601  T27601     -0.0068
      6  C6        50.8020  -25.5460   37.9510 C.ar  601  T27601      0.0651
      7  C7        52.5210  -27.3840   38.2300 C.3   601  T27601      0.0324
      8  C2        50.2300  -27.5500   39.1460 C.ar  601  T27601     -0.0030
      9  C8        49.1120  -23.7070   37.6700 C.3   601  T27601      0.0324
     10  N1        51.7580  -24.7570   37.2260 N.pl3 601  T27601     -0.1834
     11  C9        53.0770  -24.4780   33.7340 C.2   601  T27601      0.1158
     12  C10       52.8260  -24.1670   35.0720 C.2   601  T27601      0.0720
     13  C11       52.0500  -25.0310   35.8460 C.2   601  T27601      0.2178
     14  N3        51.5630  -26.1600   35.2880 N.2   601  T27601     -0.3189
     15  C12       51.8300  -26.4320   34.0050 C.1   601  T27601      0.1709
     16  N4        51.3370  -27.6120   33.3530 N.pl3 601  T27601     -0.1357
     17  C13       49.3580  -30.9510   35.0020 C.ar  601  T27601      0.0685
     18  C14       49.5280  -29.8240   35.7950 C.ar  601  T27601      0.0116
     19  C15       50.1770  -28.7110   35.2710 C.ar  601  T27601      0.0180
     20  C16       50.6660  -28.7200   33.9700 C.ar  601  T27601      0.0826
     21  C17       50.4850  -29.8520   33.1890 C.ar  601  T27601      0.0180
     22  C18       49.8340  -30.9600   33.7080 C.ar  601  T27601      0.0116
     23  N5        48.1520  -33.1110   35.9090 N.1   601  T27601     -0.1908
     24  C19       48.6760  -32.1710   35.5230 C.1   601  T27601      0.1004
     25  C20       46.9280  -27.4700   40.7980 C.2   601  T27601      0.0780
     26  C21       47.9970  -27.9290   40.1180 C.2   601  T27601      0.0109
     27  N6        45.5650  -29.1840   42.2280 N.1   601  T27601     -0.1908
     28  C22       46.1880  -28.4280   41.6560 C.1   601  T27601      0.1011
@<TRIPOS>BOND
     1    21    22   ar
     2    21    20   ar
     3     2    11    1
     4     2    15    2
     5    16    20    1
     6    16    15    1
     7    22    17   ar
     8    11    12    2
     9    20    19   ar
    10    15    14    2
    11    17    24    1
    12    17    18   ar
    13    12    13    1
    14    19    18   ar
    15    14    13    2
    16    24    23    3
    17    13    10    1
    18    10     6    1
    19     9     5    1
    20     6     5   ar
    21     6     1   ar
    22     5     4   ar
    23     7     1    1
    24     1     8   ar
    25     4     3   ar
    26     8     3   ar
    27     3    26    1
    28    26    25    2
    29    25    28    1
    30    28    27    3
