@<TRIPOS>MOLECULE
4ifw_ADP_A_1.pdb
 39 41 0 0 0
SMALL
GASTEIGER

@<TRIPOS>ATOM
      1  PB        42.8390   34.2750   15.6950 P.3   501  ADP501      0.5373
      2  O1B       44.0030   33.4290   15.2340 O.3   501  ADP501     -0.1143
      3  O2B       43.1390   35.0780   16.9380 O.3   501  ADP501     -0.1143
      4  O3B       42.1460   35.0500   14.5980 O.2   501  ADP501     -0.2221
      5  PA        40.1580   33.4450   16.1730 P.3   501  ADP501      0.2224
      6  O1A       39.8130   34.4590   15.1090 O.2   501  ADP501     -0.5170
      7  O2A       39.4870   32.0900   16.1470 O.3   501  ADP501     -0.4370
      8  O3A       41.7540   33.1950   16.2030 O.3   501  ADP501     -0.2261
      9  O5'       39.8850   34.1300   17.6010 O.3   501  ADP501     -0.3245
     10  C5'       40.5470   33.6420   18.7610 C.3   501  ADP501      0.0836
     11  C4'       40.4930   34.7110   19.8410 C.3   501  ADP501      0.1131
     12  O4'       39.1510   35.1830   19.9730 O.3   501  ADP501     -0.3474
     13  C3'       40.9390   34.2040   21.2030 C.3   501  ADP501      0.1133
     14  O3'       42.2820   34.6140   21.4800 O.3   501  ADP501     -0.3864
     15  C2'       39.9520   34.8110   22.1770 C.3   501  ADP501      0.1266
     16  O2'       40.4780   36.0240   22.7250 O.3   501  ADP501     -0.3849
     17  C1'       38.7240   35.1010   21.3330 C.3   501  ADP501      0.1617
     18  N9        37.7450   33.9910   21.3810 N.pl3 501  ADP501     -0.2234
     19  C8        37.9450   32.7560   21.8890 C.2   501  ADP501      0.1451
     20  N7        36.8270   32.0010   21.7440 N.2   501  ADP501     -0.3871
     21  C5        35.9010   32.7610   21.1300 C.2   501  ADP501      0.2211
     22  C6        34.5100   32.5830   20.6720 C.2   501  ADP501      0.2227
     23  N6        33.8910   31.3980   20.8670 N.pl3 501  ADP501     -0.3300
     24  N1        33.8920   33.6260   20.0730 N.2   501  ADP501     -0.3296
     25  C2        34.5110   34.8050   19.8860 C.1   501  ADP501      0.0930
     26  N3        35.7760   35.0290   20.2780 N.2   501  ADP501     -0.3287
     27  C4        36.5070   34.0710   20.8960 C.2   501  ADP501      0.2354
     28 H5'1       40.0570   32.7320   19.1140 H     501  ADP501      0.0591
     29 H5'2       41.5860   33.4040   18.5240 H     501  ADP501      0.0591
     30  H4'       41.1500   35.5410   19.5440 H     501  ADP501      0.0647
     31  H3'       40.8550   33.1090   21.2310 H     501  ADP501      0.0647
     32 HO3'       42.5470   34.2830   22.3490 H     501  ADP501      0.2100
     33  H2'       39.7060   34.0870   22.9670 H     501  ADP501      0.0663
     34 HO2'       41.2930   35.8320   23.2090 H     501  ADP501      0.2101
     35  H1'       38.2640   36.0460   21.6570 H     501  ADP501      0.0841
     36  H8        38.8640   32.4180   22.3500 H     501  ADP501      0.1149
     37 HN61       34.3810   30.6400   21.3200 H     501  ADP501      0.1448
     38 HN62       32.9370   31.2710   20.5600 H     501  ADP501      0.1448
     39  H2        33.9680   35.6060   19.3990 H     501  ADP501      0.1751
@<TRIPOS>BOND
     1     4     1    2
     2     6     5    2
     3     2     1    1
     4     1     8    1
     5     1     3    1
     6     7     5    1
     7     5     8    1
     8     5     9    1
     9     9    10    1
    10    29    10    1
    11    10    28    1
    12    10    11    1
    13    39    25    1
    14    30    11    1
    15    11    12    1
    16    11    13    1
    17    25    24    2
    18    25    26    2
    19    12    17    1
    20    24    22    2
    21    26    27    2
    22    38    23    1
    23    22    23    1
    24    22    21    1
    25    23    37    1
    26    27    21    1
    27    27    18    1
    28    21    20    2
    29    13    31    1
    30    13    14    1
    31    13    15    1
    32    17    18    1
    33    17    35    1
    34    17    15    1
    35    18    19    1
    36    14    32    1
    37    20    19    2
    38    19    36    1
    39    15    16    1
    40    15    33    1
    41    16    34    1
