@<TRIPOS>MOLECULE
4ify_1FD_A_1.pdb
 13 13 0 0 0
SMALL
GASTEIGER

@<TRIPOS>ATOM
      1  F3        57.2930  -18.9460   55.3760 F     611  1FD611     -0.1328
      2  C1        57.1400  -19.9190   54.4880 C.3   611  1FD611      0.5753
      3  F1        55.9200  -19.8340   53.9720 F     611  1FD611     -0.1328
      4  F2        58.0430  -19.7660   53.5290 F     611  1FD611     -0.1328
      5  O         57.2940  -21.1630   55.0610 O.3   611  1FD611     -0.4045
      6  C2        57.8360  -21.3340   56.3130 C.ar  611  1FD611      0.1468
      7  C7        57.0830  -21.0830   57.4530 C.ar  611  1FD611      0.0369
      8  C6        57.6410  -21.2620   58.7100 C.ar  611  1FD611      0.0003
      9  C5        58.9530  -21.7060   58.8250 C.ar  611  1FD611     -0.0030
     10  C8        59.5680  -21.8970   60.1720 C.3   611  1FD611      0.1356
     11  N         60.2260  -20.7470   60.7360 N.3   611  1FD611     -0.1262
     12  C4        59.7010  -21.9650   57.6860 C.ar  611  1FD611      0.0003
     13  C3        59.1430  -21.7800   56.4290 C.ar  611  1FD611      0.0369
@<TRIPOS>BOND
     1     4     2    1
     2     3     2    1
     3     2     5    1
     4     2     1    1
     5     5     6    1
     6     6    13   ar
     7     6     7   ar
     8    13    12   ar
     9     7     8   ar
    10    12     9   ar
    11     8     9   ar
    12     9    10    1
    13    10    11    1
