@<TRIPOS>MOLECULE
4ify_T27_A_1.pdb
 28 30 0 0 0
SMALL
GASTEIGER

@<TRIPOS>ATOM
      1  C1        51.0080  -26.9150   38.4210 C.ar  601  T27601     -0.0068
      2  N2        52.3640  -25.7570   33.1910 N.2   601  T27601     -0.1683
      3  C3        48.8460  -27.1860   39.3890 C.ar  601  T27601      0.0001
      4  C4        48.4520  -25.9390   38.9270 C.ar  601  T27601     -0.0030
      5  C5        49.3650  -25.1730   38.1990 C.ar  601  T27601     -0.0068
      6  C6        50.6430  -25.6590   37.9400 C.ar  601  T27601      0.0651
      7  C7        52.3560  -27.5070   38.1960 C.3   601  T27601      0.0324
      8  C2        50.1040  -27.6550   39.1450 C.ar  601  T27601     -0.0030
      9  C8        48.9550  -23.8270   37.6820 C.3   601  T27601      0.0324
     10  N1        51.5820  -24.8710   37.1900 N.pl3 601  T27601     -0.1834
     11  C9        52.8970  -24.6190   33.6770 C.2   601  T27601      0.1158
     12  C10       52.6520  -24.3040   35.0220 C.2   601  T27601      0.0720
     13  C11       51.8700  -25.1550   35.8100 C.2   601  T27601      0.2178
     14  N3        51.3720  -26.2820   35.2580 N.2   601  T27601     -0.3189
     15  C12       51.6380  -26.5620   33.9710 C.1   601  T27601      0.1709
     16  N4        51.1340  -27.7370   33.3300 N.pl3 601  T27601     -0.1357
     17  C13       49.1830  -31.0950   34.9790 C.ar  601  T27601      0.0685
     18  C14       49.3970  -29.9810   35.7930 C.ar  601  T27601      0.0116
     19  C15       50.0390  -28.8600   35.2670 C.ar  601  T27601      0.0180
     20  C16       50.4800  -28.8500   33.9540 C.ar  601  T27601      0.0826
     21  C17       50.2520  -29.9620   33.1540 C.ar  601  T27601      0.0180
     22  C18       49.6030  -31.0720   33.6690 C.ar  601  T27601      0.0116
     23  N5        47.9930  -33.2850   35.8370 N.1   601  T27601     -0.1908
     24  C19       48.5100  -32.3310   35.4810 C.1   601  T27601      0.1004
     25  C20       46.8280  -27.6790   40.7790 C.2   601  T27601      0.0780
     26  C21       47.9720  -28.1180   40.1750 C.2   601  T27601      0.0109
     27  N6        45.4830  -29.4010   42.2430 N.1   601  T27601     -0.1908
     28  C22       46.0730  -28.6290   41.6520 C.1   601  T27601      0.1011
@<TRIPOS>BOND
     1    21    22   ar
     2    21    20   ar
     3     2    11    1
     4     2    15    2
     5    16    20    1
     6    16    15    1
     7    22    17   ar
     8    11    12    2
     9    20    19   ar
    10    15    14    2
    11    17    24    1
    12    17    18   ar
    13    12    13    1
    14    14    13    2
    15    19    18   ar
    16    24    23    3
    17    13    10    1
    18    10     6    1
    19     9     5    1
    20     6     5   ar
    21     6     1   ar
    22     7     1    1
    23     5     4   ar
    24     1     8   ar
    25     4     3   ar
    26     8     3   ar
    27     3    26    1
    28    26    25    2
    29    25    28    1
    30    28    27    3
