@<TRIPOS>MOLECULE
4ifz_AMP_A_1.pdb
 35 37 0 0 0
SMALL
GASTEIGER

@<TRIPOS>ATOM
      1  P         40.0820   35.0160   15.9290 P.3   501  AMP501      0.5320
      2  O1P       39.6310   36.0680   14.9380 O.2   501  AMP501     -0.2224
      3  O2P       39.2180   33.7760   15.9270 O.3   501  AMP501     -0.1145
      4  O3P       41.5580   34.6960   16.0030 O.3   501  AMP501     -0.1145
      5  O5'       39.7450   35.7890   17.2710 O.3   501  AMP501     -0.2809
      6  C5'       40.0380   35.2200   18.5300 C.3   501  AMP501      0.0880
      7  C4'       40.1420   36.2550   19.6350 C.3   501  AMP501      0.1132
      8  O4'       38.8460   36.8640   19.9110 O.3   501  AMP501     -0.3474
      9  C3'       40.6290   35.7080   20.9800 C.3   501  AMP501      0.1133
     10  O3'       42.0350   35.8170   21.0950 O.3   501  AMP501     -0.3864
     11  C2'       39.8610   36.5360   22.0230 C.3   501  AMP501      0.1266
     12  O2'       40.4720   37.8080   22.1820 O.3   501  AMP501     -0.3849
     13  C1'       38.5440   36.7730   21.3090 C.3   501  AMP501      0.1617
     14  N9        37.6070   35.6530   21.4430 N.pl3 501  AMP501     -0.2234
     15  C8        37.8420   34.4100   21.9140 C.2   501  AMP501      0.1451
     16  N7        36.7510   33.6190   21.7530 N.2   501  AMP501     -0.3871
     17  C5        35.8090   34.3960   21.1520 C.2   501  AMP501      0.2211
     18  C6        34.4410   34.2110   20.6590 C.2   501  AMP501      0.2227
     19  N6        33.8300   33.0220   20.8170 N.pl3 501  AMP501     -0.3300
     20  N1        33.8250   35.2210   20.0540 N.2   501  AMP501     -0.3296
     21  C2        34.4240   36.4420   19.8790 C.1   501  AMP501      0.0930
     22  N3        35.6540   36.6840   20.3260 N.2   501  AMP501     -0.3287
     23  C4        36.3870   35.7090   20.9240 C.2   501  AMP501      0.2354
     24 H5'1       40.9800   34.6720   18.4640 H     501  AMP501      0.0592
     25 H5'2       39.2570   34.5010   18.7870 H     501  AMP501      0.0592
     26  H4'       40.8460   37.0330   19.3080 H     501  AMP501      0.0647
     27  H3'       40.3250   34.6560   21.0670 H     501  AMP501      0.0647
     28 HO3'       42.3170   35.4670   21.9510 H     501  AMP501      0.2100
     29  H2'       39.7250   35.9920   22.9680 H     501  AMP501      0.0663
     30 HO2'       41.3780   37.6930   22.5010 H     501  AMP501      0.2101
     31  H1'       38.0900   37.7070   21.6700 H     501  AMP501      0.0841
     32  H8        38.7670   34.0950   22.3800 H     501  AMP501      0.1149
     33 HN61       32.8790   32.8970   20.5000 H     501  AMP501      0.1448
     34 HN62       34.3140   32.2620   21.2740 H     501  AMP501      0.1448
     35  H2        33.8690   37.2400   19.4030 H     501  AMP501      0.1751
@<TRIPOS>BOND
     1     2     1    2
     2     3     1    1
     3     1     4    1
     4     1     5    1
     5     5     6    1
     6    24     6    1
     7     6    25    1
     8     6     7    1
     9    26     7    1
    10    35    21    1
    11     7     8    1
    12     7     9    1
    13    21    20    2
    14    21    22    2
    15     8    13    1
    16    20    18    2
    17    22    23    2
    18    33    19    1
    19    18    19    1
    20    18    17    1
    21    19    34    1
    22    23    17    1
    23    23    14    1
    24     9    27    1
    25     9    10    1
    26     9    11    1
    27    10    28    1
    28    17    16    2
    29    13    14    1
    30    13    31    1
    31    13    11    1
    32    14    15    1
    33    16    15    2
    34    15    32    1
    35    11    12    1
    36    11    29    1
    37    12    30    1
