@<TRIPOS>MOLECULE
4ig0_1FG_A_1.pdb
 27 30 0 0 0
SMALL
GASTEIGER

@<TRIPOS>ATOM
      1  O2        53.4010  -25.6080   32.8690 O.2   601  1FG601     -0.2085
      2  C15       53.2970  -26.5350   33.8840 C.1   601  1FG601      0.2163
      3  N3        52.7690  -27.7770   33.6290 N.2   601  1FG601     -0.2693
      4  C16       53.7420  -26.2140   35.2220 C.2   601  1FG601      0.1218
      5  C21       53.6110  -27.1820   36.1870 C.2   601  1FG601      0.1548
      6  C20       54.0340  -26.9170   37.5260 C.2   601  1FG601      0.0295
      7  C19       54.5780  -25.6730   37.8470 C.2   601  1FG601     -0.0187
      8  C18       54.7120  -24.6830   36.8650 C.3   601  1FG601      0.0529
      9  C17       54.2970  -24.9410   35.5540 C.2   601  1FG601     -0.0061
     10  N4        53.0560  -28.4390   35.8540 N.2   601  1FG601     -0.3409
     11  C14       52.6560  -28.7080   34.5950 C.1   601  1FG601      0.1427
     12  C13       52.0420  -30.0880   34.2500 C.3   601  1FG601      0.2005
     13  N1        50.5800  -30.1000   34.0770 N.3   601  1FG601     -0.2492
     14  C1        50.0740  -31.4040   33.6740 C.3   601  1FG601      0.0909
     15  C2        49.8890  -29.5050   35.2530 C.3   601  1FG601      0.1602
     16  C3        49.8030  -30.1860   36.6230 C.2   601  1FG601      0.2495
     17  O1        49.9550  -31.3960   36.7100 O.2   601  1FG601     -0.2727
     18  N2        49.5120  -29.4600   37.8880 N.am  601  1FG601     -0.2356
     19  C12       49.2810  -28.0180   38.0190 C.ar  601  1FG601      0.0545
     20  C11       50.0190  -27.0280   37.3230 C.ar  601  1FG601      0.0149
     21  C10       49.7260  -25.6760   37.5190 C.ar  601  1FG601      0.0013
     22  C9        48.7080  -25.2840   38.4180 C.ar  601  1FG601     -0.0002
     23  C8        47.9820  -26.2560   39.1140 C.ar  601  1FG601     -0.0027
     24  C7        48.2790  -27.6130   38.9100 C.ar  601  1FG601     -0.0037
     25  C6        47.5170  -28.7120   39.6620 C.3   601  1FG601      0.0549
     26  C5        48.4790  -29.7630   40.1160 C.2   601  1FG601     -0.0049
     27  C4        49.4330  -30.2510   39.0710 C.2   601  1FG601      0.0678
@<TRIPOS>BOND
     1     1     2    2
     2     3     2    2
     3     3    11    2
     4    14    13    1
     5     2     4    1
     6    13    12    1
     7    13    15    1
     8    12    11    1
     9    11    10    2
    10     4     9    2
    11     4     5    1
    12    15    16    1
    13     9     8    1
    14    10     5    2
    15     5     6    1
    16    16    17    2
    17    16    18   am
    18     8     7    1
    19    20    21   ar
    20    20    19   ar
    21    21    22   ar
    22     6     7    2
    23    18    19    1
    24    18    27    1
    25    19    24   ar
    26    22    23   ar
    27    24    23   ar
    28    24    25    1
    29    27    26    2
    30    25    26    1
