@<TRIPOS>MOLECULE
4ig1_AMP_A_1.pdb
 35 37 0 0 0
SMALL
GASTEIGER

@<TRIPOS>ATOM
      1  P         40.1470   34.9430   15.8620 P.3   501  AMP501      0.5320
      2  O1P       39.8430   35.9860   14.8130 O.2   501  AMP501     -0.2224
      3  O2P       39.2910   33.6810   15.8200 O.3   501  AMP501     -0.1145
      4  O3P       41.6390   34.6370   15.9110 O.3   501  AMP501     -0.1145
      5  O5'       39.7280   35.7490   17.1810 O.3   501  AMP501     -0.2809
      6  C5'       39.8190   35.1630   18.4600 C.3   501  AMP501      0.0880
      7  C4'       40.0930   36.1920   19.5230 C.3   501  AMP501      0.1132
      8  O4'       38.8630   36.8790   19.8830 O.3   501  AMP501     -0.3474
      9  C3'       40.6520   35.6340   20.8270 C.3   501  AMP501      0.1133
     10  O3'       42.0680   35.7000   20.8430 O.3   501  AMP501     -0.3864
     11  C2'       39.9600   36.4660   21.9070 C.3   501  AMP501      0.1266
     12  O2'       40.6040   37.7190   22.0590 O.3   501  AMP501     -0.3849
     13  C1'       38.6130   36.7250   21.2640 C.3   501  AMP501      0.1617
     14  N9        37.6790   35.5960   21.3930 N.pl3 501  AMP501     -0.2234
     15  C8        37.9130   34.3500   21.8570 C.2   501  AMP501      0.1451
     16  N7        36.8180   33.5750   21.6980 N.2   501  AMP501     -0.3871
     17  C5        35.8860   34.3580   21.1100 C.2   501  AMP501      0.2211
     18  C6        34.5250   34.1770   20.6060 C.2   501  AMP501      0.2227
     19  N6        33.9020   32.9880   20.7750 N.pl3 501  AMP501     -0.3300
     20  N1        33.9070   35.2300   20.0410 N.2   501  AMP501     -0.3296
     21  C2        34.5030   36.4210   19.9030 C.1   501  AMP501      0.0930
     22  N3        35.7500   36.6510   20.3150 N.2   501  AMP501     -0.3287
     23  C4        36.4660   35.6680   20.8960 C.2   501  AMP501      0.2354
     24 H5'1       38.8840   34.6460   18.6880 H     501  AMP501      0.0592
     25 H5'2       40.6190   34.4190   18.4610 H     501  AMP501      0.0592
     26  H4'       40.8130   36.9180   19.1220 H     501  AMP501      0.0647
     27  H3'       40.3270   34.5890   20.9280 H     501  AMP501      0.0647
     28 HO3'       42.3980   35.3420   21.6790 H     501  AMP501      0.2100
     29  H2'       39.8600   35.9110   22.8500 H     501  AMP501      0.0663
     30 HO2'       41.5200   37.5790   22.3360 H     501  AMP501      0.2101
     31  H1'       38.1750   37.6420   21.6830 H     501  AMP501      0.0841
     32  H8        38.8430   34.0210   22.3050 H     501  AMP501      0.1149
     33 HN61       34.3880   32.2220   21.2210 H     501  AMP501      0.1448
     34 HN62       32.9470   32.8700   20.4680 H     501  AMP501      0.1448
     35  H2        33.9560   37.2250   19.4260 H     501  AMP501      0.1751
@<TRIPOS>BOND
     1     2     1    2
     2     3     1    1
     3     1     4    1
     4     1     5    1
     5     5     6    1
     6     6    25    1
     7     6    24    1
     8     6     7    1
     9    26     7    1
    10    35    21    1
    11     7     8    1
    12     7     9    1
    13     8    13    1
    14    21    20    2
    15    21    22    2
    16    20    18    2
    17    22    23    2
    18    34    19    1
    19    18    19    1
    20    18    17    1
    21    19    33    1
    22     9    10    1
    23     9    27    1
    24     9    11    1
    25    10    28    1
    26    23    17    1
    27    23    14    1
    28    17    16    2
    29    13    14    1
    30    13    31    1
    31    13    11    1
    32    14    15    1
    33    16    15    2
    34    15    32    1
    35    11    12    1
    36    11    29    1
    37    12    30    1
