@<TRIPOS>MOLECULE
4ig3_J94_A_1.pdb
 28 33 0 0 0
SMALL
GASTEIGER

@<TRIPOS>ATOM
      1  C01       60.8300   -6.1260   50.7420 C.3   609  J94609      0.3355
      2  N02       61.8410   -7.1890   51.0930 N.pl3 609  J94609     -0.3097
      3  C03       62.5530   -6.7320   52.2460 C.3   609  J94609      0.3355
      4  C04       62.7150   -7.2700   49.9230 C.2   609  J94609      0.2237
      5  C05       62.2700   -8.0970   48.7680 C.2   609  J94609      0.0690
      6  C06       61.0290   -8.8290   48.8910 C.ar  609  J94609      0.0113
      7  C07       60.4580   -9.0350   50.0980 C.ar  609  J94609      0.0493
      8  C08       59.2200   -9.7660   50.2070 C.ar  609  J94609      0.0423
      9  C09       58.6100  -10.2740   49.0380 C.ar  609  J94609      0.1763
     10  O10       57.4360  -10.9990   48.8840 O.3   609  J94609     -0.4346
     11  C11       57.4760  -11.4950   47.5670 C.3   609  J94609      0.4294
     12  O12       58.3770  -10.6880   46.8760 O.3   609  J94609     -0.4346
     13  C13       59.1720  -10.0930   47.8340 C.ar  609  J94609      0.1764
     14  C14       60.4140   -9.3630   47.7200 C.ar  609  J94609      0.0403
     15  C15       61.1070   -8.4760   51.3840 C.3   609  J94609      0.2588
     16  C16       61.9380   -9.4790   52.0400 C.3   609  J94609      0.2603
     17  O17       62.9170  -10.0360   51.1880 O.3   609  J94609     -0.4372
     18  C18       62.8300  -11.4330   51.2060 C.2   609  J94609      0.3445
     19  O19       63.4950  -12.1680   50.5260 O.2   609  J94609     -0.2448
     20  C20       61.7630  -11.8030   52.1490 C.ar  609  J94609      0.1123
     21  C21       61.2800  -13.1010   52.5750 C.ar  609  J94609      0.1824
     22  O22       61.6630  -14.4090   52.2340 O.3   609  J94609     -0.4344
     23  C23       61.0250  -15.2640   53.1230 C.3   609  J94609      0.4294
     24  O24       59.9720  -14.5270   53.6960 O.3   609  J94609     -0.4346
     25  C25       60.2530  -13.1860   53.4700 C.ar  609  J94609      0.1766
     26  C26       59.6600  -12.0100   53.9590 C.ar  609  J94609      0.0400
     27  C27       60.1260  -10.7860   53.5740 C.ar  609  J94609      0.0030
     28  C28       61.2130  -10.6820   52.6320 C.ar  609  J94609      0.0337
@<TRIPOS>UNITY_ATOM_ATTR
2 1
charge 1
@<TRIPOS>BOND
     1    12    11    1
     2    12    13    1
     3    11    10    1
     4    14    13   ar
     5    14     6   ar
     6    13     9   ar
     7     5     6    1
     8     5     4    2
     9    10     9    1
    10     6     7   ar
    11     9     8   ar
    12     4     2    1
    13     7     8   ar
    14     7    15    1
    15    19    18    2
    16     1     2    1
    17     2    15    1
    18     2     3    1
    19    17    18    1
    20    17    16    1
    21    18    20    1
    22    15    16    1
    23    16    28    1
    24    20    21   ar
    25    20    28   ar
    26    22    21    1
    27    22    23    1
    28    21    25   ar
    29    28    27   ar
    30    23    24    1
    31    25    24    1
    32    25    26   ar
    33    27    26   ar
