@<TRIPOS>MOLECULE
4ig3_T27_A_1.pdb
 28 30 0 0 0
SMALL
GASTEIGER

@<TRIPOS>ATOM
      1  C1        51.3590  -26.9480   38.4140 C.ar  601  T27601     -0.0068
      2  N2        52.6300  -25.7780   33.2110 N.2   601  T27601     -0.1683
      3  C3        49.1770  -27.2530   39.3090 C.ar  601  T27601      0.0001
      4  C4        48.7740  -26.0110   38.8630 C.ar  601  T27601     -0.0030
      5  C5        49.6960  -25.2360   38.1700 C.ar  601  T27601     -0.0068
      6  C6        50.9770  -25.7030   37.9270 C.ar  601  T27601      0.0651
      7  C7        52.7160  -27.5200   38.2140 C.3   601  T27601      0.0324
      8  C2        50.4440  -27.7100   39.0780 C.ar  601  T27601     -0.0030
      9  C8        49.2990  -23.8920   37.6490 C.3   601  T27601      0.0324
     10  N1        51.9120  -24.8880   37.2210 N.pl3 601  T27601     -0.1834
     11  C9        53.1650  -24.6350   33.6920 C.2   601  T27601      0.1158
     12  C10       52.9370  -24.3200   35.0420 C.2   601  T27601      0.0720
     13  C11       52.1780  -25.1660   35.8370 C.2   601  T27601      0.2178
     14  N3        51.6720  -26.3020   35.2970 N.2   601  T27601     -0.3189
     15  C12       51.9240  -26.5790   34.0100 C.1   601  T27601      0.1709
     16  N4        51.4150  -27.7680   33.3830 N.pl3 601  T27601     -0.1357
     17  C13       49.4880  -31.1520   35.0010 C.ar  601  T27601      0.0685
     18  C14       49.6310  -30.0310   35.8220 C.ar  601  T27601      0.0116
     19  C15       50.2660  -28.9000   35.3060 C.ar  601  T27601      0.0180
     20  C16       50.7620  -28.8800   34.0080 C.ar  601  T27601      0.0826
     21  C17       50.6010  -30.0100   33.2050 C.ar  601  T27601      0.0180
     22  C18       49.9650  -31.1290   33.7050 C.ar  601  T27601      0.0116
     23  N5        48.3030  -33.3670   35.8040 N.1   601  T27601     -0.1908
     24  C19       48.8220  -32.3960   35.4700 C.1   601  T27601      0.1004
     25  C20       47.1960  -27.7480   40.7210 C.2   601  T27601      0.0780
     26  C21       48.2880  -28.1860   40.0570 C.2   601  T27601      0.0109
     27  N6        45.6500  -29.3720   42.1330 N.1   601  T27601     -0.1908
     28  C22       46.3320  -28.7000   41.4860 C.1   601  T27601      0.1011
@<TRIPOS>BOND
     1    21    22   ar
     2    21    20   ar
     3     2    11    1
     4     2    15    2
     5    16    20    1
     6    16    15    1
     7    11    12    2
     8    22    17   ar
     9    20    19   ar
    10    15    14    2
    11    17    24    1
    12    17    18   ar
    13    12    13    1
    14    14    13    2
    15    19    18   ar
    16    24    23    3
    17    13    10    1
    18    10     6    1
    19     9     5    1
    20     6     5   ar
    21     6     1   ar
    22     5     4   ar
    23     7     1    1
    24     1     8   ar
    25     4     3   ar
    26     8     3   ar
    27     3    26    1
    28    26    25    2
    29    25    28    1
    30    28    27    3
