@<TRIPOS>MOLECULE
4ig6_SAH_A_1.pdb
 26 28 0 0 0
SMALL
GASTEIGER

@<TRIPOS>ATOM
      1  N         -2.9780   23.3870  -32.3430 N.3   301  SAH301     -0.1208
      2  CA        -3.4250   23.4550  -30.9110 C.3   301  SAH301      0.1952
      3  CB        -4.9760   23.4920  -30.8530 C.3   301  SAH301      0.0422
      4  CG        -5.4850   24.0080  -29.4980 C.3   301  SAH301      0.0597
      5  SD        -7.2080   23.6770  -29.3990 S.3   301  SAH301     -0.1375
      6  C         -2.8730   22.2910  -30.1250 C.2   301  SAH301      0.3819
      7  O         -2.5630   21.2410  -30.6980 O.co2 301  SAH301     -0.2441
      8  OXT       -2.7200   22.3680  -28.8950 O.co2 301  SAH301     -0.2441
      9  C5'       -7.8000   25.0270  -28.4190 C.3   301  SAH301      0.0899
     10  C4'       -7.9970   24.6670  -26.9430 C.3   301  SAH301      0.1630
     11  O4'       -8.9480   23.6100  -26.7630 O.3   301  SAH301     -0.3153
     12  C3'       -6.7530   24.2000  -26.1950 C.3   301  SAH301      0.2168
     13  O3'       -5.9010   25.2730  -25.8160 O.3   301  SAH301     -0.2175
     14  C2'       -7.3340   23.4520  -25.0040 C.3   301  SAH301      0.2569
     15  O2'       -7.7290   24.2880  -23.9080 O.3   301  SAH301     -0.2130
     16  C1'       -8.5900   22.8800  -25.5960 C.3   301  SAH301      0.3185
     17  N9        -8.4830   21.4590  -25.9550 N.pl3 301  SAH301     -0.1439
     18  C8        -8.4940   20.9150  -27.1950 C.3   301  SAH301      0.3377
     19  N7        -8.4640   19.5680  -27.1480 N.2   301  SAH301     -0.2095
     20  C5        -8.4510   19.2780  -25.8300 C.2   301  SAH301      0.2526
     21  C6        -8.4320   18.0510  -25.0480 C.2   301  SAH301      0.4393
     22  N6        -8.4020   16.8980  -25.7320 N.pl3 301  SAH301      0.2180
     23  N1        -8.4470   18.1380  -23.6990 N.2   301  SAH301      0.0021
     24  C2        -8.4730   19.3190  -23.0430 C.3   301  SAH301      0.5254
     25  N3        -8.4750   20.4880  -23.6980 N.2   301  SAH301     -0.0055
     26  C4        -8.4680   20.5070  -25.0510 C.2   301  SAH301      0.3518
@<TRIPOS>BOND
     1     1     2    1
     2     2     3    1
     3     2     6    1
     4     3     4    1
     5     7     6   ar
     6     6     8   ar
     7     4     5    1
     8     5     9    1
     9     9    10    1
    10    18    19    1
    11    18    17    1
    12    19    20    2
    13    10    11    1
    14    10    12    1
    15    11    16    1
    16    12    13    1
    17    12    14    1
    18    17    16    1
    19    17    26    1
    20    20    26    1
    21    20    21    1
    22    22    21    1
    23    16    14    1
    24    26    25    2
    25    21    23    2
    26    14    15    1
    27    23    24    1
    28    25    24    1
