@<TRIPOS>MOLECULE
4ig8_DTP_A_1.pdb
 30 32 0 0 0
SMALL
GASTEIGER

@<TRIPOS>ATOM
      1  PG        22.8780   -0.2280   21.8790 P.3   403  DTP403      0.8585
      2  O1G       22.2990    0.8300   22.7520 O.3   403  DTP403     -0.0578
      3  O2G       24.3640   -0.4290   22.2020 O.3   403  DTP403      0.3985
      4  O3G       22.1270   -1.5430   22.1420 O.2   403  DTP403     -0.1694
      5  PB        21.9890    1.4880   20.0030 P.3   403  DTP403      0.2335
      6  O1B       21.5510    2.2850   21.2810 O.3   403  DTP403     -0.4367
      7  O2B       20.7920    1.1530   19.2120 O.2   403  DTP403     -0.5167
      8  O3B       22.7090    0.1710   20.3950 O.3   403  DTP403     -0.1752
      9  PA        24.1460    3.2590   19.8190 P.3   403  DTP403      0.2189
     10  O1A       23.7050    4.7550   19.8520 O.2   403  DTP403     -0.5170
     11  O2A       24.4140    2.7810   21.2570 O.3   403  DTP403     -0.4371
     12  O3A       22.9680    2.3860   19.1270 O.3   403  DTP403     -0.2699
     13  O5'       25.4340    3.1370   18.9340 O.3   403  DTP403     -0.3112
     14  C5'       26.6550    2.8290   19.4730 C.3   403  DTP403      0.1813
     15  C4'       27.7490    2.7320   18.5370 C.3   403  DTP403      0.1795
     16  O4'       27.2150    2.4300   17.2660 O.3   403  DTP403     -0.3155
     17  C3'       28.4520    4.0380   18.4080 C.3   403  DTP403      0.1883
     18  O3'       29.6840    4.0140   19.1150 O.3   403  DTP403     -0.2202
     19  C2'       28.7170    4.1990   17.0260 C.3   403  DTP403      0.1151
     20  C1'       27.9110    3.1670   16.3080 C.3   403  DTP403      0.2873
     21  N9        27.0310    3.7700   15.3380 N.pl3 403  DTP403     -0.1460
     22  C8        25.7750    4.1820   15.5190 C.3   403  DTP403      0.3377
     23  N7        25.3050    4.6930   14.3440 N.2   403  DTP403     -0.2095
     24  C5        26.2900    4.5970   13.4140 C.2   403  DTP403      0.2526
     25  C6        26.4110    4.9470   12.0400 C.2   403  DTP403      0.4393
     26  N6        25.3140    5.5520   11.3460 N.pl3 403  DTP403      0.2180
     27  N1        27.5790    4.7020   11.3910 N.2   403  DTP403      0.0021
     28  C2        28.6350    4.1310   12.0210 C.3   403  DTP403      0.5254
     29  N3        28.5550    3.7900   13.3110 N.2   403  DTP403     -0.0055
     30  C4        27.3910    4.0130   14.0310 C.2   403  DTP403      0.3518
@<TRIPOS>UNITY_ATOM_ATTR
3 1
charge 1
6 1
charge 1
10 1
charge 1
@<TRIPOS>BOND
     1    26    25    1
     2    27    28    1
     3    27    25    2
     4    28    29    1
     5    25    24    1
     6    29    30    2
     7    24    30    1
     8    24    23    2
     9    30    21    1
    10    23    22    1
    11    21    22    1
    12    21    20    1
    13    20    19    1
    14    20    16    1
    15    19    17    1
    16    16    15    1
    17    17    15    1
    18    17    18    1
    19    15    14    1
    20    13    14    1
    21    13     9    1
    22    12     9    1
    23    12     5    1
    24     7     5    2
    25     9    10    2
    26     9    11    1
    27     5     8    1
    28     5     6    1
    29     8     1    1
    30     1     4    2
    31     1     3    1
    32     1     2    1
