@<TRIPOS>MOLECULE
4igr_3ZA_A_1.pdb
 17 16 0 0 0
SMALL
GASTEIGER

@<TRIPOS>ATOM
      1  O6        -6.5720   30.4960  -15.9980 O.3   901  3ZA901     -0.4197
      2  C5        -5.6530   28.2060  -17.6080 C.3   901  3ZA901      0.0500
      3  C3        -4.2030   28.0060  -15.4090 C.3   901  3ZA901      0.1058
      4  O2        -2.3900   31.8320  -12.8640 O.co2 901  3ZA901     -0.2441
      5  O1        -1.0700   30.3160  -13.9220 O.co2 901  3ZA901     -0.2441
      6  C7        -3.3770   26.8790  -14.7850 C.2   901  3ZA901      0.3644
      7  C8        -6.8890   28.1530  -16.7120 C.2   901  3ZA901      0.0675
      8  C1        -3.4370   29.7820  -13.6590 C.3   901  3ZA901      0.1949
      9  C2        -3.5970   29.3980  -15.1390 C.3   901  3ZA901      0.0419
     10  C4        -4.3660   27.6940  -16.9230 C.3   901  3ZA901      0.0179
     11  N1        -4.7450   30.3560  -13.1440 N.3   901  3ZA901     -0.1208
     12  C6        -2.1770   30.7200  -13.4660 C.2   901  3ZA901      0.3819
     13  O3        -2.1250   27.0250  -14.7320 O.co2 901  3ZA901     -0.2457
     14  O4        -4.0530   25.8900  -14.3780 O.co2 901  3ZA901     -0.2457
     15  O5        -7.4540   27.0720  -16.5260 O.2   901  3ZA901     -0.5413
     16  N2        -7.3450   29.3210  -16.1220 N.am  901  3ZA901     -0.2827
     17  C9        -8.6680   29.5330  -15.5550 C.3   901  3ZA901      0.1196
@<TRIPOS>BOND
     1     2    10    1
     2     2     7    1
     3    10     3    1
     4     7    15    2
     5     7    16   am
     6    16     1    1
     7    16    17    1
     8     3     9    1
     9     3     6    1
    10     9     8    1
    11     6    13   ar
    12     6    14   ar
    13     5    12   ar
    14     8    12    1
    15     8    11    1
    16    12     4   ar
