@<TRIPOS>MOLECULE
4igt_3ZA_A_1.pdb
 17 16 0 0 0
SMALL
GASTEIGER

@<TRIPOS>ATOM
      1  O6        19.4510   12.1410   23.4220 O.3   801  3ZA801     -0.4197
      2  C5        19.2510   14.7980   22.3760 C.3   801  3ZA801      0.0500
      3  C3        21.7950   14.6570   22.9630 C.3   801  3ZA801      0.1058
      4  O2        23.0790   12.6440   27.2090 O.co2 801  3ZA801     -0.2441
      5  O1        23.5090   14.7970   26.8430 O.co2 801  3ZA801     -0.2441
      6  C7        23.0980   15.3050   22.4470 C.2   801  3ZA801      0.3644
      7  C8        19.2310   13.5570   21.4800 C.2   801  3ZA801      0.0675
      8  C1        22.8430   13.4700   24.9730 C.3   801  3ZA801      0.1949
      9  C2        21.7580   14.4420   24.4960 C.3   801  3ZA801      0.0419
     10  C4        20.6060   15.5020   22.4410 C.3   801  3ZA801      0.0179
     11  N1        22.4560   12.0460   24.7350 N.3   801  3ZA801     -0.1208
     12  C6        23.1690   13.6650   26.4650 C.2   801  3ZA801      0.3819
     13  O3        23.4150   15.0410   21.2530 O.co2 801  3ZA801     -0.2457
     14  O4        23.7750   16.0290   23.2140 O.co2 801  3ZA801     -0.2457
     15  O5        19.3910   13.5510   20.2480 O.2   801  3ZA801     -0.5413
     16  N2        19.0090   12.3500   22.0940 N.am  801  3ZA801     -0.2827
     17  C9        19.1660   11.1180   21.3330 C.3   801  3ZA801      0.1196
@<TRIPOS>BOND
     1    15     7    2
     2    13     6   ar
     3    17    16    1
     4     7    16   am
     5     7     2    1
     6    16     1    1
     7     2    10    1
     8    10     3    1
     9     6     3    1
    10     6    14   ar
    11     3     9    1
    12     9     8    1
    13    11     8    1
    14     8    12    1
    15    12     5   ar
    16    12     4   ar
