@<TRIPOS>MOLECULE
4ihj_GTP_A_1.pdb
 42 44 0 0 0
SMALL
GASTEIGER

@<TRIPOS>ATOM
      1  PG        27.1030   73.2710   46.0790 P.3   501  GTP501      0.5373
      2  O1G       25.9080   73.7600   45.3020 O.2   501  GTP501     -0.2221
      3  O2G       28.3980   73.6130   45.3810 O.3   501  GTP501     -0.1143
      4  O3G       27.0180   71.7760   46.3320 O.3   501  GTP501     -0.1143
      5  O3B       27.2340   74.0020   47.5140 O.3   501  GTP501     -0.2258
      6  PB        26.3520   75.2300   48.0380 P.3   501  GTP501      0.2277
      7  O1B       26.0690   76.2860   47.0310 O.2   501  GTP501     -0.5168
      8  O2B       27.0770   75.8270   49.2320 O.3   501  GTP501     -0.4368
      9  O3A       25.0060   74.5020   48.5130 O.3   501  GTP501     -0.2700
     10  PA        23.8690   75.2350   49.3830 P.3   501  GTP501      0.2189
     11  O1A       22.6870   75.5080   48.5020 O.2   501  GTP501     -0.5170
     12  O2A       24.3850   76.4940   50.0590 O.3   501  GTP501     -0.4371
     13  O5'       23.5640   74.0690   50.4450 O.3   501  GTP501     -0.3116
     14  C5'       22.3420   73.3720   50.5250 C.3   501  GTP501      0.1742
     15  C4'       21.8090   73.5930   51.9420 C.3   501  GTP501      0.1246
     16  O4'       21.7090   74.9810   52.2330 O.3   501  GTP501     -0.3466
     17  C3'       20.4260   73.0010   52.1420 C.3   501  GTP501      0.1141
     18  O3'       20.3300   72.5500   53.4880 O.3   501  GTP501     -0.3864
     19  C2'       19.5180   74.1930   51.8550 C.3   501  GTP501      0.1266
     20  O2'       18.2130   74.0850   52.3910 O.3   501  GTP501     -0.3849
     21  C1'       20.3340   75.3320   52.4480 C.3   501  GTP501      0.1617
     22  N9        20.1220   76.6080   51.7600 N.pl3 501  GTP501     -0.2241
     23  C8        20.4540   76.8860   50.4580 C.2   501  GTP501      0.1451
     24  N7        20.1640   78.1800   50.2200 N.2   501  GTP501     -0.3865
     25  C5        19.6530   78.7330   51.3400 C.2   501  GTP501      0.2296
     26  C6        19.1960   80.0210   51.6530 C.2   501  GTP501      0.2859
     27  O6        19.1630   80.9740   50.8530 O.2   501  GTP501     -0.2668
     28  N1        18.7510   80.2290   52.9210 N.am  501  GTP501     -0.2418
     29  C2        18.7320   79.2340   53.8690 C.2   501  GTP501      0.2395
     30  N2        18.2890   79.4990   55.0940 N.pl3 501  GTP501     -0.3206
     31  N3        19.1970   77.9930   53.5770 N.2   501  GTP501     -0.3551
     32  C4        19.6360   77.7450   52.3210 C.2   501  GTP501      0.2272
     33  H4'       22.4930   73.1200   52.6470 H     501  GTP501      0.0655
     34  H3'       20.2460   72.1980   51.4270 H     501  GTP501      0.0648
     35 HO3'       19.6860   73.1070   53.9740 H     501  GTP501      0.2100
     36  H2'       19.4610   74.3330   50.7760 H     501  GTP501      0.0663
     37 HO2'       18.0760   74.7860   53.0630 H     501  GTP501      0.2101
     38  H1'       20.1200   75.4240   53.5130 H     501  GTP501      0.0841
     39  H8        20.8780   76.1830   49.7410 H     501  GTP501      0.1149
     40  HN1       18.4120   81.1770   53.1830 H     501  GTP501      0.1589
     41 HN21       18.3000   78.7760   55.8050 H     501  GTP501      0.1459
     42 HN22       17.9350   80.4240   55.3160 H     501  GTP501      0.1459
@<TRIPOS>BOND
     1     2     1    2
     2     3     1    1
     3     1     4    1
     4     1     5    1
     5     7     6    2
     6     5     6    1
     7     6     9    1
     8     6     8    1
     9    11    10    2
    10     9    10    1
    11    10    12    1
    12    10    13    1
    13    39    23    1
    14    24    23    2
    15    24    25    2
    16    13    14    1
    17    23    22    1
    18    14    15    1
    19    36    19    1
    20    27    26    2
    21    25    26    1
    22    25    32    1
    23    34    17    1
    24    26    28   am
    25    22    32    1
    26    22    21    1
    27    19    17    1
    28    19    20    1
    29    19    21    1
    30    15    17    1
    31    15    16    1
    32    15    33    1
    33    17    18    1
    34    16    21    1
    35    32    31    2
    36    20    37    1
    37    21    38    1
    38    28    40    1
    39    28    29    1
    40    18    35    1
    41    31    29    2
    42    29    30    1
    43    30    42    1
    44    30    41    1
