@<TRIPOS>MOLECULE
4ihj_GDP_B_1.pdb
 38 40 0 0 0
SMALL
GASTEIGER

@<TRIPOS>ATOM
      1  PB        18.8350   49.2220   16.0390 P.3   501  GDP501      0.5373
      2  O1B       19.3100   49.9620   17.2800 O.3   501  GDP501     -0.1143
      3  O2B       18.4660   50.2040   14.9680 O.2   501  GDP501     -0.2221
      4  O3B       19.8900   48.2330   15.5730 O.3   501  GDP501     -0.1143
      5  O3A       17.5730   48.3360   16.4430 O.3   501  GDP501     -0.2261
      6  PA        16.2350   48.8490   17.1750 P.3   501  GDP501      0.2230
      7  O1A       15.0940   48.8580   16.2320 O.2   501  GDP501     -0.5169
      8  O2A       16.4020   50.2060   17.7980 O.3   501  GDP501     -0.4370
      9  O5'       16.1060   47.6470   18.2370 O.3   501  GDP501     -0.3116
     10  C5'       14.9580   46.8060   18.3480 C.3   501  GDP501      0.1742
     11  C4'       14.4530   46.9860   19.7780 C.3   501  GDP501      0.1246
     12  O4'       13.9900   48.3210   19.9740 O.3   501  GDP501     -0.3466
     13  C3'       13.2540   46.1130   20.0740 C.3   501  GDP501      0.1141
     14  O3'       13.2750   45.8630   21.4740 O.3   501  GDP501     -0.3864
     15  C2'       12.0710   46.9630   19.6750 C.3   501  GDP501      0.1266
     16  O2'       10.8870   46.5770   20.3590 O.3   501  GDP501     -0.3849
     17  C1'       12.5560   48.3240   20.1170 C.3   501  GDP501      0.1617
     18  N9        12.1030   49.4620   19.3070 N.pl3 501  GDP501     -0.2241
     19  C8        12.4040   49.7060   18.0190 C.2   501  GDP501      0.1451
     20  N7        11.8610   50.8870   17.6210 N.2   501  GDP501     -0.3865
     21  C5        11.2290   51.4100   18.6880 C.2   501  GDP501      0.2296
     22  C6        10.4500   52.6300   18.9730 C.2   501  GDP501      0.2859
     23  O6        10.2510   53.4940   18.0830 O.2   501  GDP501     -0.2668
     24  N1         9.9740   52.7750   20.2080 N.am  501  GDP501     -0.2418
     25  C2        10.1640   51.8650   21.1850 C.2   501  GDP501      0.2395
     26  N2         9.6410   52.0840   22.4090 N.pl3 501  GDP501     -0.3206
     27  N3        10.8520   50.7260   20.9990 N.2   501  GDP501     -0.3551
     28  C4        11.3970   50.4640   19.7960 C.2   501  GDP501      0.2272
     29  H4'       15.2610   46.7500   20.4840 H     501  GDP501      0.0655
     30  H3'       13.2910   45.1850   19.4860 H     501  GDP501      0.0648
     31 HO3'       12.5080   45.3270   21.7170 H     501  GDP501      0.2100
     32  H2'       11.9360   46.9410   18.5840 H     501  GDP501      0.0663
     33 HO2'       10.6410   45.6800   20.0960 H     501  GDP501      0.2101
     34  H1'       12.2820   48.4760   21.1700 H     501  GDP501      0.0841
     35  H8        12.9860   49.0490   17.3850 H     501  GDP501      0.1149
     36  HN1        9.4130   53.6230   20.4240 H     501  GDP501      0.1589
     37 HN21        9.1090   52.9240   22.5880 H     501  GDP501      0.1459
     38 HN22        9.7860   51.4110   23.1480 H     501  GDP501      0.1459
@<TRIPOS>BOND
     1     3     1    2
     2     4     1    1
     3     1     5    1
     4     1     2    1
     5     7     6    2
     6     5     6    1
     7     6     8    1
     8     6     9    1
     9    35    19    1
    10    20    19    2
    11    20    21    2
    12    19    18    1
    13    23    22    2
    14     9    10    1
    15    10    11    1
    16    32    15    1
    17    21    22    1
    18    21    28    1
    19    22    24   am
    20    18    28    1
    21    18    17    1
    22    30    13    1
    23    15    13    1
    24    15    17    1
    25    15    16    1
    26    11    12    1
    27    11    13    1
    28    11    29    1
    29    28    27    2
    30    12    17    1
    31    13    14    1
    32    33    16    1
    33    17    34    1
    34    24    36    1
    35    24    25    1
    36    27    25    2
    37    25    26    1
    38    14    31    1
    39    26    37    1
    40    26    38    1
