@<TRIPOS>MOLECULE
4ihj_ADP_F_1.pdb
 39 41 0 0 0
SMALL
GASTEIGER

@<TRIPOS>ATOM
      1  PB        11.1170   49.9240   96.7220 P.3   703  ADP703      0.5373
      2  O1B       10.4730   48.6800   96.1650 O.3   703  ADP703     -0.1143
      3  O2B       11.5260   50.9380   95.6880 O.2   703  ADP703     -0.2221
      4  O3B       12.1740   49.6650   97.7710 O.3   703  ADP703     -0.1143
      5  PA         9.9530   51.5210   98.8010 P.3   703  ADP703      0.2224
      6  O1A       11.1190   52.4650   98.6910 O.2   703  ADP703     -0.5170
      7  O2A        8.5520   52.0680   98.8900 O.3   703  ADP703     -0.4370
      8  O3A        9.8770   50.5580   97.5170 O.3   703  ADP703     -0.2261
      9  O5'       10.1900   50.5460  100.0590 O.3   703  ADP703     -0.3245
     10  C5'        9.7110   49.2090  100.0220 C.3   703  ADP703      0.0836
     11  C4'        8.8800   48.8980  101.2600 C.3   703  ADP703      0.1131
     12  O4'        9.5940   49.1560  102.4770 O.3   703  ADP703     -0.3474
     13  C3'        7.6220   49.7460  101.3330 C.3   703  ADP703      0.1133
     14  O3'        6.5520   49.1820  100.5680 O.3   703  ADP703     -0.3864
     15  C2'        7.3380   49.7700  102.8190 C.3   703  ADP703      0.1266
     16  O2'        6.5880   48.6220  103.2260 O.3   703  ADP703     -0.3849
     17  C1'        8.7050   49.6950  103.4630 C.3   703  ADP703      0.1617
     18  N9         9.1120   51.0670  103.8410 N.pl3 703  ADP703     -0.2234
     19  C8         9.8840   51.8730  103.0980 C.2   703  ADP703      0.1451
     20  N7        10.0770   53.0600  103.7220 N.2   703  ADP703     -0.3871
     21  C5         9.4160   53.0310  104.8830 C.2   703  ADP703      0.2211
     22  C6         9.2120   53.9590  106.0210 C.2   703  ADP703      0.2227
     23  N6         9.7630   55.1960  106.0320 N.pl3 703  ADP703     -0.3300
     24  N1         8.4590   53.5120  107.0590 N.2   703  ADP703     -0.3296
     25  C2         7.8960   52.2890  107.0650 C.1   703  ADP703      0.0930
     26  N3         8.0480   51.4040  106.0610 N.2   703  ADP703     -0.3287
     27  C4         8.7840   51.7030  104.9670 C.2   703  ADP703      0.2354
     28 H5'1        9.1020   49.0650   99.1280 H     703  ADP703      0.0591
     29 H5'2       10.5570   48.5210   99.9680 H     703  ADP703      0.0591
     30  H4'        8.5850   47.8400  101.2240 H     703  ADP703      0.0647
     31  H3'        7.8490   50.7640  100.9890 H     703  ADP703      0.0647
     32 HO3'        5.7720   49.7490  100.6390 H     703  ADP703      0.2100
     33  H2'        6.8330   50.7050  103.0990 H     703  ADP703      0.0663
     34 HO2'        5.7360   48.6150  102.7700 H     703  ADP703      0.2101
     35  H1'        8.6610   49.0430  104.3460 H     703  ADP703      0.0841
     36  H8        10.2940   51.6120  102.1300 H     703  ADP703      0.1149
     37 HN61       10.3280   55.5050  105.2540 H     703  ADP703      0.1448
     38 HN62        9.6090   55.8100  106.8190 H     703  ADP703      0.1448
     39  H2         7.3000   52.0010  107.9210 H     703  ADP703      0.1751
@<TRIPOS>BOND
     1     3     1    2
     2     2     1    1
     3     1     8    1
     4     1     4    1
     5     8     5    1
     6     6     5    2
     7     5     7    1
     8     5     9    1
     9    28    10    1
    10    29    10    1
    11    10     9    1
    12    10    11    1
    13    14    32    1
    14    14    13    1
    15    31    13    1
    16    30    11    1
    17    11    13    1
    18    11    12    1
    19    13    15    1
    20    36    19    1
    21    12    17    1
    22    34    16    1
    23    15    33    1
    24    15    16    1
    25    15    17    1
    26    19    20    2
    27    19    18    1
    28    17    18    1
    29    17    35    1
    30    20    21    2
    31    18    27    1
    32    21    27    1
    33    21    22    1
    34    27    26    2
    35    37    23    1
    36    22    23    1
    37    22    24    2
    38    23    38    1
    39    26    25    2
    40    24    25    2
    41    25    39    1
