@<TRIPOS>MOLECULE
4ihq_ADP_A_1.pdb
 27 29 0 0 0
SMALL
GASTEIGER

@<TRIPOS>ATOM
      1  PB        -5.5210  204.3490  122.1140 P.3   601  ADP601      0.8694
      2  O1B       -4.3260  203.4120  122.1760 O.3   601  ADP601     -0.0572
      3  O2B       -5.2130  205.6970  121.5200 O.2   601  ADP601      0.2741
      4  O3B       -6.7700  203.6740  121.5720 O.3   601  ADP601     -0.0572
      5  PA        -6.7820  203.8350  124.6580 P.3   601  ADP601      0.2289
      6  O1A       -6.4540  202.3740  124.5140 O.3   601  ADP601     -0.4369
      7  O2A       -8.2330  204.2510  124.4830 O.2   601  ADP601     -0.5168
      8  O3A       -5.8770  204.7110  123.6480 O.3   601  ADP601     -0.1748
      9  O5'       -6.3010  204.3480  126.1110 O.3   601  ADP601     -0.3110
     10  C5'       -4.9100  204.3600  126.4910 C.3   601  ADP601      0.1813
     11  C4'       -4.8640  204.3950  128.0230 C.3   601  ADP601      0.1821
     12  O4'       -5.3740  205.6590  128.4490 O.3   601  ADP601     -0.3135
     13  C3'       -5.7760  203.3620  128.6620 C.3   601  ADP601      0.2184
     14  O3'       -5.1750  202.9200  129.8870 O.3   601  ADP601     -0.2174
     15  C2'       -7.0490  204.1100  128.9970 C.3   601  ADP601      0.2570
     16  O2'       -7.6830  203.5980  130.1620 O.3   601  ADP601     -0.2130
     17  C1'       -6.5680  205.5210  129.2330 C.3   601  ADP601      0.3186
     18  N9        -7.4540  206.5970  128.7330 N.pl3 601  ADP601     -0.1439
     19  C8        -8.0950  206.6220  127.5530 C.3   601  ADP601      0.3377
     20  N7        -8.7790  207.7910  127.4090 N.2   601  ADP601     -0.2095
     21  C5        -8.5740  208.5380  128.5020 C.2   601  ADP601      0.2526
     22  C6        -8.9980  209.8710  128.9910 C.2   601  ADP601      0.4393
     23  N6        -9.8050  210.6750  128.2520 N.pl3 601  ADP601      0.2180
     24  N1        -8.5340  210.2630  130.2030 N.2   601  ADP601      0.0021
     25  C2        -7.7300  209.4810  130.9510 C.3   601  ADP601      0.5254
     26  N3        -7.3110  208.2600  130.5700 N.2   601  ADP601     -0.0055
     27  C4        -7.6920  207.7440  129.3760 C.2   601  ADP601      0.3518
@<TRIPOS>UNITY_ATOM_ATTR
3 1
charge 1
6 1
charge 1
@<TRIPOS>BOND
     1     3     1    2
     2     4     1    1
     3     1     2    1
     4     1     8    1
     5     8     5    1
     6     7     5    2
     7     6     5    1
     8     5     9    1
     9     9    10    1
    10    10    11    1
    11    20    19    1
    12    20    21    2
    13    19    18    1
    14    11    12    1
    15    11    13    1
    16    23    22    1
    17    12    17    1
    18    21    22    1
    19    21    27    1
    20    13    15    1
    21    13    14    1
    22    18    17    1
    23    18    27    1
    24    22    24    2
    25    15    17    1
    26    15    16    1
    27    27    26    2
    28    24    25    1
    29    26    25    1
