@<TRIPOS>MOLECULE
4ii2_ATP_A_1.pdb
 31 33 0 0 0
SMALL
GASTEIGER

@<TRIPOS>ATOM
      1  PG        -6.8780  -12.8620   32.8240 P.3   1103  ATP1103     0.5373
      2  O1G       -5.6600  -13.0220   31.9770 O.2   1103  ATP1103    -0.2221
      3  O2G       -6.5940  -12.1600   34.1420 O.3   1103  ATP1103    -0.1143
      4  O3G       -8.0120  -12.1670   32.1200 O.3   1103  ATP1103    -0.1143
      5  PB        -7.8790  -15.6030   32.4030 P.3   1103  ATP1103     0.2277
      6  O1B       -6.8160  -16.6420   32.4960 O.3   1103  ATP1103    -0.4368
      7  O2B       -8.4130  -15.1140   31.0900 O.2   1103  ATP1103    -0.5168
      8  O3B       -7.3640  -14.3500   33.3080 O.3   1103  ATP1103    -0.2258
      9  PA       -10.4610  -15.5640   33.6740 P.3   1103  ATP1103     0.2189
     10  O1A      -10.4920  -15.6370   35.1740 O.3   1103  ATP1103    -0.4371
     11  O2A      -10.7440  -14.2610   33.0200 O.2   1103  ATP1103    -0.5170
     12  O3A       -9.0270  -16.1840   33.3230 O.3   1103  ATP1103    -0.2700
     13  O5'      -11.4970  -16.7100   33.1970 O.3   1103  ATP1103    -0.3112
     14  C5'      -11.9330  -16.7940   31.8480 C.3   1103  ATP1103     0.1813
     15  C4'      -11.7330  -18.2500   31.4100 C.3   1103  ATP1103     0.1821
     16  O4'      -12.6540  -18.5740   30.3370 O.3   1103  ATP1103    -0.3135
     17  C3'      -10.3100  -18.4740   30.8940 C.3   1103  ATP1103     0.2184
     18  O3'       -9.6880  -19.6070   31.5520 O.3   1103  ATP1103    -0.2174
     19  C2'      -10.5450  -18.6360   29.3800 C.3   1103  ATP1103     0.2570
     20  O2'       -9.5860  -19.3950   28.6510 O.3   1103  ATP1103    -0.2130
     21  C1'      -11.9200  -19.2430   29.3150 C.3   1103  ATP1103     0.3186
     22  N9       -12.5550  -19.0330   27.9940 N.pl3 1103  ATP1103    -0.1439
     23  C8       -12.6590  -17.8880   27.2900 C.3   1103  ATP1103     0.3377
     24  N7       -13.3110  -18.1040   26.1260 N.2   1103  ATP1103    -0.2095
     25  C5       -13.6340  -19.4130   26.0840 C.2   1103  ATP1103     0.2526
     26  C6       -14.3350  -20.3210   25.1310 C.2   1103  ATP1103     0.4393
     27  N6       -14.8270  -19.8290   23.9660 N.pl3 1103  ATP1103     0.2180
     28  N1       -14.4670  -21.6370   25.4710 N.2   1103  ATP1103     0.0021
     29  C2       -13.9810  -22.1460   26.6360 C.3   1103  ATP1103     0.5254
     30  N3       -13.3270  -21.3610   27.5410 N.2   1103  ATP1103    -0.0055
     31  C4       -13.1360  -20.0240   27.3180 C.2   1103  ATP1103     0.3518
@<TRIPOS>BOND
     1    27    26    1
     2    26    28    2
     3    26    25    1
     4    28    29    1
     5    25    24    2
     6    25    31    1
     7    24    23    1
     8    29    30    1
     9    23    22    1
    10    31    30    2
    11    31    22    1
    12    22    21    1
    13    20    19    1
    14    21    19    1
    15    21    16    1
    16    19    17    1
    17    16    15    1
    18    17    15    1
    19    17    18    1
    20     7     5    2
    21    15    14    1
    22    14    13    1
    23     2     1    2
    24     4     1    1
    25     5     6    1
    26     5     8    1
    27     5    12    1
    28     1     8    1
    29     1     3    1
    30    11     9    2
    31    13     9    1
    32    12     9    1
    33     9    10    1
