@<TRIPOS>MOLECULE
4ii3_ATP_A_1.pdb
 31 33 0 0 0
SMALL
GASTEIGER

@<TRIPOS>ATOM
      1  PG        -6.3490   28.5200  -67.1170 P.3   1103  ATP1103     0.5373
      2  O1G       -6.9090   29.5880  -66.2220 O.3   1103  ATP1103    -0.1143
      3  O2G       -4.8430   28.6170  -67.2750 O.2   1103  ATP1103    -0.2221
      4  O3G       -6.7550   27.1170  -66.7040 O.3   1103  ATP1103    -0.1143
      5  PB        -6.7290   30.1360  -69.4790 P.3   1103  ATP1103     0.2277
      6  O1B       -5.5570   29.9170  -70.4060 O.2   1103  ATP1103    -0.5168
      7  O2B       -6.7390   31.3240  -68.5400 O.3   1103  ATP1103    -0.4368
      8  O3B       -6.9340   28.7800  -68.6180 O.3   1103  ATP1103    -0.2258
      9  PA        -9.6160   30.3130  -70.1890 P.3   1103  ATP1103     0.2189
     10  O1A      -10.2530   29.2760  -71.0810 O.2   1103  ATP1103    -0.5170
     11  O2A       -9.9800   30.3860  -68.7510 O.3   1103  ATP1103    -0.4371
     12  O3A       -8.0130   30.1620  -70.4710 O.3   1103  ATP1103    -0.2700
     13  O5'       -9.9530   31.7490  -70.8620 O.3   1103  ATP1103    -0.3112
     14  C5'      -10.1650   31.9170  -72.2710 C.3   1103  ATP1103     0.1813
     15  C4'       -9.1600   32.9450  -72.8060 C.3   1103  ATP1103     0.1821
     16  O4'       -9.5120   34.2970  -72.4630 O.3   1103  ATP1103    -0.3135
     17  C3'       -7.7360   32.7280  -72.2900 C.3   1103  ATP1103     0.2184
     18  O3'       -6.8800   32.1960  -73.3230 O.3   1103  ATP1103    -0.2174
     19  C2'       -7.3420   34.1230  -71.7580 C.3   1103  ATP1103     0.2570
     20  O2'       -5.9760   34.4900  -71.9020 O.3   1103  ATP1103    -0.2130
     21  C1'       -8.2970   35.0360  -72.5070 C.3   1103  ATP1103     0.3186
     22  N9        -8.4590   36.3880  -71.8860 N.pl3 1103  ATP1103    -0.1439
     23  C8        -8.5420   36.6990  -70.5740 C.3   1103  ATP1103     0.3377
     24  N7        -8.6760   38.0360  -70.4030 N.2   1103  ATP1103    -0.2095
     25  C5        -8.6850   38.6040  -71.6160 C.2   1103  ATP1103     0.2526
     26  C6        -8.7950   39.9850  -72.1580 C.2   1103  ATP1103     0.4393
     27  N6        -8.9300   41.0320  -71.3150 N.pl3 1103  ATP1103     0.2180
     28  N1        -8.7630   40.1540  -73.5110 N.2   1103  ATP1103     0.0021
     29  C2        -8.6280   39.1050  -74.3760 C.3   1103  ATP1103     0.5254
     30  N3        -8.5180   37.8200  -73.9380 N.2   1103  ATP1103    -0.0055
     31  C4        -8.5400   37.5140  -72.6000 C.2   1103  ATP1103     0.3518
@<TRIPOS>BOND
     1    29    30    1
     2    29    28    1
     3    30    31    2
     4    28    26    2
     5    18    17    1
     6    15    16    1
     7    15    17    1
     8    15    14    1
     9    31    22    1
    10    31    25    1
    11    21    16    1
    12    21    22    1
    13    21    19    1
    14    17    19    1
    15    14    13    1
    16    26    25    1
    17    26    27    1
    18    20    19    1
    19    22    23    1
    20    25    24    2
    21    10     9    2
    22    13     9    1
    23    23    24    1
    24    12     9    1
    25    12     5    1
    26     6     5    2
    27     9    11    1
    28     5     8    1
    29     5     7    1
    30     8     1    1
    31     3     1    2
    32     1     4    1
    33     1     2    1
