@<TRIPOS>MOLECULE
4ii5_ADP_A_1.pdb
 27 29 0 0 0
SMALL
GASTEIGER

@<TRIPOS>ATOM
      1  PB         9.8610  -66.1720  -30.5030 P.3   301  ADP301      0.5373
      2  O1B       11.1960  -66.8780  -30.3620 O.3   301  ADP301     -0.1143
      3  O2B        9.2970  -65.6740  -29.1880 O.3   301  ADP301     -0.1143
      4  O3B        9.7960  -65.1690  -31.6420 O.2   301  ADP301     -0.2221
      5  PA         8.5030  -67.8630  -32.4210 P.3   301  ADP301      0.2231
      6  O1A        8.2390  -66.6930  -33.3370 O.2   301  ADP301     -0.5169
      7  O2A        7.4110  -68.9030  -32.3080 O.3   301  ADP301     -0.4370
      8  O3A        8.8020  -67.3290  -30.9170 O.3   301  ADP301     -0.2261
      9  O5'        9.8970  -68.5750  -32.8220 O.3   301  ADP301     -0.3111
     10  C5'       10.9500  -67.8730  -33.4810 C.3   301  ADP301      0.1813
     11  C4'       11.0320  -68.4030  -34.9150 C.3   301  ADP301      0.1821
     12  O4'       11.5050  -69.7350  -35.1540 O.3   301  ADP301     -0.3135
     13  C3'       10.2110  -67.8600  -36.0830 C.3   301  ADP301      0.2184
     14  O3'       10.6810  -66.5900  -36.5330 O.3   301  ADP301     -0.2174
     15  C2'       10.3850  -68.9480  -37.1220 C.3   301  ADP301      0.2570
     16  O2'       11.2910  -68.5190  -38.1380 O.3   301  ADP301     -0.2130
     17  C1'       10.9340  -70.1670  -36.3860 C.3   301  ADP301      0.3186
     18  N9         9.7510  -71.0370  -36.1680 N.pl3 301  ADP301     -0.1439
     19  C8         8.8750  -70.9680  -35.1380 C.3   301  ADP301      0.3377
     20  N7         7.9000  -71.8990  -35.2710 N.2   301  ADP301     -0.2095
     21  C5         8.1370  -72.5640  -36.4170 C.2   301  ADP301      0.2526
     22  C6         7.4890  -73.6680  -37.1590 C.2   301  ADP301      0.4393
     23  N6         6.3620  -74.2350  -36.6700 N.pl3 301  ADP301      0.2180
     24  N1         8.0620  -74.0720  -38.3200 N.2   301  ADP301      0.0021
     25  C2         9.1860  -73.5110  -38.8020 C.3   301  ADP301      0.5254
     26  N3         9.8190  -72.5020  -38.1800 N.2   301  ADP301     -0.0055
     27  C4         9.3550  -71.9960  -37.0100 C.2   301  ADP301      0.3518
@<TRIPOS>BOND
     1    25    24    1
     2    25    26    1
     3    24    22    2
     4    26    27    2
     5    16    15    1
     6    22    23    1
     7    22    21    1
     8    15    17    1
     9    15    13    1
    10    27    21    1
    11    27    18    1
    12    14    13    1
    13    21    20    2
    14    17    18    1
    15    17    12    1
    16    18    19    1
    17    13    11    1
    18    20    19    1
    19    12    11    1
    20    11    10    1
    21    10     9    1
    22     6     5    2
    23     9     5    1
    24     5     7    1
    25     5     8    1
    26     4     1    2
    27     8     1    1
    28     1     2    1
    29     1     3    1
