@<TRIPOS>MOLECULE
4iij_GDP_B_1.pdb
 38 40 0 0 0
SMALL
GASTEIGER

@<TRIPOS>ATOM
      1  PB        18.9380   48.4450   16.2130 P.3   501  GDP501      0.5373
      2  O1B       19.5060   48.9440   17.5210 O.3   501  GDP501     -0.1143
      3  O2B       18.6910   49.5700   15.2370 O.2   501  GDP501     -0.2221
      4  O3B       19.9320   47.4840   15.5980 O.3   501  GDP501     -0.1143
      5  O3A       17.5810   47.6270   16.4380 O.3   501  GDP501     -0.2261
      6  PA        16.2750   48.1420   17.2170 P.3   501  GDP501      0.2230
      7  O1A       15.0820   48.1320   16.2980 O.2   501  GDP501     -0.5169
      8  O2A       16.4330   49.5030   17.8400 O.3   501  GDP501     -0.4370
      9  O5'       16.1880   46.9660   18.3050 O.3   501  GDP501     -0.3116
     10  C5'       15.0520   46.1170   18.4030 C.3   501  GDP501      0.1742
     11  C4'       14.5830   46.1310   19.8510 C.3   501  GDP501      0.1246
     12  O4'       14.1220   47.4400   20.1830 O.3   501  GDP501     -0.3466
     13  C3'       13.3930   45.2380   20.0820 C.3   501  GDP501      0.1141
     14  O3'       13.3410   44.9110   21.4620 O.3   501  GDP501     -0.3864
     15  C2'       12.2060   46.1070   19.7710 C.3   501  GDP501      0.1266
     16  O2'       11.0400   45.6530   20.4570 O.3   501  GDP501     -0.3849
     17  C1'       12.6950   47.4400   20.2900 C.3   501  GDP501      0.1617
     18  N9        12.2010   48.5770   19.5020 N.pl3 501  GDP501     -0.2241
     19  C8        12.4910   48.8340   18.2190 C.2   501  GDP501      0.1451
     20  N7        11.8840   49.9830   17.8250 N.2   501  GDP501     -0.3865
     21  C5        11.2080   50.4720   18.8820 C.2   501  GDP501      0.2296
     22  C6        10.3620   51.6450   19.1600 C.2   501  GDP501      0.2859
     23  O6        10.1320   52.4830   18.2650 O.2   501  GDP501     -0.2668
     24  N1         9.8530   51.7810   20.3880 N.am  501  GDP501     -0.2418
     25  C2        10.0860   50.8890   21.3680 C.2   501  GDP501      0.2395
     26  N2         9.5300   51.0950   22.5920 N.pl3 501  GDP501     -0.3206
     27  N3        10.8540   49.7890   21.1820 N.2   501  GDP501     -0.3551
     28  C4        11.4280   49.5420   19.9870 C.2   501  GDP501      0.2272
     29  H4'       15.4070   45.8280   20.5120 H     501  GDP501      0.0655
     30  H3'       13.4240   44.3510   19.4340 H     501  GDP501      0.0648
     31 HO3'       12.5620   44.3650   21.6340 H     501  GDP501      0.2100
     32  H2'       12.0450   46.1570   18.6850 H     501  GDP501      0.0663
     33 HO2'       10.7990   44.7740   20.1350 H     501  GDP501      0.2101
     34  H1'       12.3950   47.5480   21.3420 H     501  GDP501      0.0841
     35  H8        13.1110   48.2100   17.5860 H     501  GDP501      0.1149
     36  HN1        9.2490   52.6030   20.5920 H     501  GDP501      0.1589
     37 HN21        8.9530   51.9080   22.7540 H     501  GDP501      0.1459
     38 HN22        9.6980   50.4380   23.3400 H     501  GDP501      0.1459
@<TRIPOS>BOND
     1     3     1    2
     2     4     1    1
     3     1     5    1
     4     1     2    1
     5     7     6    2
     6     5     6    1
     7     6     8    1
     8     6     9    1
     9    35    19    1
    10    20    19    2
    11    20    21    2
    12    19    18    1
    13    23    22    2
    14     9    10    1
    15    10    11    1
    16    32    15    1
    17    21    22    1
    18    21    28    1
    19    22    24   am
    20    30    13    1
    21    18    28    1
    22    18    17    1
    23    15    13    1
    24    15    17    1
    25    15    16    1
    26    11    13    1
    27    11    12    1
    28    11    29    1
    29    28    27    2
    30    13    14    1
    31    33    16    1
    32    12    17    1
    33    17    34    1
    34    24    36    1
    35    24    25    1
    36    27    25    2
    37    25    26    1
    38    14    31    1
    39    26    37    1
    40    26    38    1
