@<TRIPOS>MOLECULE
4iij_GTP_A_1.pdb
 42 44 0 0 0
SMALL
GASTEIGER

@<TRIPOS>ATOM
      1  PG        27.0000   72.5210   46.3880 P.3   501  GTP501      0.5373
      2  O1G       25.8090   73.1140   45.6690 O.3   501  GTP501     -0.1143
      3  O2G       28.2320   72.7810   45.5600 O.2   501  GTP501     -0.2221
      4  O3G       26.8340   71.0310   46.5950 O.3   501  GTP501     -0.1143
      5  O3B       27.1940   73.1750   47.8480 O.3   501  GTP501     -0.2258
      6  PB        26.2530   74.3450   48.4190 P.3   501  GTP501      0.2277
      7  O1B       26.1120   75.4250   47.3770 O.2   501  GTP501     -0.5168
      8  O2B       26.8920   74.8740   49.6750 O.3   501  GTP501     -0.4368
      9  O3A       24.8060   73.6920   48.6970 O.3   501  GTP501     -0.2700
     10  PA        23.7190   74.2990   49.7360 P.3   501  GTP501      0.2189
     11  O1A       22.4170   74.5250   49.0070 O.2   501  GTP501     -0.5170
     12  O2A       24.1810   75.5640   50.4270 O.3   501  GTP501     -0.4371
     13  O5'       23.5230   73.0870   50.7710 O.3   501  GTP501     -0.3116
     14  C5'       22.2750   72.4460   50.8740 C.3   501  GTP501      0.1742
     15  C4'       21.6980   72.6610   52.2700 C.3   501  GTP501      0.1246
     16  O4'       21.5860   74.0410   52.5420 O.3   501  GTP501     -0.3466
     17  C3'       20.3100   72.0760   52.3890 C.3   501  GTP501      0.1141
     18  O3'       20.2010   71.4630   53.6510 O.3   501  GTP501     -0.3864
     19  C2'       19.3850   73.2710   52.2460 C.3   501  GTP501      0.1266
     20  O2'       18.1790   73.1220   52.9620 O.3   501  GTP501     -0.3849
     21  C1'       20.2390   74.4120   52.7670 C.3   501  GTP501      0.1617
     22  N9        20.0130   75.6790   52.0600 N.pl3 501  GTP501     -0.2241
     23  C8        20.3210   75.9770   50.7580 C.2   501  GTP501      0.1451
     24  N7        19.9750   77.2640   50.5190 N.2   501  GTP501     -0.3865
     25  C5        19.4640   77.7940   51.6580 C.2   501  GTP501      0.2296
     26  C6        18.9610   79.0530   51.9810 C.2   501  GTP501      0.2859
     27  O6        18.9290   79.9500   51.1440 O.2   501  GTP501     -0.2668
     28  N1        18.4930   79.2940   53.2540 N.am  501  GTP501     -0.2418
     29  C2        18.5340   78.2890   54.2000 C.2   501  GTP501      0.2395
     30  N2        18.0910   78.5130   55.4300 N.pl3 501  GTP501     -0.3206
     31  N3        19.0320   77.0460   53.8770 N.2   501  GTP501     -0.3551
     32  C4        19.4920   76.8050   52.6310 C.2   501  GTP501      0.2272
     33  H4'       22.3500   72.1840   53.0030 H     501  GTP501      0.0655
     34  H3'       20.1330   71.3630   51.5840 H     501  GTP501      0.0648
     35 HO3'       19.5380   71.9420   54.1910 H     501  GTP501      0.2100
     36  H2'       19.1790   73.4350   51.1880 H     501  GTP501      0.0663
     37 HO2'       18.1330   73.8000   53.6680 H     501  GTP501      0.2101
     38  H1'       20.0560   74.5360   53.8340 H     501  GTP501      0.0841
     39  H8        20.7690   75.2930   50.0370 H     501  GTP501      0.1149
     40  HN1       18.0140   80.1920   53.4710 H     501  GTP501      0.1589
     41 HN21       18.1200   77.7720   56.1230 H     501  GTP501      0.1459
     42 HN22       17.7250   79.4260   55.6790 H     501  GTP501      0.1459
@<TRIPOS>BOND
     1     3     1    2
     2     2     1    1
     3     1     4    1
     4     1     5    1
     5     7     6    2
     6     5     6    1
     7     6     9    1
     8     6     8    1
     9     9    10    1
    10    11    10    2
    11    10    12    1
    12    10    13    1
    13    39    23    1
    14    24    23    2
    15    24    25    2
    16    23    22    1
    17    13    14    1
    18    14    15    1
    19    27    26    2
    20    36    19    1
    21    34    17    1
    22    25    26    1
    23    25    32    1
    24    26    28   am
    25    22    32    1
    26    22    21    1
    27    19    17    1
    28    19    21    1
    29    19    20    1
    30    15    17    1
    31    15    16    1
    32    15    33    1
    33    17    18    1
    34    16    21    1
    35    32    31    2
    36    21    38    1
    37    20    37    1
    38    28    40    1
    39    28    29    1
    40    18    35    1
    41    31    29    2
    42    29    30    1
    43    30    42    1
    44    30    41    1
