@<TRIPOS>MOLECULE
4iil_RBF_A_1.pdb
 47 49 0 0 0
SMALL
GASTEIGER

@<TRIPOS>ATOM
      1  N1        25.2520   38.5700   17.5740 N.2   401  RBF401     -0.3029
      2  C2        24.5770   37.8050   16.6830 C.1   401  RBF401      0.2727
      3  O2        23.6640   37.0510   17.0420 O.2   401  RBF401     -0.1927
      4  N3        24.9230   37.8540   15.3620 N.am  401  RBF401     -0.1956
      5  C4        25.8830   38.6780   14.8970 C.2   401  RBF401      0.2930
      6  O4        26.1270   38.6910   13.6760 O.2   401  RBF401     -0.2661
      7  C4A       26.6020   39.4590   15.7780 C.2   401  RBF401      0.2295
      8  N5        27.5990   40.3000   15.3660 N.2   401  RBF401     -0.3962
      9  C5A       28.2870   41.0110   16.2490 C.2   401  RBF401      0.1228
     10  C6        29.3670   41.8310   15.8240 C.2   401  RBF401     -0.0228
     11  C7        30.1020   42.6100   16.6950 C.2   401  RBF401     -0.0450
     12  C7M       31.2260   43.4880   16.1940 C.3   401  RBF401     -0.0394
     13  C8        29.7690   42.5750   18.0530 C.2   401  RBF401     -0.0489
     14  C8M       30.5190   43.4010   19.0640 C.3   401  RBF401     -0.0397
     15  C9        28.7310   41.7640   18.5110 C.2   401  RBF401     -0.0478
     16  C9A       27.9660   40.9500   17.6440 C.3   401  RBF401      0.1409
     17  N10       26.9250   40.1230   18.0680 N.pl3 401  RBF401     -0.2812
     18  C10       26.2590   39.3670   17.1450 C.2   401  RBF401      0.2319
     19  C1'       26.6050   39.9410   19.5000 C.3   401  RBF401      0.0444
     20  C2'       25.4800   40.7540   20.0590 C.3   401  RBF401      0.0992
     21  O2'       25.6840   42.0840   19.7250 O.3   401  RBF401     -0.3876
     22  C3'       25.4150   40.5280   21.5820 C.3   401  RBF401      0.1104
     23  O3'       26.5940   40.9980   22.1830 O.3   401  RBF401     -0.3865
     24  C4'       25.2040   39.0710   21.9670 C.3   401  RBF401      0.1065
     25  O4'       24.1520   38.5540   21.2340 O.3   401  RBF401     -0.3869
     26  C5'       24.9530   38.9000   23.4790 C.3   401  RBF401      0.0726
     27  O5'       23.8790   39.7090   23.9140 O.3   401  RBF401     -0.3924
     28  HN3       24.4250   37.3740   14.7570 H     401  RBF401      0.1693
     29  HC6       29.5660   41.8840   14.8640 H     401  RBF401      0.0649
     30 HC71       32.0510   43.2420   16.6320 H     401  RBF401      0.0278
     31 HC72       31.3250   43.3660   15.2210 H     401  RBF401      0.0278
     32 HC73       31.0220   44.4180   16.3820 H     401  RBF401      0.0278
     33 HC81       31.4570   43.1400   19.0690 H     401  RBF401      0.0278
     34 HC82       30.1360   43.2510   19.9530 H     401  RBF401      0.0278
     35 HC83       30.4430   44.3470   18.8370 H     401  RBF401      0.0278
     36  HC9       28.5650   41.7370   19.4760 H     401  RBF401      0.0601
     37 HC11       26.3870   39.0140   19.6430 H     401  RBF401      0.0491
     38 HC12       27.3930   40.1300   20.0130 H     401  RBF401      0.0491
     39 HC2'       24.6480   40.4380   19.6570 H     401  RBF401      0.0636
     40 HO2'       25.0850   42.3330   19.1010 H     401  RBF401      0.2100
     41 HC3'       24.6810   41.0540   21.9270 H     401  RBF401      0.0646
     42 HO3'       26.5120   41.8690   22.3600 H     401  RBF401      0.2100
     43 HC4'       25.9990   38.5850   21.7110 H     401  RBF401      0.0643
     44 HO4'       24.0040   37.7250   21.4800 H     401  RBF401      0.2100
     45 HC51       24.7460   37.9660   23.6640 H     401  RBF401      0.0584
     46 HC52       25.7580   39.1500   23.9660 H     401  RBF401      0.0584
     47 HO5'       23.3050   39.2130   24.3810 H     401  RBF401      0.2095
@<TRIPOS>BOND
     1     6     5    2
     2    28     4    1
     3    29    10    1
     4     5     4   am
     5     5     7    1
     6    31    12    1
     7     4     2   am
     8     8     7    2
     9     8     9    2
    10     7    18    1
    11    10     9    1
    12    10    11    2
    13    12    32    1
    14    12    30    1
    15    12    11    1
    16     9    16    1
    17     2     3    2
    18     2     1    2
    19    11    13    1
    20    18     1    2
    21    18    17    1
    22    16    17    1
    23    16    15    1
    24    13    15    2
    25    13    14    1
    26    17    19    1
    27    15    36    1
    28    35    14    1
    29    14    33    1
    30    14    34    1
    31    40    21    1
    32    19    37    1
    33    19    38    1
    34    19    20    1
    35    39    20    1
    36    21    20    1
    37    20    22    1
    38    25    44    1
    39    25    24    1
    40    22    41    1
    41    22    24    1
    42    22    23    1
    43    43    24    1
    44    24    26    1
    45    23    42    1
    46    26    45    1
    47    26    27    1
    48    26    46    1
    49    27    47    1
