@<TRIPOS>MOLECULE
4iim_III_E_1.pdb
 41 43 0 0 0
SMALL
GASTEIGER

@<TRIPOS>ATOM
      1  N         -2.7670  -24.5480  -30.7220 N.3   2011  VAL2011    -0.1231
      2  CA        -1.6140  -23.5920  -30.7820 C.3   2011  VAL2011     0.1692
      3  C         -1.9890  -22.2310  -30.1610 C.2   2011  VAL2011     0.2592
      4  O         -2.9530  -21.5730  -30.5780 O.2   2011  VAL2011    -0.2718
      5  CB        -1.0620  -23.4450  -32.2330 C.3   2011  VAL2011     0.0266
      6  CG1       -0.0690  -22.2880  -32.3640 C.3   2011  VAL2011     0.0020
      7  CG2       -0.4320  -24.7560  -32.6960 C.3   2011  VAL2011     0.0020
      8  N         -1.2240  -21.8310  -29.1540 N.am  2012  MET2012    -0.1965
      9  CA        -1.3940  -20.5310  -28.5020 C.3   2012  MET2012     0.1736
     10  C         -0.8480  -19.3910  -29.3530 C.2   2012  MET2012     0.2617
     11  O          0.0260  -19.5960  -30.2080 O.2   2012  MET2012    -0.2715
     12  CB        -0.6420  -20.5030  -27.1560 C.3   2012  MET2012     0.0427
     13  CG        -0.9060  -21.6590  -26.1840 C.3   2012  MET2012     0.0599
     14  SD        -2.5880  -21.7410  -25.5370 S.3   2012  MET2012    -0.1393
     15  CE        -3.1870  -23.2030  -26.4000 C.3   2012  MET2012     0.0692
     16  N         -1.3440  -18.1840  -29.0850 N.am  2013  GLY2013    -0.1941
     17  CA        -0.7490  -16.9630  -29.6250 C.3   2013  GLY2013     0.1998
     18  C          0.6180  -16.7660  -28.9810 C.2   2013  GLY2013     0.2481
     19  O          1.0590  -17.5930  -28.1670 O.2   2013  GLY2013    -0.2729
     20  N          1.3060  -15.6830  -29.3510 N.am  2014  PRO2014    -0.2715
     21  CA         2.6760  -15.3940  -28.9160 C.3   2014  PRO2014     0.1536
     22  C          2.7640  -14.7680  -27.5080 C.2   2014  PRO2014     0.2599
     23  O          3.8580  -14.7430  -26.8710 O.2   2014  PRO2014    -0.2715
     24  CB         3.1580  -14.3940  -29.9720 C.3   2014  PRO2014     0.0310
     25  CG         1.9180  -13.7020  -30.4600 C.3   2014  PRO2014     0.0237
     26  CD         0.7880  -14.6900  -30.3100 C.3   2014  PRO2014     0.0939
     27  N          1.6300  -14.2490  -27.0280 N.am  2015  TRP2015    -0.1939
     28  CA         1.6330  -13.4800  -25.7790 C.3   2015  TRP2015     0.2018
     29  C          0.8340  -14.1360  -24.6600 C.2   2015  TRP2015     0.3845
     30  O          0.2470  -15.2050  -24.8010 O.co2 2015  TRP2015    -0.2437
     31  CB         1.0600  -12.0740  -26.0120 C.3   2015  TRP2015     0.0575
     32  CG         1.8500  -11.1690  -26.9550 C.2   2015  TRP2015    -0.0136
     33  CD1        3.0630  -11.4200  -27.5730 C.2   2015  TRP2015     0.0907
     34  CD2        1.4740   -9.8420  -27.3310 C.3   2015  TRP2015     0.0819
     35  NE1        3.4300  -10.3200  -28.3410 N.2   2015  TRP2015    -0.2482
     36  CE2        2.4800   -9.3390  -28.1920 C.2   2015  TRP2015     0.0665
     37  CE3        0.3800   -9.0160  -27.0070 C.2   2015  TRP2015    -0.0164
     38  CZ2        2.4130   -8.0480  -28.7500 C.2   2015  TRP2015     0.0153
     39  CZ3        0.3160   -7.7290  -27.5740 C.2   2015  TRP2015    -0.0038
     40  CH2        1.3270   -7.2700  -28.4360 C.2   2015  TRP2015     0.0009
     41  OXT        0.7360  -13.5640  -23.5790 O.co2 2015  TRP2015    -0.2437
@<TRIPOS>BOND
     1     7     5    1
     2     6     5    1
     3     5     2    1
     4     2     1    1
     5     2     3    1
     6     4     3    2
     7    25    26    1
     8    25    24    1
     9    26    20    1
    10    11    10    2
    11     3     8   am
    12    24    21    1
    13    17    16    1
    14    17    18    1
    15    10    16   am
    16    10     9    1
    17    20    18   am
    18    20    21    1
    19     8     9    1
    20    18    19    2
    21    21    22    1
    22    38    40    2
    23    38    36    1
    24     9    12    1
    25    40    39    1
    26    35    36    2
    27    35    33    1
    28    36    34    1
    29    39    37    2
    30    33    32    2
    31    22    27   am
    32    22    23    2
    33    34    37    1
    34    34    32    1
    35    12    13    1
    36    27    28    1
    37    32    31    1
    38    15    14    1
    39    13    14    1
    40    31    28    1
    41    28    29    1
    42    30    29   ar
    43    29    41   ar
