@<TRIPOS>MOLECULE
4iin_NAD_A_1.pdb
 44 48 0 0 0
SMALL
GASTEIGER

@<TRIPOS>ATOM
      1  PA        72.0540   24.5800   54.3670 P.3   301  NAD301      0.2189
      2  O1A       71.4880   25.3770   55.5200 O.3   301  NAD301     -0.4371
      3  O2A       71.3370   24.6740   53.0370 O.2   301  NAD301     -0.5170
      4  O5B       72.2090   23.0200   54.8050 O.3   301  NAD301     -0.3112
      5  C5B       72.8630   22.0090   54.0100 C.3   301  NAD301      0.1813
      6  C4B       71.8810   21.2320   53.1070 C.3   301  NAD301      0.1821
      7  O4B       72.1650   19.8200   53.1880 O.3   301  NAD301     -0.3135
      8  C3B       70.3810   21.4210   53.4400 C.3   301  NAD301      0.2184
      9  O3B       69.6330   21.8870   52.2840 O.3   301  NAD301     -0.2174
     10  C2B       69.9270   20.0620   53.9870 C.3   301  NAD301      0.2570
     11  O2B       68.5820   19.7370   53.6050 O.3   301  NAD301     -0.2130
     12  C1B       70.9380   19.0760   53.3910 C.3   301  NAD301      0.3186
     13  N9A       71.1760   17.8030   54.1650 N.pl3 301  NAD301     -0.1439
     14  C8A       71.6790   17.7320   55.4190 C.3   301  NAD301      0.3377
     15  N7A       71.8060   16.4450   55.8220 N.2   301  NAD301     -0.2095
     16  C5A       71.3730   15.6470   54.8220 C.2   301  NAD301      0.2526
     17  C6A       71.2330   14.1780   54.5910 C.2   301  NAD301      0.4393
     18  N6A       71.5920   13.3070   55.5590 N.pl3 301  NAD301      0.2180
     19  N1A       70.7420   13.7320   53.4010 N.2   301  NAD301      0.0021
     20  C2A       70.3910   14.5990   52.4410 C.3   301  NAD301      0.5254
     21  N3A       70.4980   15.9470   52.5900 N.2   301  NAD301     -0.0055
     22  C4A       70.9690   16.5400   53.7240 C.2   301  NAD301      0.3518
     23  O3        73.6180   25.0090   54.2740 O.3   301  NAD301     -0.2703
     24  PN        74.4760   25.3470   52.9450 P.3   301  NAD301      0.2189
     25  O1N       74.7660   26.8490   52.9360 O.3   301  NAD301     -0.4371
     26  O2N       73.7810   24.6980   51.7470 O.2   301  NAD301     -0.5170
     27  O5D       75.8160   24.4700   53.2440 O.3   301  NAD301     -0.3112
     28  C5D       76.1630   23.3750   52.3730 C.3   301  NAD301      0.1813
     29  C4D       77.4990   22.6950   52.6440 C.3   301  NAD301      0.1799
     30  O4D       78.5320   23.6680   52.7140 O.3   301  NAD301     -0.3327
     31  C3D       77.4580   21.9300   53.9610 C.3   301  NAD301      0.2158
     32  O3D       78.1940   20.7090   53.8460 O.3   301  NAD301     -0.2175
     33  C2D       78.0600   22.9460   54.9130 C.3   301  NAD301      0.2309
     34  O2D       78.4600   22.3660   56.1720 O.3   301  NAD301     -0.2158
     35  C1D       79.1500   23.5700   54.0050 C.3   301  NAD301      0.2263
     36  N1N       79.6290   24.8660   54.5150 N.pl3 301  NAD301     -0.2787
     37  C2N       78.7560   25.8970   54.6670 C.3   301  NAD301      0.1244
     38  C3N       79.1770   27.1280   55.1660 C.2   301  NAD301      0.0544
     39  C7N       78.2500   28.3110   55.3890 C.2   301  NAD301      0.2818
     40  O7N       78.7740   29.3140   55.9530 O.2   301  NAD301     -0.2670
     41  N7N       76.9280   28.2420   55.0610 N.am  301  NAD301     -0.0839
     42  C4N       80.5280   27.2370   55.5350 C.2   301  NAD301      0.0033
     43  C5N       81.4060   26.1580   55.3920 C.2   301  NAD301      0.0157
     44  C6N       80.9220   24.9660   54.8690 C.2   301  NAD301      0.0633
@<TRIPOS>BOND
     1    26    24    2
     2     9     8    1
     3    28    29    1
     4    28    27    1
     5    20    21    1
     6    20    19    1
     7    21    22    2
     8    29    30    1
     9    29    31    1
    10    30    35    1
    11    25    24    1
    12    24    27    1
    13    24    23    1
    14     3     1    2
    15     6     7    1
    16     6     8    1
    17     6     5    1
    18     7    12    1
    19    12    10    1
    20    12    13    1
    21    19    17    2
    22     8    10    1
    23    11    10    1
    24    22    13    1
    25    22    16    1
    26    32    31    1
    27    31    33    1
    28    35    36    1
    29    35    33    1
    30     5     4    1
    31    13    14    1
    32    23     1    1
    33     1     4    1
    34     1     2    1
    35    36    37    1
    36    36    44    1
    37    17    16    1
    38    17    18    1
    39    37    38    1
    40    16    15    2
    41    44    43    2
    42    33    34    1
    43    41    39   am
    44    38    39    1
    45    38    42    2
    46    39    40    2
    47    43    42    1
    48    14    15    1
