@<TRIPOS>MOLECULE
4iiu_NAP_A_1.pdb
 48 52 0 0 0
SMALL
GASTEIGER

@<TRIPOS>ATOM
      1  PA        31.9560   63.9630  -13.5270 P.3   1901  NAP1901     0.2189
      2  O1A       31.3710   62.9770  -14.5340 O.2   1901  NAP1901    -0.5170
      3  O2A       31.7800   65.4470  -13.5120 O.3   1901  NAP1901    -0.4371
      4  O5B       33.5480   63.7080  -13.4010 O.3   1901  NAP1901    -0.3112
      5  C5B       33.9690   62.3500  -13.4870 C.3   1901  NAP1901     0.1813
      6  C4B       35.4650   62.2130  -13.2250 C.3   1901  NAP1901     0.1820
      7  O4B       35.6980   60.8020  -13.2350 O.3   1901  NAP1901    -0.3136
      8  C3B       36.3320   62.8230  -14.3440 C.3   1901  NAP1901     0.2157
      9  O3B       37.4010   63.6280  -13.8340 O.3   1901  NAP1901    -0.2175
     10  C2B       36.8200   61.6280  -15.1390 C.3   1901  NAP1901     0.2314
     11  O2B       38.0900   61.7970  -15.8010 O.3   1901  NAP1901    -0.2630
     12  C1B       36.8300   60.5440  -14.0700 C.3   1901  NAP1901     0.3158
     13  N9A       36.7420   59.2260  -14.6950 N.pl3 1901  NAP1901    -0.1439
     14  C8A       35.7060   58.6940  -15.3770 C.3   1901  NAP1901     0.3377
     15  N7A       36.0040   57.4320  -15.7800 N.2   1901  NAP1901    -0.2095
     16  C5A       37.2720   57.1880  -15.4120 C.2   1901  NAP1901     0.2526
     17  C6A       38.2160   56.0810  -15.5320 C.2   1901  NAP1901     0.4393
     18  N6A       37.8940   54.9470  -16.1840 N.pl3 1901  NAP1901     0.2180
     19  N1A       39.4120   56.2440  -14.9700 N.2   1901  NAP1901     0.0021
     20  C2A       39.7870   57.3410  -14.3180 C.3   1901  NAP1901     0.5254
     21  N3A       38.9850   58.3860  -14.1460 N.2   1901  NAP1901    -0.0055
     22  C4A       37.7500   58.3590  -14.6800 C.2   1901  NAP1901     0.3518
     23  O3        31.5100   63.2350  -12.1530 O.3   1901  NAP1901    -0.2703
     24  PN        31.0620   63.9840  -10.8000 P.3   1901  NAP1901     0.2189
     25  O1N       29.5910   64.3180  -10.9360 O.2   1901  NAP1901    -0.5170
     26  O2N       32.0260   65.0660  -10.3960 O.3   1901  NAP1901    -0.4371
     27  O5D       31.1110   62.6520   -9.9150 O.3   1901  NAP1901    -0.3112
     28  C5D       32.2640   62.3270   -9.1250 C.3   1901  NAP1901     0.1813
     29  C4D       31.9310   61.1680   -8.1970 C.3   1901  NAP1901     0.1799
     30  O4D       30.7550   61.5410   -7.4590 O.3   1901  NAP1901    -0.3327
     31  C3D       31.6000   59.8860   -8.9540 C.3   1901  NAP1901     0.2158
     32  O3D       32.0880   58.6860   -8.2940 O.3   1901  NAP1901    -0.2175
     33  C2D       30.0750   59.8970   -8.9530 C.3   1901  NAP1901     0.2309
     34  O2D       29.5220   58.5900   -9.0660 O.3   1901  NAP1901    -0.2158
     35  C1D       29.7840   60.5170   -7.5960 C.3   1901  NAP1901     0.2263
     36  N1N       28.4290   61.0780   -7.4550 N.pl3 1901  NAP1901    -0.2787
     37  C2N       28.0100   62.0990   -8.2330 C.3   1901  NAP1901     0.1244
     38  C3N       26.7190   62.6190   -8.0860 C.2   1901  NAP1901     0.0544
     39  C7N       26.1840   63.7400   -8.9340 C.2   1901  NAP1901     0.2818
     40  O7N       24.9880   64.0350   -8.8760 O.2   1901  NAP1901    -0.2670
     41  N7N       27.0100   64.4290   -9.7140 N.am  1901  NAP1901    -0.0839
     42  C4N       25.8960   62.0700   -7.1060 C.2   1901  NAP1901     0.0033
     43  C5N       26.3510   61.0230   -6.3210 C.2   1901  NAP1901     0.0157
     44  C6N       27.6330   60.5520   -6.5070 C.2   1901  NAP1901     0.0633
     45  P2B       38.1890   62.5750  -17.2280 P.3   1901  NAP1901     0.5328
     46  O1X       37.7400   61.5100  -18.1760 O.2   1901  NAP1901    -0.2224
     47  O2X       37.2380   63.7280  -17.1920 O.3   1901  NAP1901    -0.1145
     48  O3X       39.6220   63.0010  -17.2780 O.3   1901  NAP1901    -0.1145
@<TRIPOS>BOND
     1    46    45    2
     2    48    45    1
     3    45    47    1
     4    45    11    1
     5    18    17    1
     6    11    10    1
     7    15    16    2
     8    15    14    1
     9    17    16    1
    10    17    19    2
    11    16    22    1
    12    14    13    1
    13    10     8    1
    14    10    12    1
    15    19    20    1
    16    13    22    1
    17    13    12    1
    18    22    21    2
    19     2     1    2
    20     8     9    1
    21     8     6    1
    22    20    21    1
    23    12     7    1
    24     1     3    1
    25     1     4    1
    26     1    23    1
    27     5     4    1
    28     5     6    1
    29     7     6    1
    30    23    24    1
    31    25    24    2
    32    24    26    1
    33    24    27    1
    34    27    28    1
    35    41    39   am
    36    28    29    1
    37    34    33    1
    38    31    33    1
    39    31    32    1
    40    31    29    1
    41    33    35    1
    42    39    40    2
    43    39    38    1
    44    37    38    1
    45    37    36    1
    46    29    30    1
    47    38    42    2
    48    35    30    1
    49    35    36    1
    50    36    44    1
    51    42    43    1
    52    44    43    2
