@<TRIPOS>MOLECULE
4iiv_NAP_A_1.pdb
 48 52 0 0 0
SMALL
GASTEIGER

@<TRIPOS>ATOM
      1  PA        69.2710   -8.1100  -23.0310 P.3   1901  NAP1901     0.2189
      2  O1A       68.1140   -8.0260  -23.9880 O.2   1901  NAP1901    -0.5170
      3  O2A       70.3950   -7.1250  -22.9680 O.3   1901  NAP1901    -0.4371
      4  O5B       70.0270   -9.5090  -23.1380 O.3   1901  NAP1901    -0.3112
      5  C5B       69.3420  -10.7520  -23.1930 C.3   1901  NAP1901     0.1813
      6  C4B       70.3520  -11.8050  -22.7860 C.3   1901  NAP1901     0.1820
      7  O4B       69.6940  -13.0460  -22.5220 O.3   1901  NAP1901    -0.3136
      8  C3B       71.3420  -12.0290  -23.9110 C.3   1901  NAP1901     0.2157
      9  O3B       72.6470  -12.3060  -23.3650 O.3   1901  NAP1901    -0.2175
     10  C2B       70.7980  -13.2470  -24.6380 C.3   1901  NAP1901     0.2314
     11  O2B       71.7910  -14.0370  -25.3260 O.3   1901  NAP1901    -0.2630
     12  C1B       70.1690  -14.0110  -23.4780 C.3   1901  NAP1901     0.3158
     13  N9A       69.0830  -14.8290  -24.0380 N.pl3 1901  NAP1901    -0.1439
     14  C8A       67.9490  -14.3740  -24.6450 C.3   1901  NAP1901     0.3377
     15  N7A       67.1850  -15.4120  -25.0370 N.2   1901  NAP1901    -0.2095
     16  C5A       67.8400  -16.5410  -24.6820 C.2   1901  NAP1901     0.2526
     17  C6A       67.6070  -17.9840  -24.8210 C.2   1901  NAP1901     0.4393
     18  N6A       66.4880  -18.4480  -25.4010 N.pl3 1901  NAP1901     0.2180
     19  N1A       68.5240  -18.8130  -24.3360 N.2   1901  NAP1901     0.0021
     20  C2A       69.6380  -18.3560  -23.7350 C.3   1901  NAP1901     0.5254
     21  N3A       69.9350  -17.0600  -23.5680 N.2   1901  NAP1901    -0.0055
     22  C4A       69.0890  -16.1420  -24.0310 C.2   1901  NAP1901     0.3518
     23  O3        68.5610   -8.1800  -21.5860 O.3   1901  NAP1901    -0.2703
     24  PN        68.8710   -7.2950  -20.2840 P.3   1901  NAP1901     0.2189
     25  O1N       68.0360   -6.0520  -20.3480 O.2   1901  NAP1901    -0.5170
     26  O2N       70.3700   -7.2880  -20.0590 O.3   1901  NAP1901    -0.4371
     27  O5D       68.1260   -8.2280  -19.2180 O.3   1901  NAP1901    -0.3112
     28  C5D       68.6850   -9.3610  -18.5250 C.3   1901  NAP1901     0.1813
     29  C4D       67.6510   -9.8230  -17.5080 C.3   1901  NAP1901     0.1799
     30  O4D       67.1300   -8.6720  -16.8160 O.3   1901  NAP1901    -0.3327
     31  C3D       66.4480  -10.4440  -18.1980 C.3   1901  NAP1901     0.2158
     32  O3D       66.0630  -11.6710  -17.5860 O.3   1901  NAP1901    -0.2175
     33  C2D       65.3350   -9.4040  -18.0560 C.3   1901  NAP1901     0.2309
     34  O2D       64.0220   -9.9670  -18.0390 O.3   1901  NAP1901    -0.2158
     35  C1D       65.6910   -8.6840  -16.7620 C.3   1901  NAP1901     0.2263
     36  N1N       65.1430   -7.3180  -16.5810 N.pl3 1901  NAP1901    -0.2787
     37  C2N       65.5300   -6.3180  -17.3720 C.3   1901  NAP1901     0.1244
     38  C3N       65.0420   -5.0130  -17.2170 C.2   1901  NAP1901     0.0544
     39  C7N       65.4790   -3.8880  -18.1350 C.2   1901  NAP1901     0.2818
     40  O7N       64.8430   -2.8540  -18.1220 O.2   1901  NAP1901    -0.2670
     41  N7N       66.5300   -4.0150  -18.9660 N.am  1901  NAP1901    -0.0839
     42  C4N       64.1380   -4.7550  -16.2090 C.2   1901  NAP1901     0.0033
     43  C5N       63.7450   -5.7880  -15.3900 C.2   1901  NAP1901     0.0157
     44  C6N       64.2590   -7.0680  -15.6020 C.2   1901  NAP1901     0.0633
     45  P2B       72.4370  -13.5900  -26.7620 P.3   1901  NAP1901     0.5328
     46  O1X       71.2800  -13.5540  -27.7230 O.2   1901  NAP1901    -0.2224
     47  O2X       72.9980  -12.2100  -26.6140 O.3   1901  NAP1901    -0.1145
     48  O3X       73.4260  -14.7030  -26.9700 O.3   1901  NAP1901    -0.1145
@<TRIPOS>BOND
     1    46    45    2
     2    48    45    1
     3    45    47    1
     4    45    11    1
     5    18    17    1
     6    11    10    1
     7    15    16    2
     8    15    14    1
     9    17    16    1
    10    17    19    2
    11    16    22    1
    12    14    13    1
    13    10     8    1
    14    10    12    1
    15    19    20    1
    16    13    22    1
    17    13    12    1
    18    22    21    2
    19     2     1    2
    20     8     9    1
    21     8     6    1
    22    20    21    1
    23    12     7    1
    24     5     4    1
    25     5     6    1
    26     4     1    1
    27     1     3    1
    28     1    23    1
    29     6     7    1
    30    23    24    1
    31    25    24    2
    32    24    26    1
    33    24    27    1
    34    27    28    1
    35    41    39   am
    36    28    29    1
    37    31    33    1
    38    31    32    1
    39    31    29    1
    40    39    40    2
    41    39    38    1
    42    33    34    1
    43    33    35    1
    44    29    30    1
    45    37    38    1
    46    37    36    1
    47    38    42    2
    48    30    35    1
    49    35    36    1
    50    36    44    1
    51    42    43    1
    52    44    43    2
