@<TRIPOS>MOLECULE
4iiz_LUR_A_1.pdb
 20 21 0 0 0
SMALL
GASTEIGER

@<TRIPOS>ATOM
      1  OAB       21.4920    2.0240  -31.7160 O.co2 201  LUR201     -0.2453
      2  CAN       21.7470    1.2760  -30.7580 C.2   201  LUR201      0.3693
      3  OAC       22.7700    1.3720  -30.0400 O.co2 201  LUR201     -0.2453
      4  CAL       20.7640    0.0780  -30.4900 C.3   201  LUR201      0.1416
      5  CAR       19.5660    0.4120  -29.5200 C.ar  201  LUR201      0.0040
      6  CAK       18.4080    0.9860  -30.0800 C.ar  201  LUR201     -0.0067
      7  CAO       17.3050    1.3050  -29.2750 C.ar  201  LUR201     -0.0221
      8  CAA       16.0440    1.9510  -29.8280 C.3   201  LUR201      0.0310
      9  CAI       17.3220    1.0620  -27.9150 C.ar  201  LUR201     -0.0029
     10  CAJ       18.4440    0.4980  -27.3360 C.ar  201  LUR201      0.0159
     11  CAS       19.5390    0.1760  -28.1200 C.ar  201  LUR201      0.0671
     12  NAM       20.5600   -0.3860  -27.4990 N.pl3 201  LUR201     -0.2097
     13  CAT       21.0420   -0.0720  -26.2980 C.ar  201  LUR201      0.1083
     14  CAQ       22.3160    0.4780  -26.3020 C.ar  201  LUR201      0.0751
     15 CLE        23.1430    0.7740  -27.8100 Cl    201  LUR201     -0.0808
     16  CAH       22.9150    0.7970  -25.0860 C.ar  201  LUR201      0.0129
     17  CAF       22.2460    0.5520  -23.8980 C.ar  201  LUR201      0.0033
     18  CAG       20.9830   -0.0010  -23.8910 C.ar  201  LUR201      0.0310
     19  CAP       20.3810   -0.3290  -25.0830 C.ar  201  LUR201      0.1561
     20  FAD       19.1550   -0.8700  -25.0120 F     201  LUR201     -0.2028
@<TRIPOS>BOND
     1     1     2   ar
     2     2     4    1
     3     2     3   ar
     4     4     5    1
     5     6     5   ar
     6     6     7   ar
     7     8     7    1
     8     5    11   ar
     9     7     9   ar
    10    11    12    1
    11    11    10   ar
    12     9    10   ar
    13    15    14    1
    14    12    13    1
    15    14    13   ar
    16    14    16   ar
    17    13    19   ar
    18    16    17   ar
    19    19    20    1
    20    19    18   ar
    21    17    18   ar
