@<TRIPOS>MOLECULE
4ij8_SAM_A_1.pdb
 27 29 0 0 0
SMALL
GASTEIGER

@<TRIPOS>ATOM
      1  N        -22.2370   33.1940   11.9360 N.3   501  SAM501     -0.1208
      2  CA       -21.5650   32.0090   11.4190 C.3   501  SAM501      0.1952
      3  C        -21.8020   30.8430   12.3380 C.2   501  SAM501      0.3819
      4  O        -22.3510   31.0100   13.4760 O.co2 501  SAM501     -0.2441
      5  OXT      -21.4810   29.7200   11.9290 O.co2 501  SAM501     -0.2441
      6  CB       -20.0670   32.2620   11.2260 C.3   501  SAM501      0.0414
      7  CG       -19.7360   32.8280    9.8160 C.3   501  SAM501      0.0503
      8  SD       -20.2280   31.8210    8.5300 S.3   501  SAM501     -0.1761
      9  CE       -18.8800   31.6570    7.5230 C.3   501  SAM501      0.0590
     10  C5'      -21.4940   32.4060    7.5080 C.3   501  SAM501      0.0806
     11  C4'      -22.8960   32.6220    8.1000 C.3   501  SAM501      0.1622
     12  O4'      -22.8630   33.6880    9.0840 O.3   501  SAM501     -0.3153
     13  C3'      -23.9290   33.1360    7.1060 C.3   501  SAM501      0.2168
     14  O3'      -24.4920   32.1810    6.1820 O.3   501  SAM501     -0.2175
     15  C2'      -24.9370   33.8380    8.0020 C.3   501  SAM501      0.2569
     16  O2'      -25.8560   32.9570    8.6990 O.3   501  SAM501     -0.2130
     17  C1'      -24.0300   34.4890    9.0160 C.3   501  SAM501      0.3185
     18  N9       -23.6080   35.8650    8.6810 N.pl3 501  SAM501     -0.1439
     19  C8       -22.3690   36.2300    8.2830 C.3   501  SAM501      0.3377
     20  N7       -22.2870   37.5540    8.1090 N.2   501  SAM501     -0.2095
     21  C5       -23.5150   38.0440    8.4110 C.2   501  SAM501      0.2526
     22  C6       -24.1010   39.3350    8.3870 C.2   501  SAM501      0.4393
     23  N6       -23.3790   40.4410    8.0370 N.pl3 501  SAM501      0.2180
     24  N1       -25.3940   39.4480    8.7610 N.2   501  SAM501      0.0021
     25  C2       -26.1410   38.4000    9.1070 C.3   501  SAM501      0.5254
     26  N3       -25.6530   37.1500    9.1070 N.2   501  SAM501     -0.0055
     27  C4       -24.3530   36.9380    8.7860 C.2   501  SAM501      0.3518
@<TRIPOS>BOND
     1    14    13    1
     2    13    15    1
     3    13    11    1
     4    10    11    1
     5    10     8    1
     6     9     8    1
     7    15    16    1
     8    15    17    1
     9    23    22    1
    10    11    12    1
    11    20    19    1
    12    20    21    2
    13    19    18    1
    14    22    21    1
    15    22    24    2
    16    21    27    1
    17     8     7    1
    18    18    27    1
    19    18    17    1
    20    24    25    1
    21    27    26    2
    22    17    12    1
    23    25    26    1
    24     7     6    1
    25     6     2    1
    26     2     1    1
    27     2     3    1
    28     5     3   ar
    29     3     4   ar
