@<TRIPOS>MOLECULE
4iji_99T_A_1.pdb
 25 24 0 0 0
SMALL
GASTEIGER

@<TRIPOS>ATOM
      1  O32       15.7320    9.8100   -1.9750 O.co2 501  99T501     -0.2437
      2  C3        15.1750    9.2450   -0.9980 C.2   501  99T501      0.3865
      3  O31       14.9770    7.9950   -1.0070 O.co2 501  99T501     -0.2437
      4  CA3       14.7650   10.0470    0.1920 C.3   501  99T501      0.2285
      5  N3        13.9770    9.3510    1.1550 N.am  501  99T501     -0.1917
      6  C2        14.2990    9.3670    2.5330 C.2   501  99T501      0.2626
      7  O2        15.2860    9.9950    2.9250 O.2   501  99T501     -0.2714
      8  CA2       13.4310    8.6110    3.4750 C.3   501  99T501      0.1834
      9  CB2       12.4050    9.5090    4.0710 C.3   501  99T501      0.0886
     10  SG2       11.0850    8.6910    4.8950 S.3   501  99T501     -0.1373
     11  N2        14.3070    8.0450    4.4500 N.am  501  99T501     -0.1969
     12  CD1       14.7040    6.7020    4.3030 C.2   501  99T501      0.2418
     13  OE1       14.2750    6.0250    3.3630 O.2   501  99T501     -0.2733
     14  CG1       15.6510    6.1450    5.2980 C.3   501  99T501      0.0889
     15  CB1       16.0050    4.7000    5.1680 C.3   501  99T501      0.0402
     16  CA1       17.3010    4.3120    5.8060 C.3   501  99T501      0.1948
     17  N1        17.5340    2.9130    5.5610 N.3   501  99T501     -0.1208
     18  C1        17.2020    4.4810    7.2820 C.2   501  99T501      0.3819
     19  O01       16.8490    3.5250    8.0200 O.co2 501  99T501     -0.2441
     20  O02       17.4980    5.5990    7.7900 O.co2 501  99T501     -0.2441
     21  C08        9.6090    9.6270    4.6470 C.3   501  99T501      0.0694
     22  C09        8.9480    9.6010    3.3160 C.3   501  99T501      0.1257
     23  C10        7.7340   10.4540    3.2740 C.2   501  99T501      0.3658
     24  O11        7.8470   11.7000    3.0930 O.co2 501  99T501     -0.2456
     25  O12        6.6090    9.9280    3.4670 O.co2 501  99T501     -0.2456
@<TRIPOS>BOND
     1     1     2   ar
     2     3     2   ar
     3     2     4    1
     4     4     5    1
     5     5     6   am
     6     6     7    2
     7     6     8    1
     8    24    23   ar
     9    23    22    1
    10    23    25   ar
    11    22    21    1
    12    13    12    2
    13     8     9    1
    14     8    11    1
    15     9    10    1
    16    12    11   am
    17    12    14    1
    18    21    10    1
    19    15    14    1
    20    15    16    1
    21    17    16    1
    22    16    18    1
    23    18    20   ar
    24    18    19   ar
