@<TRIPOS>MOLECULE
4ijm_ATP_A_1.pdb
 31 33 0 0 0
SMALL
GASTEIGER

@<TRIPOS>ATOM
      1  PG       126.2520   82.1030   16.9460 P.3   802  ATP802      0.5373
      2  O1G      125.8500   81.7990   15.5240 O.2   802  ATP802     -0.2221
      3  O2G      125.4040   81.4130   17.9860 O.3   802  ATP802     -0.1143
      4  O3G      127.7400   82.0080   17.1910 O.3   802  ATP802     -0.1143
      5  PB       126.2750   84.8200   16.0960 P.3   802  ATP802      0.2277
      6  O1B      126.0720   84.2790   14.7090 O.2   802  ATP802     -0.5168
      7  O2B      125.5090   86.0480   16.5180 O.3   802  ATP802     -0.4368
      8  O3B      125.9760   83.6730   17.1900 O.3   802  ATP802     -0.2258
      9  PA       128.8600   85.8620   15.3660 P.3   802  ATP802      0.2189
     10  O1A      130.1670   85.1030   15.3640 O.2   802  ATP802     -0.5170
     11  O2A      128.8470   87.3330   15.7060 O.3   802  ATP802     -0.4371
     12  O3A      127.8400   85.1020   16.3640 O.3   802  ATP802     -0.2700
     13  O5'      128.2630   85.7130   13.8810 O.3   802  ATP802     -0.3112
     14  C5'      128.6660   84.6230   13.0550 C.3   802  ATP802      0.1813
     15  C4'      128.6810   85.0780   11.6020 C.3   802  ATP802      0.1821
     16  O4'      129.7310   86.0270   11.4060 O.3   802  ATP802     -0.3135
     17  C3'      128.9380   83.9240   10.6480 C.3   802  ATP802      0.2184
     18  O3'      127.7250   83.5360    9.9970 O.3   802  ATP802     -0.2174
     19  C2'      129.9410   84.4510    9.6400 C.3   802  ATP802      0.2570
     20  O2'      129.3290   84.5840    8.3540 O.3   802  ATP802     -0.2130
     21  C1'      130.3730   85.8180   10.1470 C.3   802  ATP802      0.3186
     22  N9       131.8490   85.8360   10.3120 N.pl3 802  ATP802     -0.1439
     23  C8       132.5270   85.3750   11.3810 C.3   802  ATP802      0.3377
     24  N7       133.8660   85.5330   11.2190 N.2   802  ATP802     -0.2095
     25  C5       134.0630   86.1080   10.0180 C.2   802  ATP802      0.2526
     26  C6       135.2360   86.5510    9.2240 C.2   802  ATP802      0.4393
     27  N6       136.4990   86.4090    9.6950 N.pl3 802  ATP802      0.2180
     28  N1       135.0020   87.1040    8.0130 N.2   802  ATP802      0.0021
     29  C2       133.7530   87.2520    7.5330 C.3   802  ATP802      0.5254
     30  N3       132.6460   86.8730    8.1970 N.2   802  ATP802     -0.0055
     31  C4       132.7310   86.3030    9.4230 C.2   802  ATP802      0.3518
@<TRIPOS>BOND
     1    29    28    1
     2    29    30    1
     3    28    26    2
     4    30    31    2
     5    20    19    1
     6    26    27    1
     7    26    25    1
     8    31    25    1
     9    31    22    1
    10    19    21    1
    11    19    17    1
    12    18    17    1
    13    25    24    2
    14    21    22    1
    15    21    16    1
    16    22    23    1
    17    17    15    1
    18    24    23    1
    19    16    15    1
    20    15    14    1
    21    14    13    1
    22    13     9    1
    23     6     5    2
    24    10     9    2
    25     9    11    1
    26     9    12    1
    27     2     1    2
    28     5    12    1
    29     5     7    1
    30     5     8    1
    31     1     8    1
    32     1     4    1
    33     1     3    1
