@<TRIPOS>MOLECULE
4ijn_AMP_A_1.pdb
 23 25 0 0 0
SMALL
GASTEIGER

@<TRIPOS>ATOM
      1  P         63.1900   -0.1040    1.9000 P.3   402  AMP402      0.5327
      2  O1P       61.7060   -0.3880    1.7670 O.3   402  AMP402     -0.1145
      3  O2P       63.7860   -0.7430    3.1410 O.3   402  AMP402     -0.1145
      4  O3P       63.5380    1.3300    1.6650 O.2   402  AMP402     -0.2224
      5  O5'       63.9290   -0.9140    0.7310 O.3   402  AMP402     -0.2675
      6  C5'       63.6640   -2.3130    0.6270 C.3   402  AMP402      0.1860
      7  C4'       64.2290   -2.9270   -0.6440 C.3   402  AMP402      0.1823
      8  O4'       65.5620   -2.4330   -0.8480 O.3   402  AMP402     -0.3135
      9  C3'       64.3590   -4.4590   -0.5560 C.3   402  AMP402      0.2184
     10  O3'       63.9760   -5.0930   -1.7840 O.3   402  AMP402     -0.2174
     11  C2'       65.8360   -4.7160   -0.3320 C.3   402  AMP402      0.2570
     12  O2'       66.3080   -6.0240   -0.7470 O.3   402  AMP402     -0.2130
     13  C1'       66.4000   -3.5590   -1.1450 C.3   402  AMP402      0.3186
     14  N9        67.7980   -3.3490   -0.7570 N.pl3 402  AMP402     -0.1439
     15  C8        68.2120   -2.7620    0.3860 C.3   402  AMP402      0.3377
     16  N7        69.5620   -2.7710    0.4300 N.2   402  AMP402     -0.2095
     17  C5        70.0110   -3.3760   -0.6870 C.2   402  AMP402      0.2526
     18  C6        71.3360   -3.7170   -1.2490 C.2   402  AMP402      0.4393
     19  N6        72.4740   -3.3900   -0.5830 N.pl3 402  AMP402      0.2180
     20  N1        71.3660   -4.3720   -2.4330 N.2   402  AMP402      0.0021
     21  C2        70.2340   -4.7030   -3.1000 C.3   402  AMP402      0.5254
     22  N3        68.9950   -4.4240   -2.6370 N.2   402  AMP402     -0.0055
     23  C4        68.8360   -3.7720   -1.4620 C.2   402  AMP402      0.3518
@<TRIPOS>BOND
     1    21    22    1
     2    21    20    1
     3    22    23    2
     4    20    18    2
     5    10     9    1
     6    23    14    1
     7    23    17    1
     8    18    17    1
     9    18    19    1
    10    13     8    1
    11    13    14    1
    12    13    11    1
    13     8     7    1
    14    14    15    1
    15    12    11    1
    16    17    16    2
    17     7     9    1
    18     7     6    1
    19     9    11    1
    20    15    16    1
    21     6     5    1
    22     5     1    1
    23     4     1    2
    24     2     1    1
    25     1     3    1
