@<TRIPOS>MOLECULE
4ik6_LUR_A_1.pdb
 20 21 0 0 0
SMALL
GASTEIGER

@<TRIPOS>ATOM
      1  OAB       21.7790    1.7560  -31.8400 O.co2 201  LUR201     -0.2453
      2  CAN       21.4120    1.3430  -30.7180 C.2   201  LUR201      0.3693
      3  OAC       21.3630    2.0370  -29.6850 O.co2 201  LUR201     -0.2453
      4  CAL       20.9920   -0.1410  -30.5830 C.3   201  LUR201      0.1416
      5  CAR       19.6320   -0.2800  -29.8520 C.ar  201  LUR201      0.0040
      6  CAK       18.5390   -0.6990  -30.6070 C.ar  201  LUR201     -0.0067
      7  CAO       17.2890   -0.8410  -30.0190 C.ar  201  LUR201     -0.0221
      8  CAA       16.0770   -1.2870  -30.8350 C.3   201  LUR201      0.0310
      9  CAI       17.1260   -0.5640  -28.6740 C.ar  201  LUR201     -0.0029
     10  CAJ       18.2000   -0.1590  -27.9020 C.ar  201  LUR201      0.0159
     11  CAS       19.4450   -0.0310  -28.4860 C.ar  201  LUR201      0.0671
     12  NAM       20.4840    0.3780  -27.7750 N.pl3 201  LUR201     -0.2097
     13  CAT       20.8090    0.1660  -26.4970 C.ar  201  LUR201      0.1083
     14  CAQ       22.1520    0.4440  -26.2510 C.ar  201  LUR201      0.0751
     15 CLE        23.1060    0.9310  -27.6170 Cl    201  LUR201     -0.0808
     16  CAH       22.6870    0.3200  -24.9710 C.ar  201  LUR201      0.0129
     17  CAF       21.8660   -0.0770  -23.9240 C.ar  201  LUR201      0.0033
     18  CAG       20.5200   -0.3440  -24.1540 C.ar  201  LUR201      0.0310
     19  CAP       19.9750   -0.2180  -25.4260 C.ar  201  LUR201      0.1561
     20  FAD       18.6620   -0.4950  -25.5860 F     201  LUR201     -0.2028
@<TRIPOS>BOND
     1     1     2   ar
     2     8     7    1
     3     2     4    1
     4     2     3   ar
     5     6     7   ar
     6     6     5   ar
     7     4     5    1
     8     7     9   ar
     9     5    11   ar
    10     9    10   ar
    11    11    10   ar
    12    11    12    1
    13    12    13    1
    14    15    14    1
    15    13    14   ar
    16    13    19   ar
    17    14    16   ar
    18    20    19    1
    19    19    18   ar
    20    16    17   ar
    21    18    17   ar
