@<TRIPOS>MOLECULE
4ik7_IMN_A_1.pdb
 25 27 0 0 0
SMALL
GASTEIGER

@<TRIPOS>ATOM
      1  C        -20.7650    0.1640  -26.9580 C.ar  201  IMN201      0.0664
      2  C1       -20.7510    0.3600  -28.3410 C.ar  201  IMN201      0.0169
      3  C2       -21.7190   -0.2020  -29.1700 C.ar  201  IMN201      0.0381
      4  C3       -22.7340   -0.9780  -28.6180 C.ar  201  IMN201      0.1388
      5  C4       -22.7570   -1.1860  -27.2400 C.ar  201  IMN201      0.0384
      6  C5       -21.7850   -0.6190  -26.4140 C.ar  201  IMN201      0.0207
      7  C6       -23.6480   -1.4640  -30.8430 C.3   201  IMN201      0.2525
      8  C7       -19.5840    1.2190  -28.6830 C.ar  201  IMN201      0.0027
      9  C8       -18.9470    1.4830  -27.3650 C.ar  201  IMN201      0.0411
     10  C9       -19.4130    0.8540  -25.0870 C.2   201  IMN201      0.2644
     11  C10      -19.9950   -0.1090  -24.0900 C.ar  201  IMN201      0.0565
     12  C11      -20.8960    0.3770  -23.1400 C.ar  201  IMN201      0.0056
     13  C12      -21.4470   -0.4860  -22.1960 C.ar  201  IMN201      0.0115
     14  C13      -21.0900   -1.8320  -22.2000 C.ar  201  IMN201      0.0577
     15  C14      -20.1870   -2.3180  -23.1430 C.ar  201  IMN201      0.0115
     16  C15      -19.6300   -1.4570  -24.0860 C.ar  201  IMN201      0.0056
     17  C16      -17.7110    2.3300  -27.1820 C.3   201  IMN201      0.0501
     18  C17      -19.0830    1.7500  -30.0180 C.3   201  IMN201      0.1415
     19  C18      -19.8140    1.2860  -31.2570 C.2   201  IMN201      0.3693
     20  N        -19.7040    0.8300  -26.4470 N.ar  201  IMN201     -0.2785
     21  O        -23.6960   -1.5500  -29.4170 O.3   201  IMN201     -0.4714
     22  O1       -18.6480    1.6940  -24.6310 O.2   201  IMN201     -0.2666
     23  O2       -20.4010    2.1450  -31.9520 O.co2 201  IMN201     -0.2453
     24  O3       -19.7870    0.0740  -31.5620 O.co2 201  IMN201     -0.2453
     25 CL        -21.8010   -2.9370  -20.9780 Cl    201  IMN201     -0.0822
@<TRIPOS>BOND
     1    23    19   ar
     2    24    19   ar
     3    19    18    1
     4     7    21    1
     5    18     8    1
     6    21     4    1
     7     3     4   ar
     8     3     2   ar
     9     8     2   ar
    10     8     9   ar
    11     4     5   ar
    12     2     1   ar
    13     9    17    1
    14     9    20   ar
    15     5     6   ar
    16     1    20   ar
    17     1     6   ar
    18    20    10   am
    19    10    22    2
    20    10    11    1
    21    11    16   ar
    22    11    12   ar
    23    16    15   ar
    24    15    14   ar
    25    12    13   ar
    26    14    13   ar
    27    14    25    1
