@<TRIPOS>MOLECULE
4ikh_GSH_A_1.pdb
 20 19 0 0 0
SMALL
GASTEIGER

@<TRIPOS>ATOM
      1  N1         2.6960   45.4940   13.9950 N.3   301  GSH301     -0.1208
      2  CA1        3.4420   44.2960   13.8300 C.3   301  GSH301      0.1948
      3  C1         4.5770   44.5100   12.8700 C.2   301  GSH301      0.3819
      4  O11        4.4480   45.3380   11.9240 O.co2 301  GSH301     -0.2441
      5  O12        5.6720   43.8670   12.9900 O.co2 301  GSH301     -0.2441
      6  CB1        2.5550   43.2260   13.2870 C.3   301  GSH301      0.0402
      7  CG1        3.3700   41.9350   13.1920 C.3   301  GSH301      0.0889
      8  CD1        2.4800   40.7620   12.8590 C.2   301  GSH301      0.2418
      9  OE1        1.2770   40.8980   12.7880 O.2   301  GSH301     -0.2733
     10  N2         3.0760   39.4540   12.6080 N.am  301  GSH301     -0.1968
     11  CA2        2.2400   38.3400   12.2940 C.3   301  GSH301      0.1843
     12  C2         2.5280   37.3020   13.3630 C.2   301  GSH301      0.2627
     13  O2         3.6850   37.1780   13.7770 O.2   301  GSH301     -0.2714
     14  CB2        2.5890   37.7720   10.9520 C.3   301  GSH301      0.0997
     15  SG2        2.4020   38.9680    9.6430 S.3   301  GSH301     -0.0797
     16  N3         1.4850   36.4560   13.9110 N.am  301  GSH301     -0.1917
     17  CA3        1.8240   35.4730   14.9200 C.3   301  GSH301      0.2285
     18  C3         0.7750   35.4590   15.9790 C.2   301  GSH301      0.3865
     19  O31        0.0120   36.4510   16.1270 O.co2 301  GSH301     -0.2437
     20  O32        0.6620   34.4500   16.7220 O.co2 301  GSH301     -0.2437
@<TRIPOS>BOND
     1    15    14    1
     2    14    11    1
     3     4     3   ar
     4    11    10    1
     5    11    12    1
     6    10     8   am
     7     9     8    2
     8     8     7    1
     9     3     5   ar
    10     3     2    1
    11     7     6    1
    12     6     2    1
    13    12    13    2
    14    12    16   am
    15     2     1    1
    16    16    17    1
    17    17    18    1
    18    18    19   ar
    19    18    20   ar
