@<TRIPOS>MOLECULE
4iki_IMN_A_1.pdb
 25 27 0 0 0
SMALL
GASTEIGER

@<TRIPOS>ATOM
      1  C        -22.4710   -0.7450  -28.4800 C.ar  201  IMN201      0.0664
      2  C1       -22.5260   -0.6190  -29.9660 C.ar  201  IMN201      0.0169
      3  C2       -23.5720   -1.1380  -30.7140 C.ar  201  IMN201      0.0381
      4  C3       -24.5890   -1.7930  -30.0330 C.ar  201  IMN201      0.1388
      5  C4       -24.5560   -1.9240  -28.6400 C.ar  201  IMN201      0.0384
      6  C5       -23.5140   -1.4140  -27.8580 C.ar  201  IMN201      0.0207
      7  C6       -26.5720   -1.3110  -31.2330 C.3   201  IMN201      0.2525
      8  C7       -21.3100    0.1190  -30.4010 C.ar  201  IMN201      0.0027
      9  C8       -20.6050    0.4050  -29.1100 C.ar  201  IMN201      0.0411
     10  C9       -20.8720    0.0380  -26.7670 C.2   201  IMN201      0.2644
     11  C10      -21.2060   -0.7260  -25.4720 C.ar  201  IMN201      0.0565
     12  C11      -20.3970   -1.7520  -24.9550 C.ar  201  IMN201      0.0056
     13  C12      -20.7180   -2.4090  -23.7530 C.ar  201  IMN201      0.0115
     14  C13      -21.8450   -2.0810  -22.9980 C.ar  201  IMN201      0.0577
     15  C14      -22.6540   -1.0410  -23.4950 C.ar  201  IMN201      0.0115
     16  C15      -22.3300   -0.3760  -24.6970 C.ar  201  IMN201      0.0056
     17  C16      -19.2980    1.1400  -29.0110 C.3   201  IMN201      0.0501
     18  C17      -20.8840    0.5260  -31.8100 C.3   201  IMN201      0.1415
     19  C18      -20.5570   -0.6120  -32.7720 C.2   201  IMN201      0.3693
     20  N        -21.3170   -0.1510  -28.0890 N.ar  201  IMN201     -0.2785
     21  O        -25.6420   -2.2830  -30.7450 O.3   201  IMN201     -0.4714
     22  O1       -20.1640    1.0350  -26.6400 O.2   201  IMN201     -0.2666
     23  O2       -19.3580   -0.8140  -33.0760 O.co2 201  IMN201     -0.2453
     24  O3       -21.4800   -1.3050  -33.2670 O.co2 201  IMN201     -0.2453
     25 CL        -22.2660   -2.9620  -21.4460 Cl    201  IMN201     -0.0822
@<TRIPOS>BOND
     1    24    19   ar
     2    23    19   ar
     3    19    18    1
     4    18     8    1
     5     7    21    1
     6    21     4    1
     7     3     4   ar
     8     3     2   ar
     9     8     2   ar
    10     8     9   ar
    11     4     5   ar
    12     2     1   ar
    13     9    17    1
    14     9    20   ar
    15     5     6   ar
    16     1    20   ar
    17     1     6   ar
    18    20    10   am
    19    10    22    2
    20    10    11    1
    21    11    12   ar
    22    11    16   ar
    23    12    13   ar
    24    16    15   ar
    25    13    14   ar
    26    15    14   ar
    27    14    25    1
