@<TRIPOS>MOLECULE
4ikj_SUZ_A_1.pdb
 25 27 0 0 0
SMALL
GASTEIGER

@<TRIPOS>ATOM
      1  C20      -21.8750   -1.7840  -20.2380 C.ar  201  SUZ201      0.0083
      2  C19      -21.5720   -2.1690  -21.5500 C.ar  201  SUZ201     -0.0034
      3  C5       -20.8850   -1.3030  -22.4020 C.ar  201  SUZ201     -0.0178
      4  C6       -20.5210   -1.6840  -23.7890 C.3   201  SUZ201      0.0523
      5  C7       -20.8330   -0.9150  -25.0230 C.2   201  SUZ201     -0.0223
      6  C18      -21.6090    0.3470  -25.0260 C.2   201  SUZ201     -0.0078
      7  C17      -22.1780    1.0840  -24.0020 C.2   201  SUZ201      0.0014
      8  C16      -22.8590    2.2500  -24.3390 C.2   201  SUZ201      0.0255
      9  C15      -22.9590    2.6630  -25.6690 C.2   201  SUZ201      0.1220
     10  F        -23.6230    3.7890  -25.9830 F     201  SUZ201     -0.2085
     11  C14      -22.3830    1.9190  -26.6910 C.3   201  SUZ201      0.0825
     12  C13      -21.7070    0.7580  -26.3570 C.2   201  SUZ201     -0.0195
     13  C10      -21.0250   -0.2020  -27.2750 C.2   201  SUZ201     -0.0188
     14  C11      -20.9100   -0.0590  -28.7790 C.3   201  SUZ201      0.1397
     15  C12      -21.9960   -0.7110  -29.6000 C.2   201  SUZ201      0.3692
     16  O3       -21.9690   -0.5050  -30.8350 O.co2 201  SUZ201     -0.2453
     17  O2       -22.8680   -1.4190  -29.0420 O.co2 201  SUZ201     -0.2453
     18  C8       -20.4530   -1.2780  -26.4110 C.2   201  SUZ201     -0.0292
     19  C9       -19.6620   -2.4830  -26.8200 C.3   201  SUZ201      0.0304
     20  C4       -20.4830   -0.0640  -21.9180 C.ar  201  SUZ201     -0.0034
     21  C3       -20.7880    0.3180  -20.6120 C.ar  201  SUZ201      0.0083
     22  C2       -21.4840   -0.5330  -19.7550 C.ar  201  SUZ201      0.0562
     23  S        -21.8170   -0.0690  -18.2480 S.O   201  SUZ201      0.0658
     24  O1       -22.8130   -1.1480  -17.5290 O.2   201  SUZ201     -0.2514
     25  C1       -20.4160   -0.0150  -17.3510 C.3   201  SUZ201      0.1110
@<TRIPOS>BOND
     1    16    15   ar
     2    15    17   ar
     3    15    14    1
     4    14    13    1
     5    13    18    1
     6    13    12    2
     7    19    18    1
     8    11    12    1
     9    11     9    1
    10    18     5    2
    11    12     6    1
    12    10     9    1
    13     9     8    2
    14     6     5    1
    15     6     7    2
    16     5     4    1
    17     8     7    1
    18     4     3    1
    19     3    20   ar
    20     3     2   ar
    21    20    21   ar
    22     2     1   ar
    23    21    22   ar
    24     1    22   ar
    25    22    23    1
    26    23    24    2
    27    23    25    1
