@<TRIPOS>MOLECULE
4ikk_SUZ_A_1.pdb
 25 27 0 0 0
SMALL
GASTEIGER

@<TRIPOS>ATOM
      1  C20      -19.9960    1.5900  -20.2530 C.ar  201  SUZ201      0.0083
      2  C19      -20.3210    2.0390  -21.5340 C.ar  201  SUZ201     -0.0034
      3  C5       -21.0700    1.2170  -22.3650 C.ar  201  SUZ201     -0.0178
      4  C6       -21.4850    1.6320  -23.7180 C.3   201  SUZ201      0.0523
      5  C7       -21.2610    0.9420  -25.0090 C.2   201  SUZ201     -0.0223
      6  C18      -20.4700   -0.2960  -25.1920 C.2   201  SUZ201     -0.0078
      7  C17      -19.8060   -1.1140  -24.2910 C.2   201  SUZ201      0.0014
      8  C16      -19.1490   -2.2350  -24.7880 C.2   201  SUZ201      0.0255
      9  C15      -19.1540   -2.5300  -26.1510 C.2   201  SUZ201      0.1220
     10  F        -18.5050   -3.6220  -26.5950 F     201  SUZ201     -0.2085
     11  C14      -19.8250   -1.7050  -27.0500 C.3   201  SUZ201      0.0825
     12  C13      -20.4850   -0.5850  -26.5570 C.2   201  SUZ201     -0.0195
     13  C10      -21.2670    0.4490  -27.3050 C.2   201  SUZ201     -0.0188
     14  C11      -21.5500    0.5230  -28.7840 C.3   201  SUZ201      0.1397
     15  C12      -20.3120    0.3100  -29.5990 C.2   201  SUZ201      0.3692
     16  O3       -20.4160   -0.1880  -30.7440 O.co2 201  SUZ201     -0.2453
     17  O2       -19.2300    0.6490  -29.0770 O.co2 201  SUZ201     -0.2453
     18  C8       -21.7630    1.4340  -26.3080 C.2   201  SUZ201     -0.0292
     19  C9       -22.5990    2.6590  -26.5600 C.3   201  SUZ201      0.0304
     20  C4       -21.5370   -0.0050  -21.8980 C.ar  201  SUZ201     -0.0034
     21  C3       -21.2190   -0.4410  -20.6180 C.ar  201  SUZ201      0.0083
     22  C2       -20.4460    0.3560  -19.7880 C.ar  201  SUZ201      0.0562
     23  S        -20.1100   -0.1580  -18.3090 S.O   201  SUZ201      0.0658
     24  O1       -19.0560    0.8310  -17.5710 O.2   201  SUZ201     -0.2514
     25  C1       -21.5260   -0.1620  -17.4320 C.3   201  SUZ201      0.1110
@<TRIPOS>BOND
     1    16    15   ar
     2    15    17   ar
     3    15    14    1
     4    14    13    1
     5    13    12    2
     6    13    18    1
     7    11    12    1
     8    11     9    1
     9    10     9    1
    10    19    18    1
    11    12     6    1
    12    18     5    2
    13     9     8    2
    14     6     5    1
    15     6     7    2
    16     5     4    1
    17     8     7    1
    18     4     3    1
    19     3    20   ar
    20     3     2   ar
    21    20    21   ar
    22     2     1   ar
    23    21    22   ar
    24     1    22   ar
    25    22    23    1
    26    23    24    2
    27    23    25    1
