@<TRIPOS>MOLECULE
4ikl_SUZ_A_1.pdb
 25 27 0 0 0
SMALL
GASTEIGER

@<TRIPOS>ATOM
      1  C20      -20.7600    1.8900  -20.5000 C.ar  201  SUZ201      0.0083
      2  C19      -21.1160    2.3490  -21.7760 C.ar  201  SUZ201     -0.0034
      3  C5       -21.8360    1.5180  -22.6370 C.ar  201  SUZ201     -0.0178
      4  C6       -22.2850    1.9460  -23.9810 C.3   201  SUZ201      0.0523
      5  C7       -22.0600    1.2330  -25.2670 C.2   201  SUZ201     -0.0223
      6  C18      -21.2670   -0.0180  -25.3730 C.2   201  SUZ201     -0.0078
      7  C17      -20.6150   -0.7930  -24.4190 C.2   201  SUZ201      0.0014
      8  C16      -19.9460   -1.9420  -24.8460 C.2   201  SUZ201      0.0255
      9  C15      -19.9390   -2.2910  -26.1980 C.2   201  SUZ201      0.1220
     10  F        -19.2930   -3.3900  -26.6160 F     201  SUZ201     -0.2085
     11  C14      -20.5930   -1.5070  -27.1420 C.3   201  SUZ201      0.0825
     12  C13      -21.2610   -0.3690  -26.7210 C.2   201  SUZ201     -0.0195
     13  C10      -22.0330    0.6230  -27.5410 C.2   201  SUZ201     -0.0188
     14  C11      -22.2640    0.5940  -29.0370 C.3   201  SUZ201      0.1397
     15  C12      -20.9540    0.5510  -29.7850 C.2   201  SUZ201      0.3692
     16  O3       -20.9740    0.3750  -31.0260 O.co2 201  SUZ201     -0.2453
     17  O2       -19.9030    0.6940  -29.1270 O.co2 201  SUZ201     -0.2453
     18  C8       -22.5500    1.6570  -26.6030 C.2   201  SUZ201     -0.0292
     19  C9       -23.3810    2.8680  -26.9440 C.3   201  SUZ201      0.0304
     20  C4       -22.2240    0.2570  -22.2010 C.ar  201  SUZ201     -0.0034
     21  C3       -21.8700   -0.1920  -20.9340 C.ar  201  SUZ201      0.0083
     22  C2       -21.1350    0.6140  -20.0730 C.ar  201  SUZ201      0.0562
     23  S        -20.7670    0.0240  -18.6210 S.O   201  SUZ201      0.0658
     24  O1       -19.7360    0.9830  -17.7960 O.2   201  SUZ201     -0.2514
     25  C1       -22.1610   -0.1380  -17.7290 C.3   201  SUZ201      0.1110
@<TRIPOS>BOND
     1    16    15   ar
     2    15    17   ar
     3    15    14    1
     4    14    13    1
     5    13    12    2
     6    13    18    1
     7    11    12    1
     8    11     9    1
     9    19    18    1
    10    12     6    1
    11    10     9    1
    12    18     5    2
    13     9     8    2
    14     6     5    1
    15     6     7    2
    16     5     4    1
    17     8     7    1
    18     4     3    1
    19     3    20   ar
    20     3     2   ar
    21    20    21   ar
    22     2     1   ar
    23    21    22   ar
    24     1    22   ar
    25    22    23    1
    26    23    24    2
    27    23    25    1
