@<TRIPOS>MOLECULE
4ikn_III_B_1.pdb
 49 49 0 0 0
SMALL
GASTEIGER

@<TRIPOS>ATOM
      1  N        -13.3650  -10.8820    2.8360 N.3     1  ASP1       -0.1225
      2  CA       -13.2990  -10.0790    1.5460 C.3     1  ASP1        0.1805
      3  C        -13.3350   -8.5440    1.7860 C.2     1  ASP1        0.2598
      4  O        -12.5500   -7.7670    1.2090 O.2     1  ASP1       -0.2718
      5  CB       -14.4590  -10.4550    0.6210 C.3     1  ASP1        0.1424
      6  CG       -14.1050  -10.2770   -0.8550 C.2     1  ASP1        0.3668
      7  OD1      -14.7580   -9.4440   -1.5780 O.co2   1  ASP1       -0.2456
      8  OD2      -13.1460  -10.9750   -1.2780 O.co2   1  ASP1       -0.2456
      9  N        -14.2920   -8.1100    2.5990 N.am    2  TYR2       -0.1962
     10  CA       -14.3850   -6.7010    2.9920 C.3     2  TYR2        0.1771
     11  C        -13.4880   -6.4920    4.2100 C.2     2  TYR2        0.2619
     12  O        -13.4060   -7.3790    5.0650 O.2     2  TYR2       -0.2715
     13  CB       -15.8570   -6.3590    3.3020 C.3     2  TYR2        0.0574
     14  CG       -16.6370   -6.1220    2.0490 C.ar    2  TYR2       -0.0198
     15  CD1      -16.7350   -4.8340    1.5370 C.ar    2  TYR2       -0.0009
     16  CD2      -17.2610   -7.1740    1.3530 C.ar    2  TYR2       -0.0009
     17  CE1      -17.3950   -4.5830    0.3880 C.ar    2  TYR2        0.0417
     18  CE2      -17.9460   -6.9200    0.1190 C.ar    2  TYR2        0.0417
     19  CZ       -17.9900   -5.6370   -0.3300 C.ar    2  TYR2        0.1957
     20  OH       -18.6720   -5.2920   -1.4640 O.3     2  TYR2       -0.2866
     21  N        -12.8130   -5.3490    4.2980 N.am    3  GLN3       -0.1963
     22  CA       -12.1110   -4.9700    5.5000 C.3     3  GLN3        0.1733
     23  C        -13.1620   -4.4010    6.4710 C.2     3  GLN3        0.2616
     24  O        -13.8480   -3.4310    6.1290 O.2     3  GLN3       -0.2715
     25  CB       -11.0560   -3.9130    5.1980 C.3     3  GLN3        0.0408
     26  CG       -10.5150   -3.1440    6.4150 C.3     3  GLN3        0.0908
     27  CD        -9.7650   -4.0310    7.4400 C.2     3  GLN3        0.2608
     28  OE1      -10.0270   -3.9360    8.6590 O.2     3  GLN3       -0.2717
     29  NE2       -8.8610   -4.9150    6.9520 N.am    3  GLN3       -0.0878
     30  N        -13.2530   -4.9920    7.6750 N.am    4  ARG4       -0.1963
     31  CA       -14.2490   -4.5580    8.6900 C.3     4  ARG4        0.1729
     32  C        -13.9660   -3.1450    9.2480 C.2     4  ARG4        0.2617
     33  O        -12.8480   -2.8210    9.6380 O.2     4  ARG4       -0.2715
     34  CB       -14.3520   -5.6280    9.8310 C.3     4  ARG4        0.0348
     35  CG       -15.0450   -5.1670   11.1090 C.3     4  ARG4        0.0492
     36  CD       -14.9450   -6.2260   12.2570 C.3     4  ARG4        0.2205
     37  NE       -16.2260   -6.3290   12.9760 N.pl3   4  ARG4       -0.0865
     38  CZ       -17.3010   -7.0050   12.5310 C.cat   4  ARG4        0.5346
     39  NH1      -18.4260   -7.0370   13.2470 N.pl3   4  ARG4        0.1354
     40  NH2      -17.2510   -7.6690   11.3730 N.pl3   4  ARG4        0.1354
     41  N        -14.9940   -2.3130    9.3220 N.am    5  LEU5       -0.1942
     42  CA       -14.8480   -1.0310    9.9890 C.3     5  LEU5        0.1978
     43  C        -15.6130   -1.0620   11.3410 C.2     5  LEU5        0.3842
     44  O        -16.2920   -2.0590   11.7040 O.co2   5  LEU5       -0.2437
     45  CB       -15.3240    0.0910    9.0680 C.3     5  LEU5        0.0333
     46  CG       -14.5800    0.1720    7.6960 C.3     5  LEU5        0.0023
     47  CD1      -15.4610    0.9210    6.5710 C.3     5  LEU5        0.0001
     48  CD2      -13.1010    0.7010    7.8410 C.3     5  LEU5        0.0001
     49  OXT      -15.5650   -0.0670   12.0750 O.co2   5  LEU5       -0.2437
@<TRIPOS>BOND
     1     7     6   ar
     2    20    19    1
     3     8     6   ar
     4     6     5    1
     5    19    18   ar
     6    19    17   ar
     7    18    16   ar
     8    17    15   ar
     9     5     2    1
    10     4     3    2
    11    16    14   ar
    12    15    14   ar
    13     2     3    1
    14     2     1    1
    15     3     9   am
    16    14    13    1
    17     9    10    1
    18    10    13    1
    19    10    11    1
    20    11    21   am
    21    11    12    2
    22    21    22    1
    23    25    22    1
    24    25    26    1
    25    22    23    1
    26    24    23    2
    27    26    27    1
    28    23    30   am
    29    47    46    1
    30    29    27   am
    31    27    28    2
    32    30    31    1
    33    46    48    1
    34    46    45    1
    35    31    32    1
    36    31    34    1
    37    45    42    1
    38    32    41   am
    39    32    33    2
    40    41    42    1
    41    34    35    1
    42    42    43    1
    43    35    36    1
    44    43    44   ar
    45    43    49   ar
    46    40    38    1
    47    36    37    1
    48    38    37    2
    49    38    39    1
