@<TRIPOS>MOLECULE
4ikp_4IK_A_1.pdb
 28 30 0 0 0
SMALL
GASTEIGER

@<TRIPOS>ATOM
      1  C         14.3430   34.1050   13.3660 C.2   501  4IK501      0.3819
      2  N         16.6160   33.1530   13.1630 N.3   501  4IK501     -0.1208
      3  O         14.7010   35.0470   14.1140 O.co2 501  4IK501     -0.2441
      4  N1        16.2650   22.7520    9.9910 N.2   501  4IK501      0.0021
      5  C2        15.8250   23.9690    9.4680 C.3   501  4IK501      0.5254
      6  N3        15.1740   24.8210   10.3520 N.2   501  4IK501     -0.0055
      7  C4        15.0010   24.4730   11.6400 C.2   501  4IK501      0.3518
      8  C5        15.4410   23.3010   12.1080 C.2   501  4IK501      0.2526
      9  C6        16.0660   22.4570   11.2880 C.2   501  4IK501      0.4393
     10  N6        16.4810   21.3070   11.8150 N.pl3 501  4IK501      0.2180
     11  N7        15.1290   23.2220   13.3980 N.2   501  4IK501     -0.2095
     12  C8        14.5040   24.3410   13.7430 C.3   501  4IK501      0.3377
     13  N9        14.4260   25.1140   12.6530 N.pl3 501  4IK501     -0.1439
     14  CA        15.1940   32.8150   13.3320 C.3   501  4IK501      0.1943
     15  CB        15.0040   31.9500   14.5870 C.3   501  4IK501      0.0307
     16  NZ        13.3790   29.7790   18.0650 N.3   501  4IK501     -0.1314
     17  O3'       11.8490   28.8070   12.3910 O.3   501  4IK501     -0.2175
     18  O2'       11.4290   26.1840   12.2080 O.3   501  4IK501     -0.2130
     19  CE        14.0100   30.5630   16.9910 C.3   501  4IK501      0.1093
     20  CG        13.6000   31.3310   14.6100 C.3   501  4IK501      0.0036
     21  C5'       14.2240   28.8740   15.1100 C.3   501  4IK501      0.0339
     22  O4'       14.6260   27.2930   13.3600 O.3   501  4IK501     -0.3162
     23  CD        13.4850   30.1500   15.6030 C.3   501  4IK501      0.0216
     24  C3'       12.3890   28.0540   13.4870 C.3   501  4IK501      0.2159
     25  C2'       12.4320   26.5500   13.1650 C.3   501  4IK501      0.2569
     26  C4'       13.8890   28.4770   13.6540 C.3   501  4IK501      0.1523
     27  C1'       13.8170   26.4540   12.5300 C.3   501  4IK501      0.3185
     28  OXT       13.3430   34.1270   12.6200 O.co2 501  4IK501     -0.2441
@<TRIPOS>BOND
     1     5     4    1
     2     5     6    1
     3     4     9    2
     4     6     7    2
     5     9    10    1
     6     9     8    1
     7     7     8    1
     8     7    13    1
     9     8    11    2
    10    18    25    1
    11    17    24    1
    12    27    13    1
    13    27    25    1
    14    27    22    1
    15    28     1   ar
    16    13    12    1
    17     2    14    1
    18    25    24    1
    19    14     1    1
    20    14    15    1
    21    22    26    1
    22     1     3   ar
    23    11    12    1
    24    24    26    1
    25    26    21    1
    26    15    20    1
    27    20    23    1
    28    21    23    1
    29    23    19    1
    30    19    16    1
