@<TRIPOS>MOLECULE
4il4_LSM_A_1.pdb
 14 13 0 0 0
SMALL
GASTEIGER

@<TRIPOS>ATOM
      1 SE         47.6860  -21.6890   36.4530 Se    408  LSM408      0.0000
      2  C1        48.2980  -22.8080   37.7870 C.3   408  LSM408      0.0000
      3  C2        49.6940  -22.3420   38.2290 C.3   408  LSM408      0.0000
      4  C3        50.2650  -23.1830   39.4000 C.3   408  LSM408      0.0000
      5  C4        51.0740  -22.2580   40.3370 C.3   408  LSM408      0.0000
      6  C5        52.1410  -22.9860   41.1720 C.3   408  LSM408      0.0000
      7  C6        53.2330  -22.0090   41.6620 C.3   408  LSM408      0.0000
      8  C7        54.0490  -22.5940   42.8130 C.3   408  LSM408      0.0000
      9  C8        55.2900  -21.7280   43.0770 C.3   408  LSM408      0.0000
     10  C9        56.4880  -22.5500   43.5700 C.3   408  LSM408      0.0000
     11  C1'       46.2110  -20.9830   37.2190 C.3   408  LSM408      0.0000
     12  C10       57.0090  -22.0110   44.9140 C.3   408  LSM408      0.0000
     13  C11       58.4940  -22.3240   45.1360 C.3   408  LSM408      0.0000
     14  C12       58.9470  -21.9590   46.5350 C.3   408  LSM408      0.0000
@<TRIPOS>BOND
     1     1    11    1
     2     1     2    1
     3     2     3    1
     4     3     4    1
     5     4     5    1
     6     5     6    1
     7     6     7    1
     8     7     8    1
     9     8     9    1
    10     9    10    1
    11    10    12    1
    12    12    13    1
    13    13    14    1
