@<TRIPOS>MOLECULE
4il6_OER_a_1.pdb
 10 10 0 0 0
SMALL
GASTEIGER

@<TRIPOS>ATOM
      1  O1         5.8340  -23.9930  -10.4620 O.3   403  OER403      0.0000
      2 MN1         4.6270  -23.6610  -11.8860 Mn    403  OER403      0.0000
      3 SR1         6.2370  -21.8780   -9.2630 Sr    403  OER403      0.0000
      4  O2         7.6580  -22.3470  -11.4800 O.3   403  OER403      0.0000
      5 MN2         7.3210  -24.1390  -11.6360 Mn    403  OER403      0.0000
      6  O3         6.2600  -23.2170  -12.9930 O.3   403  OER403      0.0000
      7 MN3         6.9910  -21.4980  -12.8100 Mn    403  OER403      0.0000
      8  O4         7.8130  -19.8900  -12.3750 O.3   403  OER403      0.0000
      9 MN4         6.2820  -18.8530  -11.8690 Mn    403  OER403      0.0000
     10  O5         5.1010  -21.0560  -11.4720 O.3   403  OER403      0.0000
@<TRIPOS>BOND
     1     6     7    1
     2     6     5    1
     3     7     8    1
     4     7     4    1
     5     7    10    1
     6     8     9    1
     7     2     1    1
     8     5     4    1
     9     5     1    1
    10    10     3    1
