@<TRIPOS>MOLECULE
4il6_HEM_f_1.pdb
 43 50 0 0 0
SMALL
GASTEIGER

@<TRIPOS>ATOM
      1  CHA      -33.7570  -30.3170   29.4690 C.2   101  HEM101      0.0000
      2  CHB      -35.9640  -34.3390   27.9280 C.2   101  HEM101      0.0000
      3  CHC      -32.5520  -34.8770   24.5300 C.2   101  HEM101      0.0000
      4  CHD      -30.0260  -31.1530   26.4020 C.2   101  HEM101      0.0000
      5  C1A      -34.6070  -31.3990   29.4220 C.2   101  HEM101      0.0000
      6  C2A      -35.6380  -31.7440   30.3870 C.2   101  HEM101      0.0000
      7  C3A      -36.2520  -32.8570   29.9560 C.2   101  HEM101      0.0000
      8  C4A      -35.6290  -33.2520   28.7060 C.2   101  HEM101      0.0000
      9  CMA      -37.4180  -33.6100   30.6480 C.3   101  HEM101      0.0000
     10  CAA      -35.9510  -30.9440   31.6750 C.3   101  HEM101      0.0000
     11  CBA      -35.3300  -31.6440   32.8850 C.3   101  HEM101      0.0000
     12  CGA      -34.2360  -30.8110   33.4990 C.2   101  HEM101      0.0000
     13  O1A      -33.1000  -31.3380   33.6220 O.co2 101  HEM101      0.0000
     14  O2A      -34.4930  -29.6310   33.8700 O.co2 101  HEM101      0.0000
     15  C1B      -35.2840  -34.8000   26.8240 C.ar  101  HEM101      0.0000
     16  C2B      -35.7190  -35.8600   25.9330 C.ar  101  HEM101      0.0000
     17  C3B      -34.7740  -36.0200   24.9880 C.ar  101  HEM101      0.0000
     18  C4B      -33.7120  -35.0570   25.2580 C.ar  101  HEM101      0.0000
     19  CMB      -37.0440  -36.6450   26.0910 C.3   101  HEM101      0.0000
     20  CAB      -34.7600  -37.0210   23.8010 C.2   101  HEM101      0.0000
     21  CBB      -35.6880  -37.9690   23.6270 C.2   101  HEM101      0.0000
     22  C1C      -31.5400  -33.9640   24.7840 C.2   101  HEM101      0.0000
     23  C2C      -30.2490  -33.9240   24.1300 C.2   101  HEM101      0.0000
     24  C3C      -29.5400  -32.9070   24.6380 C.2   101  HEM101      0.0000
     25  C4C      -30.3600  -32.2510   25.6390 C.2   101  HEM101      0.0000
     26  CMC      -29.7870  -34.9050   23.0320 C.3   101  HEM101      0.0000
     27  CAC      -28.1040  -32.5090   24.2200 C.2   101  HEM101      0.0000
     28  CBC      -27.1650  -32.2900   25.1450 C.2   101  HEM101      0.0000
     29  C1D      -30.8570  -30.4810   27.2750 C.ar  101  HEM101      0.0000
     30  C2D      -30.6950  -29.1130   27.7270 C.ar  101  HEM101      0.0000
     31  C3D      -31.8610  -28.8630   28.6890 C.ar  101  HEM101      0.0000
     32  C4D      -32.6180  -30.0970   28.7150 C.ar  101  HEM101      0.0000
     33  CMD      -29.5900  -28.1040   27.3440 C.3   101  HEM101      0.0000
     34  CAD      -32.1960  -27.5510   29.4250 C.3   101  HEM101      0.0000
     35  CBD      -33.3020  -26.9660   28.5370 C.3   101  HEM101      0.0000
     36  CGD      -33.8330  -25.6240   28.9660 C.2   101  HEM101      0.0000
     37  O1D      -33.9490  -24.7260   28.0900 O.co2 101  HEM101      0.0000
     38  O2D      -34.1580  -25.4490   30.1670 O.co2 101  HEM101      0.0000
     39  NA       -34.6280  -32.3460   28.4230 N.2   101  HEM101      0.0000
     40  NB       -34.0650  -34.3250   26.3750 N.ar  101  HEM101      0.0000
     41  NC       -31.5630  -32.9270   25.7030 N.2   101  HEM101      0.0000
     42  ND       -32.0040  -31.0120   27.8650 N.ar  101  HEM101      0.0000
     43 FE        -33.0600  -32.6420   27.0830 Fe    101  HEM101      0.0000
@<TRIPOS>BOND
     1    26    23    1
     2    21    20    2
     3    20    17    1
     4    23    24    2
     5    23    22    1
     6    27    24    1
     7    27    28    2
     8     3    22    2
     9     3    18    1
    10    24    25    1
    11    22    41    1
    12    17    18   ar
    13    17    16   ar
    14    18    40   ar
    15    25    41    2
    16    25     4    1
    17    41    43    1
    18    16    19    1
    19    16    15   ar
    20    40    15   ar
    21    40    43    1
    22     4    29    2
    23    15     2    1
    24    43    42    1
    25    43    39    1
    26    29    30   ar
    27    29    42   ar
    28    33    30    1
    29    30    31   ar
    30    42    32   ar
    31     2     8    2
    32    37    36   ar
    33    39     8    1
    34    39     5    2
    35    35    36    1
    36    35    34    1
    37    31    32   ar
    38    31    34    1
    39     8     7    1
    40    32     1    2
    41    36    38   ar
    42     5     1    1
    43     5     6    1
    44     7     6    2
    45     7     9    1
    46     6    10    1
    47    10    11    1
    48    11    12    1
    49    12    13   ar
    50    12    14   ar
