@<TRIPOS>MOLECULE
4il9_UNL_A_1.pdb
 12 11 0 0 0
SMALL
GASTEIGER

@<TRIPOS>ATOM
      1  C1        52.3170  -11.6070   76.1630 C.3   406  UNL406      0.0000
      2  C2        52.9390  -12.4080   75.0280 C.3   406  UNL406      0.0000
      3  C3        53.2730  -11.5650   73.7890 C.3   406  UNL406      0.0000
      4  C4        53.0250  -12.3840   72.5160 C.3   406  UNL406      0.0000
      5  C5        52.9960  -11.5230   71.2540 C.3   406  UNL406      0.0000
      6  C6        51.8120  -11.8050   70.3380 C.3   406  UNL406      0.0000
      7  C7        52.2700  -11.8500   68.8710 C.3   406  UNL406      0.0000
      8  C8        51.9970  -10.5610   68.0700 C.3   406  UNL406      0.0000
      9  C9        51.2760  -10.8110   66.7160 C.3   406  UNL406      0.0000
     10  C10       52.0710  -10.2410   65.5050 C.3   406  UNL406      0.0000
     11  C11       51.1630   -9.9920   64.2690 C.3   406  UNL406      0.0000
     12  C12       50.7220   -8.5160   64.1100 C.3   406  UNL406      0.0000
@<TRIPOS>BOND
     1    12    11    1
     2    11    10    1
     3    10     9    1
     4     9     8    1
     5     8     7    1
     6     7     6    1
     7     6     5    1
     8     5     4    1
     9     4     3    1
    10     3     2    1
    11     2     1    1
