@<TRIPOS>MOLECULE
4ila_UNL_A_1.pdb
 12 11 0 0 0
SMALL
GASTEIGER

@<TRIPOS>ATOM
      1  C1        53.0170  -11.9490   76.1470 C.3   406  UNL406      0.0000
      2  C2        53.4290  -12.6260   74.8680 C.3   406  UNL406      0.0000
      3  C3        53.4790  -11.6850   73.6700 C.3   406  UNL406      0.0000
      4  C4        53.2330  -12.5600   72.4510 C.3   406  UNL406      0.0000
      5  C5        53.0850  -11.7550   71.1920 C.3   406  UNL406      0.0000
      6  C6        52.3290  -12.5420   70.1560 C.3   406  UNL406      0.0000
      7  C7        52.8240  -12.1570   68.7750 C.3   406  UNL406      0.0000
      8  C8        52.1900  -10.8660   68.2310 C.3   406  UNL406      0.0000
      9  C9        51.5610  -11.1080   66.8440 C.3   406  UNL406      0.0000
     10  C10       52.3420  -10.4560   65.6800 C.3   406  UNL406      0.0000
     11  C11       51.5490  -10.5990   64.3580 C.3   406  UNL406      0.0000
     12  C12       50.4380   -9.5380   64.1540 C.3   406  UNL406      0.0000
@<TRIPOS>BOND
     1    12    11    1
     2    11    10    1
     3    10     9    1
     4     9     8    1
     5     8     7    1
     6     7     6    1
     7     6     5    1
     8     5     4    1
     9     4     3    1
    10     3     2    1
    11     2     1    1
