@<TRIPOS>MOLECULE
4ilb_UNL_A_1.pdb
 12 11 0 0 0
SMALL
GASTEIGER

@<TRIPOS>ATOM
      1  C1        52.8400  -11.8930   76.1540 C.3   405  UNL405      0.0000
      2  C2        53.3920  -12.4630   74.8660 C.3   405  UNL405      0.0000
      3  C3        53.3760  -11.4390   73.7370 C.3   405  UNL405      0.0000
      4  C4        52.4030  -11.9270   72.6600 C.3   405  UNL405      0.0000
      5  C5        53.0900  -12.1900   71.3250 C.3   405  UNL405      0.0000
      6  C6        52.1770  -11.8690   70.1440 C.3   405  UNL405      0.0000
      7  C7        53.0470  -11.6830   68.9000 C.3   405  UNL405      0.0000
      8  C8        52.5130  -10.5970   67.9490 C.3   405  UNL405      0.0000
      9  C9        51.7440  -11.1170   66.7110 C.3   405  UNL405      0.0000
     10  C10       52.1150  -10.3260   65.4210 C.3   405  UNL405      0.0000
     11  C11       50.9100  -10.2300   64.4310 C.3   405  UNL405      0.0000
     12  C12       50.6530   -8.8040   63.8650 C.3   405  UNL405      0.0000
@<TRIPOS>BOND
     1    12    11    1
     2    11    10    1
     3    10     9    1
     4     9     8    1
     5     8     7    1
     6     7     6    1
     7     6     5    1
     8     5     4    1
     9     4     3    1
    10     3     2    1
    11     2     1    1
