@<TRIPOS>MOLECULE
4ilc_UNL_A_1.pdb
 12 11 0 0 0
SMALL
GASTEIGER

@<TRIPOS>ATOM
      1  C1        52.0120  -11.7410   76.3610 C.3   405  UNL405      0.0000
      2  C2        52.7860  -12.3390   75.1960 C.3   405  UNL405      0.0000
      3  C3        52.8290  -11.4480   73.9600 C.3   405  UNL405      0.0000
      4  C4        52.6050  -12.3410   72.7390 C.3   405  UNL405      0.0000
      5  C5        52.6940  -11.5960   71.4050 C.3   405  UNL405      0.0000
      6  C6        51.7440  -12.1590   70.3550 C.3   405  UNL405      0.0000
      7  C7        52.2570  -11.8060   68.9600 C.3   405  UNL405      0.0000
      8  C8        51.5590  -10.5820   68.3450 C.3   405  UNL405      0.0000
      9  C9        51.0620  -10.8040   66.8880 C.3   405  UNL405      0.0000
     10  C10       52.1500  -10.5170   65.8010 C.3   405  UNL405      0.0000
     11  C11       51.5410   -9.9380   64.4970 C.3   405  UNL405      0.0000
     12  C12       51.4080   -8.4010   64.5120 C.3   405  UNL405      0.0000
@<TRIPOS>BOND
     1    11    12    1
     2    11    10    1
     3    10     9    1
     4     9     8    1
     5     8     7    1
     6     7     6    1
     7     6     5    1
     8     5     4    1
     9     4     3    1
    10     3     2    1
    11     2     1    1
