@<TRIPOS>MOLECULE
4ilk_NAI_A_1.pdb
 44 48 0 0 0
SMALL
GASTEIGER

@<TRIPOS>ATOM
      1  PA         7.8170   33.3230   27.4910 P.3   401  NAI401      0.2189
      2  O1A        8.0580   32.9960   28.9400 O.3   401  NAI401     -0.4371
      3  O2A        7.5880   34.7310   26.9790 O.2   401  NAI401     -0.5170
      4  O5B        6.5700   32.4250   27.0100 O.3   401  NAI401     -0.3112
      5  C5B        6.3630   31.1510   27.6080 C.3   401  NAI401      0.1813
      6  C4B        4.8710   30.9280   27.7380 C.3   401  NAI401      0.1821
      7  O4B        4.6450   29.5720   28.0870 O.3   401  NAI401     -0.3135
      8  C3B        4.2940   31.7540   28.8740 C.3   401  NAI401      0.2184
      9  O3B        3.2890   32.6010   28.3330 O.3   401  NAI401     -0.2174
     10  C2B        3.6860   30.7590   29.8460 C.3   401  NAI401      0.2570
     11  O2B        2.4080   31.2050   30.3080 O.3   401  NAI401     -0.2130
     12  C1B        3.5520   29.5110   28.9870 C.3   401  NAI401      0.3186
     13  N9A        3.6040   28.2360   29.7260 N.pl3 401  NAI401     -0.1439
     14  C8A        4.4780   27.8820   30.6940 C.3   401  NAI401      0.3377
     15  N7A        4.2120   26.6170   31.1230 N.2   401  NAI401     -0.2095
     16  C5A        3.1560   26.1480   30.4210 C.2   401  NAI401      0.2526
     17  C6A        2.3470   24.9020   30.3640 C.2   401  NAI401      0.4393
     18  N6A        2.6030   23.8310   31.1630 N.pl3 401  NAI401      0.2180
     19  N1A        1.3210   24.8550   29.4730 N.2   401  NAI401      0.0021
     20  C2A        1.0300   25.8900   28.6640 C.3   401  NAI401      0.5254
     21  N3A        1.7190   27.0400   28.6560 N.2   401  NAI401     -0.0055
     22  C4A        2.7610   27.2290   29.5050 C.2   401  NAI401      0.3518
     23  O3         9.0460   32.6700   26.6930 O.3   401  NAI401     -0.2703
     24  PN         9.4910   33.0260   25.1920 P.3   401  NAI401      0.2189
     25  O1N       10.4290   34.2100   25.2000 O.3   401  NAI401     -0.4371
     26  O2N        8.2990   32.9900   24.2490 O.2   401  NAI401     -0.5170
     27  O5D       10.3840   31.6940   24.9490 O.3   401  NAI401     -0.3112
     28  C5D        9.7840   30.4070   25.0490 C.3   401  NAI401      0.1813
     29  C4D       10.7910   29.3190   25.4150 C.3   401  NAI401      0.1799
     30  O4D       11.6040   29.0130   24.2750 O.3   401  NAI401     -0.3327
     31  C3D       11.7330   29.7120   26.5570 C.3   401  NAI401      0.2158
     32  O3D       11.7460   28.6330   27.4940 O.3   401  NAI401     -0.2175
     33  C2D       13.0980   29.8500   25.9070 C.3   401  NAI401      0.2309
     34  O2D       14.1530   29.4140   26.7650 O.3   401  NAI401     -0.2158
     35  C1D       12.9740   28.9530   24.6730 C.3   401  NAI401      0.2263
     36  N1N       13.7450   29.3960   23.5150 N.pl3 401  NAI401     -0.2787
     37  C2N       14.2890   28.4530   22.7380 C.3   401  NAI401      0.1244
     38  C3N       15.0180   28.7960   21.6080 C.2   401  NAI401      0.0544
     39  C7N       15.6050   27.6900   20.7990 C.2   401  NAI401      0.2818
     40  O7N       15.4660   26.5460   21.1990 O.2   401  NAI401     -0.2670
     41  N7N       16.2520   27.9920   19.6780 N.am  401  NAI401     -0.0839
     42  C4N       15.2130   30.2430   21.1980 C.2   401  NAI401      0.0033
     43  C5N       14.5510   31.1600   22.1300 C.2   401  NAI401      0.0157
     44  C6N       13.8440   30.7010   23.2330 C.2   401  NAI401      0.0633
@<TRIPOS>BOND
     1    41    39   am
     2    39    40    2
     3    39    38    1
     4    42    38    2
     5    42    43    1
     6    38    37    1
     7    43    44    2
     8    37    36    1
     9    44    36    1
    10    36    35    1
    11    26    24    2
    12    30    35    1
    13    30    29    1
    14    35    33    1
    15    27    28    1
    16    27    24    1
    17    28    29    1
    18    24    25    1
    19    24    23    1
    20    29    31    1
    21    33    31    1
    22    33    34    1
    23    31    32    1
    24    23     1    1
    25     3     1    2
    26     4     1    1
    27     4     5    1
    28     1     2    1
    29     5     6    1
    30     6     7    1
    31     6     8    1
    32     7    12    1
    33     9     8    1
    34    21    20    1
    35    21    22    2
    36    20    19    1
    37     8    10    1
    38    12    13    1
    39    12    10    1
    40    19    17    2
    41    22    13    1
    42    22    16    1
    43    13    14    1
    44    10    11    1
    45    17    16    1
    46    17    18    1
    47    16    15    2
    48    14    15    1
