@<TRIPOS>MOLECULE
4ilx_1EZ_A_1.pdb
 24 27 0 0 0
SMALL
GASTEIGER

@<TRIPOS>ATOM
      1  C10       17.8210    6.0380   12.8160 C.2   303  1EZ303      0.2456
      2  C13       19.4910    8.0940   12.6480 C.3   303  1EZ303      0.0087
      3  C15       19.0980   10.5830   12.9650 C.3   303  1EZ303      0.0000
      4  C17       21.3710    9.7480   12.5410 C.3   303  1EZ303      0.0000
      5  C20       19.2300   10.1720   14.3830 C.3   303  1EZ303      0.0000
      6  C21       19.6450    7.9520   14.0350 C.3   303  1EZ303      0.0005
      7  C22       20.8570    8.3940   12.0600 C.3   303  1EZ303      0.0005
      8  C24       17.5390    1.8980   15.5140 C.ar  303  1EZ303      0.0213
      9  N01       15.8600   -0.7290   16.1160 N.3   303  1EZ303      0.0392
     10  S02       15.4000    0.7480   16.6980 S.O2  303  1EZ303      0.0935
     11  O03       13.9660    0.9130   16.6430 O.2   303  1EZ303     -0.1503
     12  O04       15.8350    0.8910   18.0850 O.2   303  1EZ303     -0.1503
     13  C05       16.1690    2.0280   15.7480 C.ar  303  1EZ303      0.1251
     14  C06       15.4400    3.1060   15.2520 C.ar  303  1EZ303      0.0213
     15  C07       16.1250    4.0810   14.4970 C.ar  303  1EZ303      0.0180
     16  C08       17.5050    3.9510   14.2760 C.ar  303  1EZ303      0.0734
     17  N09       18.2950    4.8700   13.4990 N.am  303  1EZ303     -0.1792
     18  O11       16.6560    6.4180   12.8440 O.2   303  1EZ303     -0.2730
     19  C12       18.8750    6.8090   12.0370 C.3   303  1EZ303      0.0872
     20  C14       18.4680    9.2960   12.5080 C.3   303  1EZ303      0.0005
     21  C16       20.3810   10.8270   12.2940 C.3   303  1EZ303      0.0000
     22  C18       21.4940    9.3320   13.9580 C.3   303  1EZ303      0.0000
     23  C19       20.2060    9.0470   14.5650 C.3   303  1EZ303      0.0000
     24  C23       18.2100    2.8630   14.7720 C.ar  303  1EZ303      0.0180
@<TRIPOS>BOND
     1    19     2    1
     2    19     1    1
     3     7     4    1
     4     7     2    1
     5    21     4    1
     6    21     3    1
     7    20     2    1
     8    20     3    1
     9     4    22    1
    10     2     6    1
    11     1    18    2
    12     1    17   am
    13     3     5    1
    14    17    16    1
    15    22    23    1
    16     6    23    1
    17    16    15   ar
    18    16    24   ar
    19     5    23    1
    20    15    14   ar
    21    24     8   ar
    22    14    13   ar
    23     8    13   ar
    24    13    10    1
    25     9    10    1
    26    11    10    2
    27    10    12    2
