@<TRIPOS>MOLECULE
4im0_1FV_A_1.pdb
 34 38 0 0 0
SMALL
GASTEIGER

@<TRIPOS>ATOM
      1  CAM      103.8840    9.8990  -29.2550 C.3   701  1FV701      0.0091
      2  CAH      105.2070    9.1630  -29.4820 C.3   701  1FV701      0.0010
      3  CAN      105.3730    9.8940  -30.8150 C.3   701  1FV701      0.0091
      4  CBF      104.2680   10.8560  -30.3770 C.3   701  1FV701      0.0782
      5  CAZ      104.8360   12.1550  -29.7950 C.2   701  1FV701      0.2409
      6  OAA      105.4680   12.8840  -30.5640 O.2   701  1FV701     -0.2734
      7  NAV      104.5850   12.3350  -28.4680 N.am  701  1FV701     -0.2054
      8  CAI      104.9690   13.4630  -27.5570 C.3   701  1FV701      0.1170
      9  CAG      106.0470   14.2880  -28.2100 C.3   701  1FV701      0.0468
     10  CAJ      107.3770   13.5580  -28.3920 C.3   701  1FV701      0.1167
     11  NAW      107.9450   14.4600  -29.3760 N.pl3 701  1FV701     -0.2092
     12  C4       108.7210   15.5080  -29.3500 C.2   701  1FV701      0.2094
     13  N3       109.2680   16.0670  -28.2820 N.2   701  1FV701     -0.3196
     14  C5       108.9430   16.0060  -30.6050 C.2   701  1FV701      0.0437
     15  CBG      108.2360   15.2510  -31.7380 C.3   701  1FV701      0.0278
     16  CAO      108.5120   15.7360  -33.1540 C.3   701  1FV701      0.0049
     17  CAP      107.1660   16.0300  -32.4860 C.3   701  1FV701      0.0049
     18  C6       109.7330   17.1320  -30.7480 C.2   701  1FV701      0.1114
     19  N1       110.2680   17.6600  -29.6510 N.2   701  1FV701     -0.1686
     20  C2       110.0580   17.1460  -28.4180 C.1   701  1FV701      0.1709
     21  NAX      110.6400   17.7410  -27.3560 N.pl3 701  1FV701     -0.1357
     22  CBB      110.5330   17.3840  -26.0560 C.ar  701  1FV701      0.0823
     23  CAF      111.2740   18.1090  -25.1260 C.ar  701  1FV701      0.0144
     24  CAD      109.7750   16.3000  -25.5950 C.ar  701  1FV701      0.0173
     25  CAB      109.7040   15.9640  -24.2520 C.ar  701  1FV701      0.0011
     26  CAC      110.4380   16.7100  -23.3440 C.ar  701  1FV701     -0.0028
     27  CBA      111.2230   17.7730  -23.7780 C.ar  701  1FV701     -0.0048
     28  CAS      111.9980   18.5530  -22.7130 C.3   701  1FV701      0.0993
     29  NBH      113.2430   17.8470  -22.3710 N.3   701  1FV701     -0.2646
     30  CAQ      113.8840   18.4760  -21.2130 C.3   701  1FV701      0.1049
     31  CAK      115.1750   17.7230  -20.8810 C.3   701  1FV701      0.1595
     32  OAY      116.0890   17.7450  -22.0010 O.3   701  1FV701     -0.3508
     33  CAL      115.4560   17.1220  -23.1310 C.3   701  1FV701      0.1595
     34  CAR      114.1730   17.8580  -23.5100 C.3   701  1FV701      0.1049
@<TRIPOS>BOND
     1    16    17    1
     2    16    15    1
     3    17    15    1
     4    15    14    1
     5     3     4    1
     6     3     2    1
     7    18    14    2
     8    18    19    1
     9    14    12    1
    10     6     5    2
    11     4     5    1
    12     4     1    1
    13     5     7   am
    14    19    20    2
    15     2     1    1
    16    11    12    1
    17    11    10    1
    18    12    13    2
    19     7     8    1
    20    20    13    2
    21    20    21    1
    22    10     9    1
    23     9     8    1
    24    21    22    1
    25    22    24   ar
    26    22    23   ar
    27    24    25   ar
    28    23    27   ar
    29    25    26   ar
    30    27    26   ar
    31    27    28    1
    32    34    33    1
    33    34    29    1
    34    33    32    1
    35    28    29    1
    36    29    30    1
    37    32    31    1
    38    30    31    1
