@<TRIPOS>MOLECULE
4im2_BX7_A_1.pdb
 34 37 0 0 0
SMALL
GASTEIGER

@<TRIPOS>ATOM
      1  I01      108.0390   15.1330  -32.6020 I     701  BX7701     -0.0367
      2  S02      105.1540    9.9820  -30.9980 S.2   701  BX7701     -0.0819
      3  O03      108.8590   16.1490  -21.8100 O.2   701  BX7701     -0.2504
      4  O04      104.0770   12.2430  -27.9260 O.2   701  BX7701     -0.2678
      5  N05      107.2780   14.8250  -22.4450 N.am  701  BX7701     -0.2626
      6  N06      108.6330   15.6990  -24.0440 N.am  701  BX7701     -0.1622
      7  N07      107.9140   14.4460  -29.5720 N.pl3 701  BX7701     -0.2085
      8  N08      110.7450   17.6770  -27.7680 N.pl3 701  BX7701     -0.1357
      9  N09      105.2750   12.8500  -29.7180 N.am  701  BX7701     -0.2012
     10  N10      109.3010   16.0430  -28.6100 N.2   701  BX7701     -0.3188
     11  N11      110.3810   17.5490  -29.9990 N.2   701  BX7701     -0.1678
     12  C12      105.9380   13.2270  -21.2170 C.3   701  BX7701      0.0233
     13  C13      105.0600   13.9300  -22.3730 C.3   701  BX7701      0.0233
     14  C14      106.3450   14.0560  -23.1960 C.3   701  BX7701      0.0951
     15  C15      106.6990   14.5550  -21.1660 C.3   701  BX7701      0.0951
     16  C16      108.3150   15.5770  -22.7530 C.2   701  BX7701      0.3275
     17  C17      109.6470   16.4190  -24.5220 C.ar  701  BX7701      0.0762
     18  C18      109.6950   16.6060  -25.8930 C.ar  701  BX7701      0.0340
     19  C19      106.2370   14.3680  -27.9850 C.3   701  BX7701      0.0468
     20  C20      110.5210   17.1450  -23.7190 C.ar  701  BX7701      0.0167
     21  C21      107.5590   13.7470  -28.3360 C.3   701  BX7701      0.1167
     22  C22      110.6260   17.4660  -26.4600 C.ar  701  BX7701      0.0839
     23  C23      105.4010   14.2350  -29.2570 C.3   701  BX7701      0.1173
     24  C24      111.5000   17.9510  -24.2700 C.ar  701  BX7701      0.0027
     25  C25      111.5490   18.1040  -25.6440 C.ar  701  BX7701      0.0174
     26  C26      108.7070   15.4930  -29.6690 C.2   701  BX7701      0.2188
     27  C27      110.0530   17.1470  -28.7670 C.1   701  BX7701      0.1709
     28  C28      108.9460   15.9900  -30.9330 C.2   701  BX7701      0.0962
     29  C29      104.6300   11.9650  -28.9850 C.2   701  BX7701      0.2708
     30  C30      109.7840   17.0740  -31.0670 C.2   701  BX7701      0.1215
     31  C31      104.5510   10.5520  -29.5450 C.ar  701  BX7701      0.0845
     32  C32      103.9740    9.5460  -28.8940 C.ar  701  BX7701      0.0116
     33  C33      104.0140    8.3730  -29.5550 C.ar  701  BX7701      0.0076
     34  C34      104.6270    8.3940  -30.7490 C.ar  701  BX7701      0.0356
@<TRIPOS>BOND
     1     1    28    1
     2    30    28    2
     3    30    11    1
     4     2    34   ar
     5     2    31   ar
     6    28    26    1
     7    34    33   ar
     8    11    27    2
     9     9    23    1
    10     9    29   am
    11    26     7    1
    12    26    10    2
    13     7    21    1
    14    33    32   ar
    15    31    29    1
    16    31    32   ar
    17    23    19    1
    18    29     4    2
    19    27    10    2
    20    27     8    1
    21    21    19    1
    22     8    22    1
    23    22    18   ar
    24    22    25   ar
    25    18    17   ar
    26    25    24   ar
    27    17     6    1
    28    17    20   ar
    29    24    20   ar
    30     6    16   am
    31    14     5    1
    32    14    13    1
    33    16     5   am
    34    16     3    2
    35     5    15    1
    36    13    12    1
    37    12    15    1
