@<TRIPOS>MOLECULE
4im3_BX7_A_1.pdb
 34 37 0 0 0
SMALL
GASTEIGER

@<TRIPOS>ATOM
      1  I01      113.9510   16.7680  -31.7630 I     701  BX7701     -0.0367
      2  S02      110.7310   11.5140  -29.8840 S.2   701  BX7701     -0.0819
      3  O03      114.7460   18.1170  -20.7830 O.2   701  BX7701     -0.2504
      4  O04      110.7420   13.2350  -26.3330 O.2   701  BX7701     -0.2678
      5  N05      113.0510   16.9030  -21.4170 N.am  701  BX7701     -0.2626
      6  N06      114.4200   17.7670  -23.0240 N.am  701  BX7701     -0.1622
      7  N07      113.6550   16.2260  -28.7210 N.pl3 701  BX7701     -0.2085
      8  N08      116.6000   19.4410  -26.9040 N.pl3 701  BX7701     -0.1357
      9  N09      110.8150   14.1470  -28.4210 N.am  701  BX7701     -0.2012
     10  N10      115.1000   17.8130  -27.7510 N.2   701  BX7701     -0.3188
     11  N11      116.3100   19.2160  -29.1400 N.2   701  BX7701     -0.1678
     12  C12      111.6480   15.2820  -20.2940 C.3   701  BX7701      0.0233
     13  C13      110.7880   16.0790  -21.4030 C.3   701  BX7701      0.0233
     14  C14      112.0870   16.2030  -22.2080 C.3   701  BX7701      0.0951
     15  C15      112.4620   16.5730  -20.1530 C.3   701  BX7701      0.0951
     16  C16      114.1240   17.6240  -21.7240 C.2   701  BX7701      0.3275
     17  C17      115.4470   18.4490  -23.5590 C.ar  701  BX7701      0.0762
     18  C18      115.5090   18.5380  -24.9470 C.ar  701  BX7701      0.0340
     19  C19      111.9040   15.9470  -27.0060 C.3   701  BX7701      0.0468
     20  C20      116.3970   19.1340  -22.8020 C.ar  701  BX7701      0.0167
     21  C21      113.3080   15.5740  -27.4500 C.3   701  BX7701      0.1167
     22  C22      116.4670   19.3270  -25.5770 C.ar  701  BX7701      0.0839
     23  C23      110.8580   15.5760  -28.0630 C.3   701  BX7701      0.1173
     24  C24      117.4030   19.8660  -23.4170 C.ar  701  BX7701      0.0027
     25  C25      117.4410   19.9470  -24.8010 C.ar  701  BX7701      0.0174
     26  C26      114.4900   17.2590  -28.8150 C.2   701  BX7701      0.2188
     27  C27      115.9170   18.8770  -27.9060 C.1   701  BX7701      0.1709
     28  C28      114.8370   17.6770  -30.0880 C.2   701  BX7701      0.0962
     29  C29      110.7720   13.1340  -27.5590 C.2   701  BX7701      0.2708
     30  C30      115.7440   18.7160  -30.2180 C.2   701  BX7701      0.1215
     31  C31      110.7320   11.7680  -28.2340 C.ar  701  BX7701      0.0845
     32  C32      110.6800   10.5870  -27.6170 C.ar  701  BX7701      0.0116
     33  C33      110.6460    9.5350  -28.4650 C.ar  701  BX7701      0.0076
     34  C34      110.6660    9.8300  -29.7750 C.ar  701  BX7701      0.0356
@<TRIPOS>BOND
     1     1    28    1
     2    30    28    2
     3    30    11    1
     4    28    26    1
     5     2    34   ar
     6     2    31   ar
     7    34    33   ar
     8    11    27    2
     9    26     7    1
    10    26    10    2
    11     7    21    1
    12    33    32   ar
    13     9    23    1
    14     9    29   am
    15    31    32   ar
    16    31    29    1
    17    23    19    1
    18    27    10    2
    19    27     8    1
    20    29     4    2
    21    21    19    1
    22     8    22    1
    23    22    18   ar
    24    22    25   ar
    25    18    17   ar
    26    25    24   ar
    27    17     6    1
    28    17    20   ar
    29    24    20   ar
    30     6    16   am
    31    14     5    1
    32    14    13    1
    33    16     5   am
    34    16     3    2
    35     5    15    1
    36    13    12    1
    37    12    15    1
