@<TRIPOS>MOLECULE
4im7_CS2_A_1.pdb
 13 12 0 0 0
SMALL
GASTEIGER

@<TRIPOS>ATOM
      1  C2        39.0920   16.1490   11.4700 C.3   501  CS2501      0.2865
      2  C3        38.6900   15.6570   12.8480 C.3   501  CS2501      0.2260
      3  O1A       37.4830   15.3360    9.9490 O.co2 501  CS2501     -0.2427
      4  C1        37.8800   16.3230   10.6140 C.2   501  CS2501      0.3973
      5  O1B       37.4770   17.4860   10.4010 O.co2 501  CS2501     -0.2427
      6  O2        39.7800   17.3890   11.6580 O.3   501  CS2501     -0.2080
      7  O3        37.7440   14.5870   12.6910 O.3   501  CS2501     -0.2169
      8  C4        39.9240   15.1870   13.6190 C.3   501  CS2501      0.2180
      9  O4        40.3120   13.8930   13.1530 O.3   501  CS2501     -0.2175
     10  C5        39.5890   14.9980   15.0870 C.3   501  CS2501      0.2175
     11  O5        38.6910   16.0140   15.5590 O.3   501  CS2501     -0.2175
     12  C6        40.7780   14.8430   16.0300 C.3   501  CS2501      0.2175
     13  O6        40.2550   14.3880   17.2920 O.3   501  CS2501     -0.2175
@<TRIPOS>BOND
     1     3     4   ar
     2     5     4   ar
     3     4     1    1
     4     1     6    1
     5     1     2    1
     6     7     2    1
     7     2     8    1
     8     9     8    1
     9     8    10    1
    10    10    11    1
    11    10    12    1
    12    12    13    1
