@<TRIPOS>MOLECULE
4im7_NAI_A_1.pdb
 44 48 0 0 0
SMALL
GASTEIGER

@<TRIPOS>ATOM
      1  PA        31.0070    9.0780   10.5550 P.3   502  NAI502      0.2189
      2  O1A       30.6790    9.6370    9.1830 O.2   502  NAI502     -0.5170
      3  O2A       31.6880    7.7370   10.7210 O.3   502  NAI502     -0.4371
      4  O5B       29.6550    9.0430   11.4150 O.3   502  NAI502     -0.3112
      5  C5B       28.7390   10.1300   11.3540 C.3   502  NAI502      0.1813
      6  C4B       27.5190    9.7780   12.1950 C.3   502  NAI502      0.1821
      7  O4B       26.6520   10.9110   12.2760 O.3   502  NAI502     -0.3135
      8  C3B       26.7280    8.6470   11.5490 C.3   502  NAI502      0.2184
      9  O3B       26.2870    7.7590   12.5760 O.3   502  NAI502     -0.2174
     10  C2B       25.5100    9.3150   10.9470 C.3   502  NAI502      0.2570
     11  O2B       24.3690    8.4420   10.9980 O.3   502  NAI502     -0.2130
     12  C1B       25.3370   10.5250   11.8510 C.3   502  NAI502      0.3186
     13  N9A       24.7070   11.6820   11.1740 N.pl3 502  NAI502     -0.1439
     14  C8A       25.1420   12.3320   10.0680 C.3   502  NAI502      0.3377
     15  N7A       24.3000   13.3550    9.7530 N.2   502  NAI502     -0.2095
     16  C5A       23.3090   13.3660   10.6760 C.2   502  NAI502      0.2526
     17  C6A       22.0930   14.1790   10.9430 C.2   502  NAI502      0.4393
     18  N6A       21.7520   15.2200   10.1310 N.pl3 502  NAI502      0.2180
     19  N1A       21.3310   13.8390   12.0190 N.2   502  NAI502      0.0021
     20  C2A       21.6550   12.8100   12.8310 C.3   502  NAI502      0.5254
     21  N3A       22.7400   12.0300   12.6460 N.2   502  NAI502     -0.0055
     22  C4A       23.5860   12.2590   11.6060 C.2   502  NAI502      0.3518
     23  O3        31.8470   10.2440   11.2840 O.3   502  NAI502     -0.2703
     24  PN        32.7480   10.0400   12.6050 P.3   502  NAI502      0.2189
     25  O1N       34.1960    9.8910   12.2010 O.2   502  NAI502     -0.5170
     26  O2N       32.0850    9.0190   13.4940 O.3   502  NAI502     -0.4371
     27  O5D       32.5980   11.5060   13.2600 O.3   502  NAI502     -0.3112
     28  C5D       31.3440   11.9350   13.7960 C.3   502  NAI502      0.1813
     29  C4D       31.5750   13.1590   14.6750 C.3   502  NAI502      0.1799
     30  O4D       32.4370   12.8060   15.7670 O.3   502  NAI502     -0.3327
     31  C3D       32.3180   14.2780   13.9480 C.3   502  NAI502      0.2158
     32  O3D       31.4610   15.1380   13.1840 O.3   502  NAI502     -0.2175
     33  C2D       32.9700   15.0320   15.0860 C.3   502  NAI502      0.2309
     34  O2D       32.0130   15.9650   15.6360 O.3   502  NAI502     -0.2158
     35  C1D       33.2660   13.9350   16.1000 C.3   502  NAI502      0.2263
     36  N1N       34.6990   13.5800   16.0790 N.pl3 502  NAI502     -0.2787
     37  C2N       35.2480   12.8500   15.0800 C.3   502  NAI502      0.1244
     38  C3N       36.6080   12.5150   15.0640 C.2   502  NAI502      0.0544
     39  C7N       37.2760   11.6950   13.9740 C.2   502  NAI502      0.2818
     40  O7N       36.5900   11.0920   13.1550 O.2   502  NAI502     -0.2670
     41  N7N       38.6310   11.6410   13.9230 N.am  502  NAI502     -0.0839
     42  C4N       37.4820   12.9750   16.1980 C.2   502  NAI502      0.0033
     43  C5N       36.7910   13.7620   17.2020 C.2   502  NAI502      0.0157
     44  C6N       35.4380   14.0220   17.0970 C.2   502  NAI502      0.0633
@<TRIPOS>BOND
     1     2     1    2
     2    15    14    1
     3    15    16    2
     4    14    13    1
     5    18    17    1
     6     1     3    1
     7     1    23    1
     8     1     4    1
     9    16    17    1
    10    16    22    1
    11    17    19    2
    12    10    11    1
    13    10     8    1
    14    10    12    1
    15    13    22    1
    16    13    12    1
    17    23    24    1
    18     5     4    1
    19     5     6    1
    20     8     6    1
    21     8     9    1
    22    22    21    2
    23    12     7    1
    24    19    20    1
    25     6     7    1
    26    25    24    2
    27    24    27    1
    28    24    26    1
    29    21    20    1
    30    40    39    2
    31    32    31    1
    32    27    28    1
    33    28    29    1
    34    41    39   am
    35    31    29    1
    36    31    33    1
    37    39    38    1
    38    29    30    1
    39    38    37    1
    40    38    42    2
    41    37    36    1
    42    33    34    1
    43    33    35    1
    44    30    35    1
    45    36    35    1
    46    36    44    1
    47    42    43    1
    48    44    43    2
