@<TRIPOS>MOLECULE
4ima_FBP_A_1.pdb
 20 20 0 0 0
SMALL
GASTEIGER

@<TRIPOS>ATOM
      1  P1        35.2320  -38.9300   -9.6010 P.3   603  FBP603      0.5328
      2  O1P       36.2440  -39.2690  -10.6600 O.2   603  FBP603     -0.2224
      3  O2P       35.7350  -39.2800   -8.2200 O.3   603  FBP603     -0.1145
      4  O3P       33.9020  -39.5810   -9.8640 O.3   603  FBP603     -0.1145
      5  O1        35.1300  -37.3240   -9.6610 O.3   603  FBP603     -0.2648
      6  C1        33.9940  -36.6560   -9.2060 C.3   603  FBP603      0.2152
      7  C2        34.3600  -35.1870   -9.0860 C.3   603  FBP603      0.2780
      8  O2        33.2590  -34.5560   -8.3940 O.3   603  FBP603     -0.1897
      9  C3        34.5580  -34.5470  -10.4510 C.3   603  FBP603      0.2408
     10  O3        33.3390  -34.0920  -10.9850 O.3   603  FBP603     -0.2149
     11  C4        35.5150  -33.4100  -10.1390 C.3   603  FBP603      0.2167
     12  O4        36.2330  -32.9590  -11.2720 O.3   603  FBP603     -0.2175
     13  C5        36.4070  -34.0510   -9.0790 C.3   603  FBP603      0.1808
     14  O5        35.5690  -34.9500   -8.3620 O.3   603  FBP603     -0.3255
     15  C6        37.0820  -33.0330   -8.1570 C.3   603  FBP603      0.1859
     16  O6        38.4190  -33.4510   -7.9370 O.3   603  FBP603     -0.2675
     17  P2        39.6060  -32.4140   -7.6420 P.3   603  FBP603      0.5327
     18  O4P       39.2850  -31.6970   -6.3620 O.3   603  FBP603     -0.1145
     19  O5P       40.8700  -33.2120   -7.5280 O.3   603  FBP603     -0.1145
     20  O6P       39.7720  -31.4030   -8.7510 O.2   603  FBP603     -0.2224
@<TRIPOS>BOND
     1    12    11    1
     2    10     9    1
     3     2     1    2
     4     9    11    1
     5     9     7    1
     6    11    13    1
     7     4     1    1
     8     5     1    1
     9     5     6    1
    10     1     3    1
    11     6     7    1
    12     7     8    1
    13     7    14    1
    14    13    14    1
    15    13    15    1
    16    20    17    2
    17    15    16    1
    18    16    17    1
    19    17    19    1
    20    17    18    1
