@<TRIPOS>MOLECULE
4ima_ADN_D_1.pdb
 19 21 0 0 0
SMALL
GASTEIGER

@<TRIPOS>ATOM
      1  O5'       24.9370   52.4860  -25.6120 O.3   604  ADN604     -0.2176
      2  C5'       23.6580   51.8660  -25.7320 C.3   604  ADN604      0.2143
      3  C4'       23.1470   51.3980  -24.3930 C.3   604  ADN604      0.1851
      4  O4'       24.2460   51.4010  -23.4520 O.3   604  ADN604     -0.3134
      5  C3'       22.1020   52.2910  -23.7370 C.3   604  ADN604      0.2186
      6  O3'       21.3480   52.9470  -24.7530 O.3   604  ADN604     -0.2174
      7  C2'       22.9350   53.3240  -22.9720 C.3   604  ADN604      0.2570
      8  O2'       22.4120   53.6690  -21.7080 O.3   604  ADN604     -0.2130
      9  C1'       24.3230   52.6850  -22.8670 C.3   604  ADN604      0.3186
     10  N9        24.9090   52.5640  -21.5220 N.pl3 604  ADN604     -0.1439
     11  C8        26.0200   53.2320  -21.1570 C.3   604  ADN604      0.3377
     12  N7        26.3990   52.8800  -19.9250 N.2   604  ADN604     -0.2095
     13  C5        25.5520   51.9740  -19.4630 C.2   604  ADN604      0.2526
     14  C6        25.4650   51.2790  -18.2430 C.2   604  ADN604      0.4393
     15  N6        26.4680   51.5100  -17.2450 N.pl3 604  ADN604      0.2180
     16  N1        24.4530   50.3910  -18.0760 N.2   604  ADN604      0.0021
     17  C2        23.5450   50.1880  -19.0470 C.3   604  ADN604      0.5254
     18  N3        23.5920   50.8390  -20.2060 N.2   604  ADN604     -0.0055
     19  C4        24.5700   51.7310  -20.4690 C.2   604  ADN604      0.3518
@<TRIPOS>BOND
     1     2     1    1
     2     2     3    1
     3     6     5    1
     4     3     5    1
     5     3     4    1
     6     5     7    1
     7     4     9    1
     8     7     9    1
     9     7     8    1
    10     9    10    1
    11    10    11    1
    12    10    19    1
    13    11    12    1
    14    19    18    2
    15    19    13    1
    16    18    17    1
    17    12    13    2
    18    13    14    1
    19    17    16    1
    20    14    16    2
    21    14    15    1
