@<TRIPOS>MOLECULE
4imq_III_B_1.pdb
 38 39 0 0 0
SMALL
GASTEIGER

@<TRIPOS>ATOM
      1  C1       -34.8730  -38.4550   18.3140 C.2     1  PHQ1        0.4218
      2  O1       -35.3700  -39.5650   18.4620 O.2     1  PHQ1       -0.2245
      3  O2       -33.7160  -38.3070   19.0280 O.3     1  PHQ1       -0.4285
      4  C2       -33.3660  -37.0150   19.3930 C.3     1  PHQ1        0.2368
      5  C3       -34.0390  -36.8550   20.6140 C.ar    1  PHQ1        0.0213
      6  C4       -34.9380  -37.8570   20.9370 C.ar    1  PHQ1       -0.0007
      7  C5       -35.6430  -37.8550   22.1280 C.ar    1  PHQ1       -0.0002
      8  C6       -35.4320  -36.8470   23.0540 C.ar    1  PHQ1       -0.0000
      9  C7       -34.5120  -35.8510   22.7660 C.ar    1  PHQ1       -0.0002
     10  C8       -33.8100  -35.8700   21.5660 C.ar    1  PHQ1       -0.0007
     11  N        -35.6570  -37.4480   17.9150 N.am    2  LEU2       -0.1611
     12  CA       -36.9150  -37.6760   17.1300 C.3     2  LEU2        0.1761
     13  C        -36.8990  -37.4240   15.5890 C.2     2  LEU2        0.2617
     14  O        -36.5260  -36.3390   15.1150 O.2     2  LEU2       -0.2715
     15  CB       -38.0140  -36.6960   17.5910 C.3     2  LEU2        0.0312
     16  CG       -38.3370  -36.7270   19.0950 C.3     2  LEU2        0.0022
     17  CD1      -39.4180  -35.6940   19.4550 C.3     2  LEU2        0.0001
     18  CD2      -38.8600  -38.1000   19.4810 C.3     2  LEU2        0.0001
     19  N        -37.5150  -38.3570   14.8380 N.am    3  PHE3       -0.1960
     20  CA       -37.5390  -38.1830   13.3530 C.3     3  PHE3        0.1771
     21  C        -38.4900  -36.9970   13.0120 C.2     3  PHE3        0.2620
     22  O        -39.5640  -36.7200   13.5650 O.2     3  PHE3       -0.2715
     23  CB       -37.9520  -39.4140   12.5070 C.3     3  PHE3        0.0574
     24  CG       -37.0860  -40.6770   12.6870 C.ar    3  PHE3       -0.0200
     25  CD1      -35.8340  -40.7850   12.0830 C.ar    3  PHE3       -0.0042
     26  CD2      -37.5750  -41.7410   13.4360 C.ar    3  PHE3       -0.0042
     27  CE1      -35.0720  -41.9390   12.2460 C.ar    3  PHE3       -0.0003
     28  CE2      -36.8150  -42.8930   13.6000 C.ar    3  PHE3       -0.0003
     29  CZ       -35.5650  -42.9940   13.0050 C.ar    3  PHE3       -0.0000
     30  C        -39.1580  -35.3250   10.1080 C.2     4  1HD4        0.2305
     31  CD       -37.0550  -32.3850   13.6200 C.2     4  1HD4        0.2419
     32  N        -37.9460  -36.2620   12.0960 N.am    4  1HD4       -0.1959
     33  OE1      -36.2530  -31.7790   12.9330 O.2     4  1HD4       -0.2733
     34  CA       -38.5640  -35.0800   11.5480 C.3     4  1HD4        0.1811
     35  CB       -37.5500  -33.9070   11.7940 C.3     4  1HD4        0.1447
     36  C1       -37.1640  -32.0290   15.1210 C.3     4  1HD4        0.0964
     37  N1       -37.6300  -33.5190   13.2090 N.am    4  1HD4       -0.2031
     38  O1       -40.2610  -35.8270    9.8420 O.2     4  1HD4       -0.2864
@<TRIPOS>BOND
     1    38    30    2
     2    30    34    1
     3    34    35    1
     4    34    32    1
     5    35    37    1
     6    25    27   ar
     7    25    24   ar
     8    32    21   am
     9    27    29   ar
    10    23    24    1
    11    23    20    1
    12    24    26   ar
    13    33    31    2
    14    29    28   ar
    15    21    20    1
    16    21    22    2
    17    37    31   am
    18    20    19    1
    19    26    28   ar
    20    31    36    1
    21    19    13   am
    22    14    13    2
    23    13    12    1
    24    12    15    1
    25    12    11    1
    26    15    16    1
    27    11     1   am
    28     1     2    2
    29     1     3    1
    30     3     4    1
    31    16    17    1
    32    16    18    1
    33     4     5    1
    34     5     6   ar
    35     5    10   ar
    36     6     7   ar
    37    10     9   ar
    38     7     8   ar
    39     9     8   ar
