@<TRIPOS>MOLECULE
4imr_NAP_A_1.pdb
 48 52 0 0 0
SMALL
GASTEIGER

@<TRIPOS>ATOM
      1  PA       -34.8480   56.6710   14.6490 P.3   300  NAP300      0.2189
      2  O1A      -35.8110   56.9340   15.8030 O.3   300  NAP300     -0.4371
      3  O2A      -35.3080   55.7880   13.5110 O.2   300  NAP300     -0.5170
      4  O5B      -34.4000   58.1030   14.0540 O.3   300  NAP300     -0.3112
      5  C5B      -33.2260   58.2550   13.2540 C.3   300  NAP300      0.1813
      6  C4B      -32.9150   59.7480   13.1320 C.3   300  NAP300      0.1820
      7  O4B      -31.8380   59.8410   12.2020 O.3   300  NAP300     -0.3136
      8  C3B      -34.0760   60.5860   12.5710 C.3   300  NAP300      0.2157
      9  O3B      -34.1100   61.9100   13.1370 O.3   300  NAP300     -0.2175
     10  C2B      -33.7530   60.7090   11.0890 C.3   300  NAP300      0.2314
     11  O2B      -34.2350   61.9430   10.5380 O.3   300  NAP300     -0.2630
     12  C1B      -32.2270   60.5860   11.0490 C.3   300  NAP300      0.3158
     13  N9A      -31.8220   59.9190    9.7920 N.pl3 300  NAP300     -0.1439
     14  C8A      -32.1320   58.6690    9.3840 C.3   300  NAP300      0.3377
     15  N7A      -31.6020   58.4170    8.1560 N.2   300  NAP300     -0.2095
     16  C5A      -30.9420   59.5340    7.7530 C.2   300  NAP300      0.2526
     17  C6A      -30.1610   59.9750    6.5540 C.2   300  NAP300      0.4393
     18  N6A      -29.9570   59.1630    5.4820 N.pl3 300  NAP300      0.2180
     19  N1A      -29.6430   61.2340    6.5630 N.2   300  NAP300      0.0021
     20  C2A      -29.8360   62.0700    7.6160 C.3   300  NAP300      0.5254
     21  N3A      -30.5360   61.7450    8.7340 N.2   300  NAP300     -0.0055
     22  C4A      -31.1020   60.5170    8.8490 C.2   300  NAP300      0.3518
     23  O3       -33.4370   56.0690   15.2030 O.3   300  NAP300     -0.2703
     24  PN       -33.1920   55.6580   16.7580 P.3   300  NAP300      0.2189
     25  O1N      -33.7870   54.2900   17.0600 O.2   300  NAP300     -0.5170
     26  O2N      -33.5140   56.8390   17.6580 O.3   300  NAP300     -0.4371
     27  O5D      -31.5810   55.4760   16.7890 O.3   300  NAP300     -0.3112
     28  C5D      -30.6670   56.5650   16.9690 C.3   300  NAP300      0.1813
     29  C4D      -29.2440   55.9980   17.0620 C.3   300  NAP300      0.1799
     30  O4D      -29.1750   54.9510   18.0450 O.3   300  NAP300     -0.3327
     31  C3D      -28.7790   55.3320   15.7750 C.3   300  NAP300      0.2158
     32  O3D      -27.3680   55.5310   15.6910 O.3   300  NAP300     -0.2175
     33  C2D      -29.0640   53.8440   15.9740 C.3   300  NAP300      0.2309
     34  O2D      -28.2030   53.0250   15.1720 O.3   300  NAP300     -0.2158
     35  C1D      -28.7520   53.7020   17.4610 C.3   300  NAP300      0.2263
     36  N1N      -29.3530   52.5290   18.1280 N.pl3 300  NAP300     -0.2787
     37  C2N      -30.7010   52.3740   18.2460 C.3   300  NAP300      0.1244
     38  C3N      -31.2280   51.2550   18.8990 C.2   300  NAP300      0.0544
     39  C7N      -32.7120   51.0480   19.0530 C.2   300  NAP300      0.2818
     40  O7N      -33.0880   50.0040   19.5730 O.2   300  NAP300     -0.2670
     41  N7N      -33.5640   51.9990   18.6450 N.am  300  NAP300     -0.0839
     42  C4N      -30.3650   50.3000   19.4420 C.2   300  NAP300      0.0033
     43  C5N      -28.9850   50.4850   19.3130 C.2   300  NAP300      0.0157
     44  C6N      -28.5030   51.6160   18.6470 C.2   300  NAP300      0.0633
     45  P2B      -35.7720   62.0630    9.9920 P.3   300  NAP300      0.5328
     46  O1X      -36.6110   62.1680   11.2520 O.3   300  NAP300     -0.1145
     47  O2X      -35.7730   63.3140    9.1250 O.2   300  NAP300     -0.2224
     48  O3X      -35.9920   60.7650    9.2520 O.3   300  NAP300     -0.1145
@<TRIPOS>BOND
     1    18    17    1
     2    17    19    2
     3    17    16    1
     4    19    20    1
     5    20    21    1
     6    16    15    2
     7    16    22    1
     8    15    14    1
     9    21    22    2
    10    22    13    1
    11    47    45    2
    12    48    45    1
    13    14    13    1
    14    13    12    1
    15    45    11    1
    16    45    46    1
    17    11    10    1
    18    12    10    1
    19    12     7    1
    20    10     8    1
    21     7     6    1
    22     8     6    1
    23     8     9    1
    24     6     5    1
    25     5     4    1
    26     3     1    2
    27     4     1    1
    28     1    23    1
    29     1     2    1
    30    34    33    1
    31    23    24    1
    32    32    31    1
    33    31    33    1
    34    31    29    1
    35    33    35    1
    36    24    27    1
    37    24    25    2
    38    24    26    1
    39    27    28    1
    40    28    29    1
    41    29    30    1
    42    35    30    1
    43    35    36    1
    44    36    37    1
    45    36    44    1
    46    37    38    1
    47    41    39   am
    48    44    43    2
    49    38    39    1
    50    38    42    2
    51    39    40    2
    52    43    42    1
