@<TRIPOS>MOLECULE
4imz_III_B_1.pdb
 40 41 0 0 0
SMALL
GASTEIGER

@<TRIPOS>ATOM
      1  C1        35.2720   38.4570   18.0520 C.2     1  PHQ1        0.4218
      2  O1        35.6890   39.5720   18.2830 O.2     1  PHQ1       -0.2245
      3  O2        34.1070   38.0750   18.4750 O.3     1  PHQ1       -0.4285
      4  C2        33.2080   39.0800   18.2820 C.3     1  PHQ1        0.2368
      5  C3        31.8530   38.8130   18.2840 C.ar    1  PHQ1        0.0213
      6  C4        31.3790   37.6800   17.7210 C.ar    1  PHQ1       -0.0007
      7  C5        30.0660   37.3830   17.6890 C.ar    1  PHQ1       -0.0002
      8  C6        29.1730   38.2740   18.1860 C.ar    1  PHQ1       -0.0000
      9  C7        29.6350   39.4120   18.7610 C.ar    1  PHQ1       -0.0002
     10  C8        30.9520   39.7030   18.8030 C.ar    1  PHQ1       -0.0007
     11  N         35.9420   37.5690   17.4130 N.am    2  LEU2       -0.1611
     12  CA        37.2390   37.8640   16.9080 C.3     2  LEU2        0.1761
     13  C         37.1770   37.5950   15.4100 C.2     2  LEU2        0.2617
     14  O         36.5700   36.6270   14.9750 O.2     2  LEU2       -0.2715
     15  CB        38.2680   36.9350   17.4980 C.3     2  LEU2        0.0312
     16  CG        38.2960   36.9350   19.0160 C.3     2  LEU2        0.0022
     17  CD1       38.9380   35.6540   19.4520 C.3     2  LEU2        0.0001
     18  CD2       39.1030   38.1100   19.4430 C.3     2  LEU2        0.0001
     19  N         37.8110   38.5020   14.6950 N.am    3  PHE3       -0.1960
     20  CA        37.8760   38.4130   13.2300 C.3     3  PHE3        0.1771
     21  C         38.5570   37.0990   12.8830 C.2     3  PHE3        0.2619
     22  O         39.5380   36.7360   13.4890 O.2     3  PHE3       -0.2715
     23  CB        38.6460   39.5930   12.6210 C.3     3  PHE3        0.0574
     24  CG        37.7890   40.8930   12.5810 C.ar    3  PHE3       -0.0200
     25  CD1       38.1240   42.0320   13.3200 C.ar    3  PHE3       -0.0042
     26  CD2       36.6520   40.9670   11.8190 C.ar    3  PHE3       -0.0042
     27  CE1       37.3220   43.1680   13.2870 C.ar    3  PHE3       -0.0003
     28  CE2       35.8740   42.0970   11.7730 C.ar    3  PHE3       -0.0003
     29  CZ        36.2070   43.2270   12.5130 C.ar    3  PHE3       -0.0000
     30  C         39.1160   35.2080   10.0550 C.2     4  1HB4        0.2287
     31  CD        37.0360   32.4780   13.8150 C.2     4  1HB4        0.2258
     32  CG        37.5440   33.8500   13.3520 C.3     4  1HB4        0.0875
     33  N         38.0260   36.4390   11.8760 N.am    4  1HB4       -0.1977
     34  OE1       36.3720   31.7930   13.0870 O.2     4  1HB4       -0.2749
     35  NE2       37.3300   32.1100   15.0510 N.am    4  1HB4       -0.2760
     36  CH1       38.0600   32.9910   15.9550 C.3     4  1HB4        0.1149
     37  CH2       36.8580   30.8290   15.4770 C.3     4  1HB4        0.1149
     38  CA        38.5880   35.1670   11.5130 C.3     4  1HB4        0.1601
     39  CB        37.5570   34.0790   11.8670 C.3     4  1HB4        0.0393
     40  O         39.9130   36.0150    9.6040 O.2     4  1HB4       -0.2864
@<TRIPOS>BOND
     1    40    30    2
     2    30    38    1
     3    38    39    1
     4    38    33    1
     5    28    26   ar
     6    28    29   ar
     7    26    24   ar
     8    39    32    1
     9    33    21   am
    10    29    27   ar
    11    24    23    1
    12    24    25   ar
    13    23    20    1
    14    21    20    1
    15    21    22    2
    16    34    31    2
    17    20    19    1
    18    27    25   ar
    19    32    31    1
    20    31    35   am
    21    19    13   am
    22    14    13    2
    23    35    37    1
    24    35    36    1
    25    13    12    1
    26    12    11    1
    27    12    15    1
    28    11     1   am
    29    15    16    1
    30     7     6   ar
    31     7     8   ar
    32     6     5   ar
    33     1     2    2
    34     1     3    1
    35     8     9   ar
    36     4     5    1
    37     4     3    1
    38     5    10   ar
    39     9    10   ar
    40    16    18    1
    41    16    17    1
