@<TRIPOS>MOLECULE
4inb_1F6_A_1.pdb
 30 32 0 0 0
SMALL
GASTEIGER

@<TRIPOS>ATOM
      1  C1        26.8060   14.0140   38.1320 C.ar  201  1F6201      0.0727
      2  C2        27.3780   12.7460   38.3380 C.ar  201  1F6201      0.0203
      3  C3        26.7010   11.6610   39.0060 C.ar  201  1F6201      0.0717
      4  C4        25.3740   11.8860   39.4860 C.ar  201  1F6201      0.0679
      5  C5        24.7830   13.1970   39.2660 C.ar  201  1F6201      0.0161
      6  C6        25.4850   14.2360   38.6050 C.ar  201  1F6201      0.0052
      7  N7        27.4290   10.4100   39.1510 N.am  201  1F6201     -0.2354
      8  C8        26.9080    9.1150   38.8630 C.2   201  1F6201      0.2472
      9  C9        25.4210    8.8820   38.8640 C.3   201  1F6201      0.1944
     10  C10       24.5240    9.5030   39.8900 C.2   201  1F6201      0.2435
     11  N11       24.5920   10.8900   40.1780 N.am  201  1F6201     -0.2550
     12  C12       24.8240    8.0770   37.9780 C.2   201  1F6201      0.0849
     13  N13       25.3450    7.3410   36.9420 N.2   201  1F6201     -0.2699
     14  C14       24.5920    6.3920   36.1270 C.3   201  1F6201      0.1571
     15  C15       24.0210    7.0630   34.8710 C.3   201  1F6201      0.1685
     16  O16       23.4390    8.3510   35.1900 O.3   201  1F6201     -0.3490
     17  C17       23.4790    9.2280   34.0630 C.3   201  1F6201      0.1742
     18  C18       28.8340   10.5270   39.5880 C.ar  201  1F6201      0.0581
     19  C19       29.1630   10.9160   40.9340 C.ar  201  1F6201      0.0152
     20  C20       30.5150   11.0390   41.3430 C.ar  201  1F6201      0.0013
     21  C21       31.5640   10.7780   40.4200 C.ar  201  1F6201      0.0001
     22  C22       31.2690   10.3910   39.0900 C.ar  201  1F6201      0.0013
     23  C23       29.9220   10.2670   38.6750 C.ar  201  1F6201      0.0152
     24  C24       23.7680   11.3480   41.3250 C.3   201  1F6201      0.1201
     25  C25       27.6120   15.0870   37.4330 C.3   201  1F6201      0.4186
     26  F26       28.9620   14.8520   37.4540 F     201  1F6201     -0.1659
     27  F27       27.4590   16.3160   38.0070 F     201  1F6201     -0.1659
     28  F28       27.2920   15.2330   36.1240 F     201  1F6201     -0.1659
     29  O29       27.6210    8.1460   38.5710 O.2   201  1F6201     -0.2733
     30  O30       23.6990    8.7590   40.4460 O.2   201  1F6201     -0.2736
@<TRIPOS>BOND
     1    17    16    1
     2    15    16    1
     3    15    14    1
     4    28    25    1
     5    14    13    1
     6    13    12    2
     7    25    26    1
     8    25    27    1
     9    25     1    1
    10    12     9    1
    11     1     2   ar
    12     1     6   ar
    13     2     3   ar
    14    29     8    2
    15     6     5   ar
    16    23    22   ar
    17    23    18   ar
    18     8     9    1
    19     8     7   am
    20     9    10    1
    21     3     7    1
    22     3     4   ar
    23    22    21   ar
    24     7    18    1
    25     5     4   ar
    26     4    11    1
    27    18    19   ar
    28    10    11   am
    29    10    30    2
    30    11    24    1
    31    21    20   ar
    32    19    20   ar
