@<TRIPOS>MOLECULE
4ing_1DF_A_1.pdb
 15 15 0 0 0
SMALL
GASTEIGER

@<TRIPOS>ATOM
      1  C1        -8.7700    6.1090   10.0930 C.ar  402  1DF402      0.0846
      2  CO1       -8.8580    4.7350    9.9090 C.ar  402  1DF402      0.0342
      3  CO2       -9.9170    6.8770   10.2450 C.ar  402  1DF402      0.0469
      4  CM1      -10.1120    4.1250    9.8860 C.ar  402  1DF402      0.1848
      5  CM2      -11.1680    6.2610   10.2210 C.ar  402  1DF402      0.1793
      6  OM       -12.3180    7.0110   10.3740 O.3   402  1DF402     -0.4681
      7  CZ       -11.2590    4.8910   10.0370 C.ar  402  1DF402      0.2515
      8  CC        -7.4350    6.7830   10.1090 C.2   402  1DF402      0.3879
      9  CV       -12.2610    8.3300   10.9370 C.3   402  1DF402      0.2526
     10  O1        -6.5440    6.4020    9.3030 O.co2 402  1DF402     -0.2406
     11  O2        -7.2740    7.7150   10.9200 O.co2 402  1DF402     -0.2406
     12  O3       -12.4860    4.3080   10.0010 O.3   402  1DF402     -0.2815
     13  N        -10.1990    2.7340    9.7280 N.pl3 402  1DF402      0.0610
     14  O11      -11.0090    2.0840   10.3880 O.2   402  1DF402     -0.1260
     15  O22       -9.4410    2.1610    8.9620 O.2   402  1DF402     -0.1260
@<TRIPOS>BOND
     1    15    13    2
     2    10     8   ar
     3    13     4    1
     4    13    14    2
     5     4     2   ar
     6     4     7   ar
     7     2     1   ar
     8    12     7    1
     9     7     5   ar
    10     1     8    1
    11     1     3   ar
    12     8    11   ar
    13     5     3   ar
    14     5     6    1
    15     6     9    1
