@<TRIPOS>MOLECULE
4inh_III_J_1.pdb
 34 34 0 0 0
SMALL
GASTEIGER

@<TRIPOS>ATOM
      1  C1        12.4070   17.5140   38.1590 C.2     1  PHQ1        0.4218
      2  O1        12.3090   17.6040   39.3850 O.2     1  PHQ1       -0.2245
      3  O2        11.5580   16.6980   37.4790 O.3     1  PHQ1       -0.4285
      4  C2        10.3950   16.2440   38.1880 C.3     1  PHQ1        0.2368
      5  C3         9.2480   16.7340   37.5400 C.ar    1  PHQ1        0.0213
      6  C4         8.1670   17.3320   38.1840 C.ar    1  PHQ1       -0.0007
      7  C5         7.0890   17.7970   37.4270 C.ar    1  PHQ1       -0.0002
      8  C6         7.0860   17.6770   36.0370 C.ar    1  PHQ1       -0.0000
      9  C7         8.1710   17.0910   35.4010 C.ar    1  PHQ1       -0.0002
     10  C8         9.2400   16.6310   36.1550 C.ar    1  PHQ1       -0.0007
     11  N         13.4710   17.9440   37.4770 N.am    2  ALA2       -0.1611
     12  CA        14.4860   18.8270   38.0510 C.3     2  ALA2        0.1762
     13  C         14.4200   20.1930   37.3290 C.2     2  ALA2        0.2617
     14  O         14.1420   20.2380   36.1280 O.2     2  ALA2       -0.2715
     15  CB        15.8400   18.1690   37.7960 C.3     2  ALA2        0.0335
     16  N         14.5230   21.3460   37.8900 N.am    3  LEU3       -0.1963
     17  CA        14.5260   22.6750   37.2460 C.3     3  LEU3        0.1728
     18  C         15.6930   22.6290   36.2790 C.2     3  LEU3        0.2616
     19  O         16.7680   22.0880   36.5480 O.2     3  LEU3       -0.2715
     20  CB        14.8770   23.7470   38.2670 C.3     3  LEU3        0.0311
     21  CG        13.7920   23.8440   39.3420 C.3     3  LEU3        0.0022
     22  CD1       14.1440   24.7780   40.4520 C.3     3  LEU3        0.0001
     23  CD2       12.5070   24.3700   38.7000 C.3     3  LEU3        0.0001
     24  C         17.1910   24.7280   33.9210 C.2     4  1HB4        0.2287
     25  CD        16.1960   20.1220   32.1070 C.2     4  1HB4        0.2258
     26  CG        16.2740   21.0060   33.3350 C.3     4  1HB4        0.0875
     27  N         15.4830   23.2850   35.2290 N.am    4  1HB4       -0.1977
     28  OE1       15.8220   20.5680   31.0220 O.2     4  1HB4       -0.2749
     29  NE2       16.6510   18.8790   32.2880 N.am    4  1HB4       -0.2760
     30  CH1       17.0640   18.4590   33.6470 C.3     4  1HB4        0.1149
     31  CH2       16.6280   17.9180   31.1610 C.3     4  1HB4        0.1149
     32  CA        16.5810   23.3310   34.2160 C.3     4  1HB4        0.1601
     33  CB        16.3350   22.5040   32.9310 C.3     4  1HB4        0.0393
     34  O         17.3780   25.5630   34.8260 O.2     4  1HB4       -0.2864
@<TRIPOS>BOND
     1    28    25    2
     2    31    29    1
     3    25    29   am
     4    25    26    1
     5    29    30    1
     6    33    26    1
     7    33    32    1
     8    24    32    1
     9    24    34    2
    10    32    27    1
    11    27    18   am
    12     9     8   ar
    13     9    10   ar
    14     8     7   ar
    15    14    13    2
    16    10     5   ar
    17    18    19    2
    18    18    17    1
    19    17    16    1
    20    17    20    1
    21    13    16   am
    22    13    12    1
    23     7     6   ar
    24    11    12    1
    25    11     1   am
    26     3     1    1
    27     3     4    1
    28     5     6   ar
    29     5     4    1
    30    15    12    1
    31     1     2    2
    32    20    21    1
    33    23    21    1
    34    21    22    1
