@<TRIPOS>MOLECULE
4inj_LMS_A_1.pdb
 23 25 0 0 0
SMALL
GASTEIGER

@<TRIPOS>ATOM
      1  N9       -57.6750   -7.5640    1.1700 N.pl3 401  LMS401     -0.1439
      2  C8       -58.3580   -8.1300    2.1960 C.3   401  LMS401      0.3377
      3  N7       -58.2670   -7.3390    3.3070 N.2   401  LMS401     -0.2095
      4  C5       -57.5280   -6.2830    2.9920 C.2   401  LMS401      0.2526
      5  C6       -57.0550   -5.0960    3.7100 C.2   401  LMS401      0.4393
      6  N6       -57.4230   -4.9750    4.9820 N.pl3 401  LMS401      0.2180
      7  N1       -56.2520   -4.1960    3.0780 N.2   401  LMS401      0.0021
      8  C2       -55.9150   -4.3950    1.7750 C.3   401  LMS401      0.5254
      9  N3       -56.3270   -5.4780    1.0430 N.2   401  LMS401     -0.0055
     10  C4       -57.1180   -6.4310    1.5970 C.2   401  LMS401      0.3518
     11  N        -51.4860   -8.7290   -2.6550 N.3   401  LMS401      0.0391
     12  S        -52.2310   -9.2290   -1.3450 S.3   401  LMS401      0.0828
     13  O1P      -51.9240  -10.6250   -1.0920 O.3   401  LMS401     -0.0529
     14  O2P      -52.0090   -8.3170   -0.2310 O.3   401  LMS401     -0.0529
     15  O5'      -53.7150   -9.3890   -1.6440 O.3   401  LMS401     -0.2246
     16  C5'      -54.4580   -8.1890   -1.7080 C.3   401  LMS401      0.2061
     17  C4'      -55.8970   -8.6590   -1.6860 C.3   401  LMS401      0.1842
     18  O4'      -56.3380   -8.7950   -0.3460 O.3   401  LMS401     -0.3135
     19  C3'      -56.7710   -7.6630   -2.4060 C.3   401  LMS401      0.2185
     20  O3'      -57.4490   -8.4600   -3.3900 O.3   401  LMS401     -0.2174
     21  C2'      -57.6540   -7.0940   -1.3400 C.3   401  LMS401      0.2570
     22  O2'      -58.9870   -6.9560   -1.8590 O.3   401  LMS401     -0.2130
     23  C1'      -57.5600   -8.1280   -0.2030 C.3   401  LMS401      0.3186
@<TRIPOS>BOND
     1    20    19    1
     2    11    12    1
     3    19    17    1
     4    19    21    1
     5    22    21    1
     6    16    17    1
     7    16    15    1
     8    17    18    1
     9    15    12    1
    10    12    13    1
    11    12    14    1
    12    21    23    1
    13    18    23    1
    14    23     1    1
    15     9    10    2
    16     9     8    1
    17     1    10    1
    18     1     2    1
    19    10     4    1
    20     8     7    1
    21     2     3    1
    22     4     3    2
    23     4     5    1
    24     7     5    2
    25     5     6    1
