@<TRIPOS>MOLECULE
4inr_1G1_H_1.pdb
 46 47 0 0 0
SMALL
GASTEIGER

@<TRIPOS>ATOM
      1  C12       59.9250 -135.1340   34.4390 C.2   301  1G1301      0.2674
      2  O13       60.0380 -136.3170   34.7400 O.2   301  1G1301     -0.2711
      3  C8        58.5980 -134.6670   33.9020 C.3   301  1G1301      0.2207
      4  N9        58.5820 -135.2860   32.5910 N.2   301  1G1301     -0.0898
      5  N10       59.2490 -134.9040   31.6760 N.2   301  1G1301     -0.1659
      6  N11       59.8850 -134.5850   30.7180 N.2   301  1G1301      0.0678
      7  C7        57.3680 -135.1210   34.7340 C.3   301  1G1301      0.0632
      8  C3        56.0810 -134.5060   34.1550 C.ar  301  1G1301     -0.0196
      9  C2        55.3860 -135.1330   33.1040 C.ar  301  1G1301     -0.0042
     10  C1        54.2150 -134.5620   32.5860 C.ar  301  1G1301     -0.0003
     11  C4        55.5800 -133.3040   34.6840 C.ar  301  1G1301     -0.0042
     12  C5        54.4080 -132.7310   34.1690 C.ar  301  1G1301     -0.0003
     13  C6        53.7250 -133.3620   33.1190 C.ar  301  1G1301     -0.0000
     14  N14       60.9120 -134.2080   34.5420 N.am  301  1G1301     -0.1961
     15  C15       62.1280 -134.4550   35.3200 C.3   301  1G1301      0.1728
     16  C25       61.7590 -134.6570   36.7580 C.2   301  1G1301      0.2616
     17  O26       61.2290 -133.7240   37.3460 O.2   301  1G1301     -0.2715
     18  C16       63.0850 -133.2410   35.1000 C.3   301  1G1301      0.0311
     19  C17       64.2950 -133.5010   34.1520 C.3   301  1G1301      0.0022
     20  C18       65.5360 -132.7170   34.6800 C.3   301  1G1301      0.0001
     21  C19       64.0390 -133.0560   32.6760 C.3   301  1G1301      0.0001
     22  N27       62.0250 -135.8730   37.2940 N.am  301  1G1301     -0.1963
     23  C28       61.7950 -136.1310   38.7070 C.3   301  1G1301      0.1728
     24  C33       63.0830 -136.1430   39.4960 C.2   301  1G1301      0.2612
     25  O34       64.1090 -136.5370   38.9580 O.2   301  1G1301     -0.2715
     26  C29       61.0350 -137.4690   38.9280 C.3   301  1G1301      0.0311
     27  C30       59.5460 -137.5000   38.4490 C.3   301  1G1301      0.0022
     28  C31       58.5190 -136.9860   39.5070 C.3   301  1G1301      0.0001
     29  C32       59.1710 -138.9650   38.0700 C.3   301  1G1301      0.0001
     30  O50       62.7240 -139.4960   42.4990 O.2   301  1G1301     -0.1729
     31  S48       61.8950 -138.6090   43.2940 S.O2  301  1G1301     -0.0082
     32  O49       61.7300 -138.8890   44.7100 O.2   301  1G1301     -0.1729
     33  C51       60.2610 -138.5080   42.5510 C.3   301  1G1301      0.1760
     34  C47       62.4440 -136.8950   43.0720 C.3   301  1G1301      0.1527
     35  C46       63.9690 -136.7020   42.7880 C.3   301  1G1301      0.0473
     36  C36       64.1360 -135.5950   41.6820 C.3   301  1G1301      0.1014
     37  C37       64.1090 -134.2250   42.4280 C.3   301  1G1301      0.0480
     38  C38       64.7910 -132.9650   41.8790 C.ar  301  1G1301     -0.0205
     39  C43       64.4900 -131.7640   42.5450 C.ar  301  1G1301     -0.0045
     40  C42       65.0550 -130.5560   42.1320 C.ar  301  1G1301     -0.0031
     41  C41       65.9380 -130.5240   41.0410 C.ar  301  1G1301     -0.0032
     42  C44       66.5160 -129.1510   40.6520 C.3   301  1G1301      0.1356
     43  N45       65.8950 -128.4910   39.4830 N.3   301  1G1301     -0.1262
     44  C40       66.2440 -131.7240   40.3730 C.ar  301  1G1301     -0.0031
     45  C39       65.6760 -132.9420   40.7870 C.ar  301  1G1301     -0.0045
     46  N35       62.9940 -135.7020   40.7760 N.am  301  1G1301     -0.2054
@<TRIPOS>BOND
     1     6     5    2
     2     5     4    2
     3    10     9   ar
     4    10    13   ar
     5     4     3    1
     6    21    19    1
     7     9     8   ar
     8    13    12   ar
     9     3     1    1
    10     3     7    1
    11    19    20    1
    12    19    18    1
    13     8    11   ar
    14     8     7    1
    15    12    11   ar
    16     1    14   am
    17     1     2    2
    18    14    15    1
    19    18    15    1
    20    15    16    1
    21    16    22   am
    22    16    17    2
    23    22    23    1
    24    29    27    1
    25    27    26    1
    26    27    28    1
    27    23    26    1
    28    23    24    1
    29    25    24    2
    30    43    42    1
    31    24    46   am
    32    44    45   ar
    33    44    41   ar
    34    42    41    1
    35    46    36    1
    36    45    38   ar
    37    41    40   ar
    38    36    37    1
    39    36    35    1
    40    38    37    1
    41    38    39   ar
    42    40    39   ar
    43    30    31    2
    44    33    31    1
    45    35    34    1
    46    34    31    1
    47    31    32    2
