@<TRIPOS>MOLECULE
4int_1G5_H_1.pdb
 40 41 0 0 0
SMALL
GASTEIGER

@<TRIPOS>ATOM
      1  C1        55.3890 -134.4810   35.5050 C.ar  301  1G5301      0.0417
      2  C6        56.1640 -135.0260   36.5360 C.ar  301  1G5301      0.0034
      3  C5        57.4950 -135.3850   36.2940 C.ar  301  1G5301      0.0045
      4  C4        58.0700 -135.2070   35.0240 C.ar  301  1G5301      0.0542
      5  C3        57.2860 -134.6570   33.9860 C.ar  301  1G5301      0.0215
      6  C2        55.9440 -134.2950   34.2290 C.ar  301  1G5301      0.1919
      7  C7        57.8780 -134.4460   32.5800 C.3   301  1G5301      0.0345
      8  C9        59.5170 -135.6010   34.7780 C.2   301  1G5301      0.2650
      9  O8        55.1630 -133.7490   33.2010 O.3   301  1G5301     -0.2869
     10  O32       59.7460 -136.7770   34.5370 O.2   301  1G5301     -0.2684
     11  N10       60.5070 -134.6730   34.8200 N.am  301  1G5301     -0.1940
     12  C11       61.7410 -134.8860   35.5840 C.3   301  1G5301      0.1730
     13  C15       61.4600 -135.1260   37.0620 C.2   301  1G5301      0.2617
     14  O16       60.8260 -134.2800   37.6740 O.2   301  1G5301     -0.2715
     15  C12       62.7530 -133.7250   35.2990 C.3   301  1G5301      0.0290
     16  C13       63.2800 -133.7740   33.8360 C.3   301  1G5301      0.0023
     17  C14       63.9730 -133.7640   36.2630 C.3   301  1G5301      0.0023
     18  N17       61.9280 -136.2770   37.6130 N.am  301  1G5301     -0.1936
     19  C18       61.8250 -136.6100   39.0430 C.3   301  1G5301      0.2055
     20  C19       63.1220 -136.3390   39.8150 C.2   301  1G5301      0.2639
     21  O33       64.1010 -136.9220   39.3660 O.2   301  1G5301     -0.2714
     22  C40       61.0070 -137.8550   39.4940 C.3   301  1G5301      0.2130
     23  O41       59.7060 -137.4540   39.9710 O.3   301  1G5301     -0.2179
     24  O38       61.3800 -138.0560   45.1430 O.2   301  1G5301     -0.1729
     25  S36       61.7670 -138.6690   43.8890 S.O2  301  1G5301     -0.0082
     26  O37       62.5640 -139.8790   43.9250 O.2   301  1G5301     -0.1729
     27  C39       60.2520 -139.0900   43.0050 C.3   301  1G5301      0.1760
     28  C35       62.6070 -137.4580   42.8250 C.3   301  1G5301      0.1527
     29  C23       64.0790 -136.9470   42.9990 C.3   301  1G5301      0.0473
     30  C21       64.2340 -135.6990   42.0690 C.3   301  1G5301      0.1014
     31  C22       64.3050 -134.3680   42.8760 C.3   301  1G5301      0.0480
     32  C24       64.9530 -133.1800   42.1390 C.ar  301  1G5301     -0.0205
     33  C25       65.7660 -133.3450   41.0030 C.ar  301  1G5301     -0.0045
     34  C26       66.3360 -132.2320   40.3700 C.ar  301  1G5301     -0.0031
     35  C27       66.1090 -130.9380   40.8640 C.ar  301  1G5301     -0.0032
     36  C30       66.7510 -129.7410   40.1480 C.3   301  1G5301      0.1356
     37  N31       65.7040 -128.9170   39.5090 N.3   301  1G5301     -0.1262
     38  C28       65.3020 -130.7680   42.0000 C.ar  301  1G5301     -0.0031
     39  C29       64.7310 -131.8830   42.6300 C.ar  301  1G5301     -0.0045
     40  N20       63.3330 -135.5460   40.9110 N.am  301  1G5301     -0.2053
@<TRIPOS>BOND
     1     7     5    1
     2     9     6    1
     3    16    15    1
     4     5     6   ar
     5     5     4   ar
     6     6     1   ar
     7    10     8    2
     8     8    11   am
     9     8     4    1
    10    11    12    1
    11     4     3   ar
    12    15    12    1
    13    15    17    1
    14     1     2   ar
    15    12    13    1
    16     3     2   ar
    17    13    18   am
    18    13    14    2
    19    18    19    1
    20    19    22    1
    21    19    20    1
    22    21    20    2
    23    22    23    1
    24    37    36    1
    25    20    40   am
    26    36    35    1
    27    34    35   ar
    28    34    33   ar
    29    35    38   ar
    30    40    30    1
    31    33    32   ar
    32    38    39   ar
    33    30    31    1
    34    30    29    1
    35    32    39   ar
    36    32    31    1
    37    28    29    1
    38    28    25    1
    39    27    25    1
    40    25    26    2
    41    25    24    2
