@<TRIPOS>MOLECULE
4inw_1EY_A_1.pdb
 17 16 0 0 0
SMALL
GASTEIGER

@<TRIPOS>ATOM
      1  CAA       32.7250   -9.8750    2.9920 C.3   201  1EY201      0.0050
      2  CAG       32.0270  -10.5330    4.1820 C.3   201  1EY201      0.0260
      3  CAE       32.1140  -12.0530    4.0780 C.2   201  1EY201     -0.0261
      4  CAC       32.0270  -12.8970    5.1220 C.2   201  1EY201     -0.0049
      5  CAD       31.8120  -12.5640    6.6080 C.2   201  1EY201     -0.0049
      6  CAF       31.6780  -11.3540    7.1780 C.2   201  1EY201     -0.0261
      7  CAI       31.7070  -10.0370    6.4040 C.3   201  1EY201      0.0260
      8  CAK       31.2020   -8.8870    7.2810 C.3   201  1EY201      0.0047
      9  CAM       29.8050   -8.4290    6.8520 C.3   201  1EY201      0.0003
     10  CAO       29.6240   -6.9210    7.0650 C.3   201  1EY201      0.0000
     11  CAQ       29.6540   -6.1560    5.7370 C.3   201  1EY201      0.0000
     12  CAP       30.2150   -4.7420    5.9250 C.3   201  1EY201      0.0000
     13  CAN       29.8050   -3.8170    4.7750 C.3   201  1EY201      0.0001
     14  CAL       29.6350   -2.3720    5.2530 C.3   201  1EY201      0.0027
     15  CAJ       30.9820   -1.6480    5.3200 C.3   201  1EY201      0.0355
     16  CAH       30.7970   -0.1540    5.6040 C.3   201  1EY201      0.1821
     17  OAB       30.6380    0.5170    4.4610 O.3   201  1EY201     -0.2204
@<TRIPOS>BOND
     1     1     2    1
     2     3     2    1
     3     3     4    2
     4    17    16    1
     5    13    14    1
     6    13    12    1
     7     4     5    1
     8    14    15    1
     9    15    16    1
    10    11    12    1
    11    11    10    1
    12     7     6    1
    13     7     8    1
    14     5     6    2
    15     9    10    1
    16     9     8    1
