@<TRIPOS>MOLECULE
4inx_1EX_A_1.pdb
 17 16 0 0 0
SMALL
GASTEIGER

@<TRIPOS>ATOM
      1  CAA       25.2980   -9.6390   -2.7200 C.3   201  1EX201      0.0050
      2  CAH       25.8410  -10.3710   -3.9490 C.3   201  1EX201      0.0260
      3  CAF       25.1310  -11.7090   -4.1470 C.2   201  1EX201     -0.0261
      4  CAD       25.0380  -12.3560   -5.3110 C.2   201  1EX201     -0.0049
      5  CAE       25.5970  -11.9360   -6.6810 C.2   201  1EX201     -0.0049
      6  CAG       26.2910  -10.8370   -6.9880 C.2   201  1EX201     -0.0261
      7  CAJ       26.6760   -9.7440   -5.9930 C.3   201  1EX201      0.0260
      8  CAL       27.8670   -8.9320   -6.5050 C.3   201  1EX201      0.0047
      9  CAN       27.5870   -7.4300   -6.4160 C.3   201  1EX201      0.0003
     10  CAP       27.6320   -6.9500   -4.9640 C.3   201  1EX201      0.0000
     11  CAQ       27.0710   -5.5320   -4.8380 C.3   201  1EX201      0.0000
     12  CAO       28.1430   -4.5610   -4.3360 C.3   201  1EX201      0.0000
     13  CAM       27.6960   -3.1090   -4.5180 C.3   201  1EX201      0.0001
     14  CAK       26.2050   -3.0330   -4.8550 C.3   201  1EX201      0.0027
     15  CAI       25.3640   -3.7210   -3.7780 C.3   201  1EX201      0.0355
     16  CAC       24.8340   -2.7060   -2.7630 C.3   201  1EX201      0.1821
     17  OAB       25.4780   -1.4420   -2.5810 O.3   201  1EX201     -0.2204
@<TRIPOS>BOND
     1     6     5    2
     2     6     7    1
     3     5     4    1
     4     8     9    1
     5     8     7    1
     6     9    10    1
     7     4     3    2
     8    10    11    1
     9    14    13    1
    10    14    15    1
    11    11    12    1
    12    13    12    1
    13     3     2    1
    14     2     1    1
    15    15    16    1
    16    16    17    1
