@<TRIPOS>MOLECULE
4io2_GLU_A_1.pdb
 15 14 0 0 0
SMALL
GASTEIGER

@<TRIPOS>ATOM
      1  N          3.6670   49.1320   -7.6020 N.3   303  GLU303     -0.1278
      2  CA         3.3770   50.5660   -7.6900 C.3   303  GLU303      0.1451
      3  C          1.9610   50.8490   -7.1950 C.2   303  GLU303      0.3757
      4  O          1.1660   49.8860   -7.0410 O.co2 303  GLU303     -0.2445
      5  CB         3.5300   51.1110   -9.1130 C.3   303  GLU303     -0.0138
      6  CG         4.9010   50.9140   -9.7700 C.3   303  GLU303      0.0512
      7  CD         6.0410   51.7470   -9.1850 C.2   303  GLU303      0.3561
      8  OE1        5.7730   52.6010   -8.3420 O.co2 303  GLU303     -0.2464
      9  OE2        7.2010   51.5800   -9.6460 O.co2 303  GLU303     -0.2464
     10  OXT        1.6400   52.0340   -6.9430 O.co2 303  GLU303     -0.2445
     11  HA         4.0010   51.0520   -7.1120 H     303  GLU303      0.0610
     12  HB2        2.8740   50.6740   -9.6790 H     303  GLU303      0.0292
     13  HB3        3.3540   52.0640   -9.0940 H     303  GLU303      0.0292
     14  HG2        5.1500   49.9810   -9.6840 H     303  GLU303      0.0380
     15  HG3        4.8260   51.1440  -10.7090 H     303  GLU303      0.0380
@<TRIPOS>BOND
     1    15     6    1
     2     6    14    1
     3     6     7    1
     4     6     5    1
     5    12     5    1
     6     9     7   ar
     7     7     8   ar
     8     5    13    1
     9     5     2    1
    10     2     1    1
    11     2     3    1
    12     2    11    1
    13     3     4   ar
    14     3    10   ar
