@<TRIPOS>MOLECULE
4io3_ASP_A_1.pdb
 15 14 0 0 0
SMALL
GASTEIGER

@<TRIPOS>ATOM
      1  N          3.4210   49.3240   -7.7980 N.4   301  ASP301      0.3874
      2  CA         2.9470   50.7230   -7.9640 C.3   301  ASP301      0.0307
      3  C          1.5240   50.8590   -7.4850 C.2   301  ASP301      0.3426
      4  O          0.7880   49.8510   -7.2810 O.co2 301  ASP301     -0.2482
      5  CB         3.0110   51.1810   -9.4340 C.3   301  ASP301      0.0464
      6  CG         4.4010   51.5830   -9.8630 C.2   301  ASP301      0.3550
      7  OD1        4.7380   51.3930  -11.0750 O.co2 301  ASP301     -0.2464
      8  OD2        5.1620   52.1030   -9.0080 O.co2 301  ASP301     -0.2464
      9  OXT        1.0720   51.9980   -7.3040 O.co2 301  ASP301     -0.2482
     10  H1         4.2970   49.2350   -8.1800 H     301  ASP301     -0.0889
     11  H2         3.4560   49.1060   -6.8640 H     301  ASP301     -0.0889
     12  H          2.8150   48.7260   -8.2430 H     301  ASP301     -0.0889
     13  HA         3.5110   51.3210   -7.4300 H     301  ASP301      0.0203
     14  HB2        2.7200   50.4520  -10.0040 H     301  ASP301      0.0368
     15  HB3        2.4270   51.9470   -9.5510 H     301  ASP301      0.0368
@<TRIPOS>BOND
     1     7     6   ar
     2    14     5    1
     3     6     5    1
     4     6     8   ar
     5    15     5    1
     6     5     2    1
     7    12     1    1
     8    10     1    1
     9     2     1    1
    10     2     3    1
    11     2    13    1
    12     1    11    1
    13     3     9   ar
    14     3     4   ar
