@<TRIPOS>MOLECULE
4io4_SER_A_1.pdb
 14 13 0 0 0
SMALL
GASTEIGER

@<TRIPOS>ATOM
      1  N         -3.9310   22.4840   -7.8260 N.4   301  SER301      0.3886
      2  CA        -3.5440   21.0280   -7.9390 C.3   301  SER301      0.0440
      3  C         -2.0980   20.8310   -7.5680 C.2   301  SER301      0.3442
      4  O         -1.3070   21.8220   -7.4790 O.co2 301  SER301     -0.2482
      5  CB        -3.8100   20.4630   -9.3400 C.3   301  SER301      0.0415
      6  OG        -5.1940   20.2590   -9.5520 O.3   301  SER301     -0.3961
      7  OXT       -1.7170   19.6640   -7.3570 O.co2 301  SER301     -0.2482
      8  H1        -4.8820   22.5710   -7.9240 H     301  SER301     -0.0888
      9  H2        -3.6660   22.8200   -6.9670 H     301  SER301     -0.0888
     10  H         -3.4910   22.9870   -8.5160 H     301  SER301     -0.0888
     11  HA        -4.0850   20.5120   -7.3050 H     301  SER301      0.0221
     12  HB2       -3.4780   21.0910  -10.0010 H     301  SER301      0.0546
     13  HB3       -3.3490   19.6140   -9.4290 H     301  SER301      0.0546
     14  HG        -5.6160   20.4800   -8.8850 H     301  SER301      0.2093
@<TRIPOS>BOND
     1    12     5    1
     2     6     5    1
     3     6    14    1
     4    13     5    1
     5     5     2    1
     6    10     1    1
     7     2     1    1
     8     2     3    1
     9     2    11    1
    10     8     1    1
    11     1     9    1
    12     3     4   ar
    13     3     7   ar
