@<TRIPOS>MOLECULE
4io5_ALA_A_1.pdb
 13 12 0 0 0
SMALL
GASTEIGER

@<TRIPOS>ATOM
      1  N          3.6780   49.0990   -7.5620 N.4   301  ALA301      0.3869
      2  CA         3.3400   50.5220   -7.6630 C.3   301  ALA301      0.0176
      3  C          1.9460   50.7850   -7.1650 C.2   301  ALA301      0.3418
      4  O          1.1720   49.8130   -6.9740 O.co2 301  ALA301     -0.2483
      5  CB         3.4880   50.9890   -9.0990 C.3   301  ALA301     -0.0683
      6  OXT        1.5490   51.9380   -6.9440 O.co2 301  ALA301     -0.2483
      7  H1         4.5980   48.9700   -7.8030 H     301  ALA301     -0.0889
      8  H2         3.5390   48.8000   -6.6600 H     301  ALA301     -0.0889
      9  H          3.1180   48.5940   -8.1560 H     301  ALA301     -0.0889
     10  HA         3.9630   51.0380   -7.1090 H     301  ALA301      0.0195
     11  HB1        3.2640   51.9210   -9.1480 H     301  ALA301      0.0219
     12  HB2        4.3970   50.8550   -9.3780 H     301  ALA301      0.0219
     13  HB3        2.8950   50.4790   -9.6550 H     301  ALA301      0.0219
@<TRIPOS>BOND
     1    13     5    1
     2    12     5    1
     3    11     5    1
     4     5     2    1
     5     9     1    1
     6     7     1    1
     7     2     1    1
     8     2     3    1
     9     2    10    1
    10     1     8    1
    11     3     4   ar
    12     3     6   ar
