@<TRIPOS>MOLECULE
4io6_MET_A_1.pdb
 20 19 0 0 0
SMALL
GASTEIGER

@<TRIPOS>ATOM
      1  N          3.5260   49.1790   -7.5450 N.4   301  MET301      0.3871
      2  CA         3.2300   50.6250   -7.4610 C.3   301  MET301      0.0212
      3  C          1.7780   50.8490   -7.1330 C.2   301  MET301      0.3421
      4  O          0.9700   49.8790   -7.0420 O.co2 301  MET301     -0.2483
      5  CB         3.5900   51.3800   -8.7460 C.3   301  MET301     -0.0469
      6  CG         5.0490   51.7420   -8.8040 C.3   301  MET301     -0.0076
      7  SD         5.3670   53.0400   -7.5290 S.3   301  MET301     -0.1642
      8  CE         7.1550   52.9210   -7.3760 C.3   301  MET301     -0.0181
      9  OXT        1.3340   51.9900   -6.9570 O.co2 301  MET301     -0.2483
     10  H1         4.4000   49.0520   -7.9230 H     301  MET301     -0.0889
     11  H2         3.5000   48.7950   -6.6650 H     301  MET301     -0.0889
     12  H          2.8720   48.7500   -8.1000 H     301  MET301     -0.0889
     13  HA         3.7710   51.0070   -6.7380 H     301  MET301      0.0198
     14  HB2        3.3870   50.8190   -9.5110 H     301  MET301      0.0262
     15  HB3        3.0740   52.2000   -8.7880 H     301  MET301      0.0262
     16  HG2        5.5910   50.9630   -8.6030 H     301  MET301      0.0376
     17  HG3        5.2660   52.1000   -9.6790 H     301  MET301      0.0376
     18  HE1        7.4560   53.5610   -6.7260 H     301  MET301      0.0340
     19  HE2        7.3860   52.0330   -7.0940 H     301  MET301      0.0340
     20  HE3        7.5540   53.1080   -8.2290 H     301  MET301      0.0340
@<TRIPOS>BOND
     1    17     6    1
     2    14     5    1
     3     6     5    1
     4     6    16    1
     5     6     7    1
     6    15     5    1
     7     5     2    1
     8    20     8    1
     9    12     1    1
    10    10     1    1
    11     1     2    1
    12     1    11    1
    13     7     8    1
    14     2     3    1
    15     2    13    1
    16     8    19    1
    17     8    18    1
    18     3     4   ar
    19     3     9   ar
