@<TRIPOS>MOLECULE
4io7_PHE_A_1.pdb
 23 23 0 0 0
SMALL
GASTEIGER

@<TRIPOS>ATOM
      1  N          3.3810   49.3590   -7.7330 N.4   301  PHE301      0.3873
      2  CA         2.9120   50.7750   -7.8620 C.3   301  PHE301      0.0245
      3  C          1.5410   50.9110   -7.2860 C.2   301  PHE301      0.3423
      4  O          0.8500   49.8900   -7.1010 O.co2 301  PHE301     -0.2482
      5  CB         2.8380   51.2060   -9.3200 C.3   301  PHE301     -0.0306
      6  CG         4.1670   51.2040  -10.0040 C.ar  301  PHE301     -0.0484
      7  CD1        5.1110   52.1840   -9.7090 C.ar  301  PHE301     -0.0586
      8  CD2        4.4820   50.2110  -10.9350 C.ar  301  PHE301     -0.0586
      9  CE1        6.3690   52.1710  -10.3440 C.ar  301  PHE301     -0.0615
     10  CE2        5.7280   50.1780  -11.5850 C.ar  301  PHE301     -0.0615
     11  CZ         6.6920   51.1470  -11.2690 C.ar  301  PHE301     -0.0617
     12  OXT        1.1390   52.0640   -7.0460 O.co2 301  PHE301     -0.2482
     13  H1         4.3000   49.3000   -8.0060 H     301  PHE301     -0.0889
     14  H2         3.3010   49.0780   -6.8180 H     301  PHE301     -0.0889
     15  H          2.8440   48.7910   -8.2900 H     301  PHE301     -0.0889
     16  HA         3.5200   51.3750   -7.3830 H     301  PHE301      0.0201
     17  HB2        2.2560   50.5960   -9.7990 H     301  PHE301      0.0302
     18  HB3        2.4810   52.1060   -9.3640 H     301  PHE301      0.0302
     19  HD1        4.9120   52.8450   -9.0860 H     301  PHE301      0.0620
     20  HD2        3.8530   49.5550  -11.1290 H     301  PHE301      0.0620
     21  HE1        6.9980   52.8240  -10.1380 H     301  PHE301      0.0618
     22  HE2        5.9220   49.5040  -12.1960 H     301  PHE301      0.0618
     23  HZ         7.5150   51.1480  -11.7010 H     301  PHE301      0.0618
@<TRIPOS>BOND
     1    22    10    1
     2    23    11    1
     3    10    11   ar
     4    10     8   ar
     5    11     9   ar
     6    20     8    1
     7     8     6   ar
     8     9    21    1
     9     9     7   ar
    10     6     7   ar
    11     6     5    1
    12    17     5    1
    13     7    19    1
    14    18     5    1
    15     5     2    1
    16    15     1    1
    17    13     1    1
    18     2     1    1
    19     2    16    1
    20     2     3    1
    21     1    14    1
    22     3     4   ar
    23     3    12   ar
