@<TRIPOS>MOLECULE
4ip7_FLC_A_1.pdb
 13 12 0 0 0
SMALL
GASTEIGER

@<TRIPOS>ATOM
      1  CAC       58.2190  -28.3400   12.7290 C.2   602  FLC602      0.3680
      2  CA        58.6110  -26.9240   13.0340 C.3   602  FLC602      0.1560
      3  CB        60.0980  -26.7980   13.5190 C.3   602  FLC602      0.2402
      4  CBC       60.3110  -25.3210   13.7910 C.2   602  FLC602      0.3927
      5  CG        60.5240  -27.4760   14.8900 C.3   602  FLC602      0.1560
      6  CGC       60.6150  -28.9900   14.8240 C.2   602  FLC602      0.3680
      7  OA1       57.7020  -29.0330   13.6580 O.co2 602  FLC602     -0.2455
      8  OA2       58.3410  -28.7530   11.5420 O.co2 602  FLC602     -0.2455
      9  OB1       61.4110  -24.8050   13.5530 O.co2 602  FLC602     -0.2429
     10  OB2       59.3800  -24.6230   14.3200 O.co2 602  FLC602     -0.2429
     11  OG1       61.0360  -29.5350   13.7460 O.co2 602  FLC602     -0.2455
     12  OG2       60.1580  -29.6700   15.8220 O.co2 602  FLC602     -0.2455
     13  OHB       60.8950  -27.3350   12.4390 O.3   602  FLC602     -0.2129
@<TRIPOS>BOND
     1     8     1   ar
     2    13     3    1
     3     1     2    1
     4     1     7   ar
     5     2     3    1
     6     3     4    1
     7     3     5    1
     8     9     4   ar
     9    11     6   ar
    10     4    10   ar
    11     6     5    1
    12     6    12   ar
