@<TRIPOS>MOLECULE
4ip7_ADN_D_1.pdb
 19 21 0 0 0
SMALL
GASTEIGER

@<TRIPOS>ATOM
      1  O5'       22.0930   53.2120  -24.4510 O.3   604  ADN604     -0.2176
      2  C5'       21.3060   52.0140  -24.2790 C.3   604  ADN604      0.2143
      3  C4'       20.0110   52.3780  -23.5670 C.3   604  ADN604      0.1851
      4  O4'       20.2230   52.0240  -22.1970 O.3   604  ADN604     -0.3134
      5  C3'       19.7370   53.8870  -23.5630 C.3   604  ADN604      0.2186
      6  O3'       18.3380   54.0840  -23.3480 O.3   604  ADN604     -0.2174
      7  C2'       20.5540   54.2830  -22.3310 C.3   604  ADN604      0.2570
      8  O2'       20.6400   55.6660  -21.8590 O.3   604  ADN604     -0.2130
      9  C1'       20.1780   53.1870  -21.3570 C.3   604  ADN604      0.3186
     10  N9        21.2130   52.9960  -20.3010 N.pl3 604  ADN604     -0.1439
     11  C8        22.4320   53.5840  -20.2260 C.3   604  ADN604      0.3377
     12  N7        23.0810   53.1730  -19.1080 N.2   604  ADN604     -0.2095
     13  C5        22.2900   52.2890  -18.4520 C.2   604  ADN604      0.2526
     14  C6        22.3910   51.4890  -17.2060 C.2   604  ADN604      0.4393
     15  N6        23.4890   51.5310  -16.4020 N.pl3 604  ADN604      0.2180
     16  N1        21.3200   50.6990  -16.8920 N.2   604  ADN604      0.0021
     17  C2        20.2070   50.6410  -17.6680 C.3   604  ADN604      0.5254
     18  N3        20.0470   51.3620  -18.8100 N.2   604  ADN604     -0.0055
     19  C4        21.0470   52.1870  -19.2350 C.2   604  ADN604      0.3518
@<TRIPOS>BOND
     1     1     2    1
     2     2     3    1
     3     3     5    1
     4     3     4    1
     5     5     6    1
     6     5     7    1
     7     7     8    1
     8     7     9    1
     9     4     9    1
    10     9    10    1
    11    10    11    1
    12    10    19    1
    13    11    12    1
    14    19    18    2
    15    19    13    1
    16    12    13    2
    17    18    17    1
    18    13    14    1
    19    17    16    1
    20    14    16    2
    21    14    15    1
