@<TRIPOS>MOLECULE
4ip7_FBP_A_1.pdb
 20 20 0 0 0
SMALL
GASTEIGER

@<TRIPOS>ATOM
      1  P1        32.5530  -38.9500   -9.5500 P.3   603  FBP603      0.5328
      2  O1P       33.7230  -39.2900  -10.5310 O.2   603  FBP603     -0.2224
      3  O2P       32.9980  -39.1440   -8.1320 O.3   603  FBP603     -0.1145
      4  O3P       31.2280  -39.6450   -9.6820 O.3   603  FBP603     -0.1145
      5  O1        32.2470  -37.3680   -9.6110 O.3   603  FBP603     -0.2648
      6  C1        31.3140  -36.7140   -8.7570 C.3   603  FBP603      0.2152
      7  C2        31.7210  -35.2160   -8.7490 C.3   603  FBP603      0.2780
      8  O2        30.6540  -34.5370   -8.1040 O.3   603  FBP603     -0.1897
      9  C3        31.8860  -34.6200  -10.1100 C.3   603  FBP603      0.2408
     10  O3        30.5970  -34.3550  -10.6780 O.3   603  FBP603     -0.2149
     11  C4        32.9110  -33.4760   -9.9290 C.3   603  FBP603      0.2167
     12  O4        33.5390  -32.9850  -11.1840 O.3   603  FBP603     -0.2175
     13  C5        33.8490  -34.1150   -8.9450 C.3   603  FBP603      0.1808
     14  O5        32.9740  -34.9170   -8.1000 O.3   603  FBP603     -0.3255
     15  C6        34.5170  -33.0100   -8.1060 C.3   603  FBP603      0.1859
     16  O6        35.7800  -33.5040   -7.7020 O.3   603  FBP603     -0.2675
     17  P2        37.0290  -32.4730   -7.6410 P.3   603  FBP603      0.5327
     18  O4P       36.7340  -31.7340   -6.3490 O.3   603  FBP603     -0.1145
     19  O5P       38.1710  -33.4060   -7.3050 O.3   603  FBP603     -0.1145
     20  O6P       37.0190  -31.5220   -8.7810 O.2   603  FBP603     -0.2224
@<TRIPOS>BOND
     1    12    11    1
     2    10     9    1
     3     2     1    2
     4     9    11    1
     5     9     7    1
     6    11    13    1
     7     4     1    1
     8     5     1    1
     9     5     6    1
    10     1     3    1
    11    13    15    1
    12    13    14    1
    13    20    17    2
    14     6     7    1
    15     7     8    1
    16     7    14    1
    17    15    16    1
    18    16    17    1
    19    17    19    1
    20    17    18    1
