@<TRIPOS>MOLECULE
4ipf_1F0_A_1.pdb
 49 53 0 0 0
SMALL
GASTEIGER

@<TRIPOS>ATOM
      1  N1        12.5930    8.4480   35.6800 N.am  201  1F0201     -0.1242
      2  C5        11.6930    9.0880   34.7370 C.3   201  1F0201      0.1970
      3  C57       10.6480    8.1090   34.1730 C.3   201  1F0201      0.0568
      4  C51       12.5190    9.7250   33.6330 C.ar  201  1F0201      0.0208
      5  C4        11.0400   10.1620   35.6600 C.3   201  1F0201      0.2322
      6  C47        9.7150    9.6460   36.2220 C.3   201  1F0201      0.0625
      7  C41       10.8030   11.4630   34.9430 C.ar  201  1F0201      0.0258
      8  N3        11.9970   10.3170   36.7720 N.2   201  1F0201     -0.0650
      9  C2        12.8170    9.3230   36.8000 C.2   201  1F0201      0.3292
     10  C21       13.8480    9.0940   37.8320 C.ar  201  1F0201      0.1161
     11  C56       13.8950    9.9110   33.8140 C.ar  201  1F0201      0.0004
     12  C55       14.6510   10.5850   32.8470 C.ar  201  1F0201      0.0112
     13  C54       14.0230   11.0690   31.6990 C.ar  201  1F0201      0.0577
     14 CL5        14.9490   12.0200   30.5330 Cl    201  1F0201     -0.0822
     15  C53       12.6640   10.8230   31.4760 C.ar  201  1F0201      0.0112
     16  C52       11.9130   10.1510   32.4430 C.ar  201  1F0201      0.0004
     17  C42        9.5430   11.7220   34.3940 C.ar  201  1F0201      0.0007
     18  C43        9.3140   12.9070   33.7010 C.ar  201  1F0201      0.0112
     19  C44       10.3530   13.8250   33.5590 C.ar  201  1F0201      0.0577
     20 CL4        10.0880   15.3050   32.6470 Cl    201  1F0201     -0.0822
     21  C45       11.6080   13.5830   34.1220 C.ar  201  1F0201      0.0112
     22  C46       11.8280   12.4000   34.8190 C.ar  201  1F0201      0.0007
     23  C10       13.0660    7.0970   35.4780 C.2   201  1F0201      0.3989
     24  O10       13.3310    6.7080   34.3340 O.2   201  1F0201     -0.2234
     25  N10       13.2410    6.2470   36.5800 N.am  201  1F0201     -0.2411
     26  C14       13.8940    4.9610   36.3600 C.3   201  1F0201      0.1144
     27  C13       14.7730    4.6360   37.5540 C.3   201  1F0201      0.0940
     28  N12       13.9860    4.6500   38.8110 N.3   201  1F0201     -0.2697
     29  C12       13.3380    5.9800   39.0310 C.3   201  1F0201      0.0940
     30  C11       12.4680    6.3950   37.8190 C.3   201  1F0201      0.1144
     31  C22       13.5640    9.4060   39.1630 C.ar  201  1F0201      0.0101
     32  C23       14.5320    9.2370   40.1560 C.ar  201  1F0201     -0.0038
     33  C24       15.8000    8.7430   39.8310 C.ar  201  1F0201     -0.0198
     34  C30       16.8240    8.5630   40.9220 C.3   201  1F0201      0.0190
     35  C33       17.7970    9.7470   40.9110 C.3   201  1F0201      0.0044
     36  C31       17.6040    7.2640   40.6970 C.3   201  1F0201      0.0044
     37  C25       16.1090    8.4270   38.5040 C.ar  201  1F0201      0.0329
     38  C26       15.1270    8.6120   37.5190 C.ar  201  1F0201      0.1453
     39  O27       15.4220    8.3400   36.2110 O.3   201  1F0201     -0.4752
     40  C28       16.7390    7.8810   35.9490 C.3   201  1F0201      0.2055
     41  C29       16.8820    7.5420   34.4590 C.3   201  1F0201      0.0512
     42  C32       16.1170    8.5010   42.2790 C.3   201  1F0201      0.0044
     43  C16       14.1050    4.2660   41.2850 C.3   201  1F0201      0.0426
     44  C17       15.0680    3.7860   42.3820 C.3   201  1F0201      0.1523
     45  S17       14.4700    4.2170   43.9960 S.O2  201  1F0201     -0.0082
     46  C19       15.5690    3.4180   45.1430 C.3   201  1F0201      0.1760
     47  O17       13.1380    3.6560   44.1630 O.2   201  1F0201     -0.1729
     48  O18       14.5940    5.6660   44.1580 O.2   201  1F0201     -0.1729
     49  C15       14.8370    4.2230   39.9420 C.3   201  1F0201      0.0740
@<TRIPOS>BOND
     1    14    13    1
     2    15    13   ar
     3    15    16   ar
     4    13    12   ar
     5    16     4   ar
     6    20    19    1
     7    12    11   ar
     8    19    18   ar
     9    19    21   ar
    10     4    11   ar
    11     4     2    1
    12    18    17   ar
    13    21    22   ar
    14     3     2    1
    15    24    23    2
    16    17     7   ar
    17    41    40    1
    18     2     5    1
    19     2     1    1
    20    22     7   ar
    21     7     5    1
    22    23     1   am
    23    23    25   am
    24     5     6    1
    25     5     8    1
    26     1     9    1
    27    40    39    1
    28    39    38    1
    29    26    25    1
    30    26    27    1
    31    25    30    1
    32     8     9    2
    33     9    10    1
    34    38    10   ar
    35    38    37   ar
    36    27    28    1
    37    30    29    1
    38    10    31   ar
    39    37    33   ar
    40    28    29    1
    41    28    49    1
    42    31    32   ar
    43    33    32   ar
    44    33    34    1
    45    49    43    1
    46    36    34    1
    47    35    34    1
    48    34    42    1
    49    43    44    1
    50    44    45    1
    51    45    48    2
    52    45    47    2
    53    45    46    1
