@<TRIPOS>MOLECULE
4iqg_NAP_A_1.pdb
 48 52 0 0 0
SMALL
GASTEIGER

@<TRIPOS>ATOM
      1  PA        48.2590   34.2100   36.2500 P.3   304  NAP304      0.2189
      2  O1A       46.9480   33.9540   35.5450 O.2   304  NAP304     -0.5170
      3  O2A       48.5550   35.5860   36.8090 O.3   304  NAP304     -0.4371
      4  O5B       49.4170   33.6720   35.2780 O.3   304  NAP304     -0.3112
      5  C5B       49.3080   32.3360   34.7650 C.3   304  NAP304      0.1813
      6  C4B       50.6610   31.8100   34.2980 C.3   304  NAP304      0.1820
      7  O4B       50.4340   30.4470   33.9340 O.3   304  NAP304     -0.3136
      8  C3B       51.2050   32.5530   33.0670 C.3   304  NAP304      0.2157
      9  O3B       52.6450   32.6060   33.1130 O.3   304  NAP304     -0.2175
     10  C2B       50.6810   31.7060   31.9020 C.3   304  NAP304      0.2314
     11  O2B       51.4260   31.8410   30.6830 O.3   304  NAP304     -0.2630
     12  C1B       50.8260   30.3250   32.5380 C.3   304  NAP304      0.3158
     13  N9A       50.1290   29.2800   31.8060 N.pl3 304  NAP304     -0.1439
     14  C8A       48.7810   29.2040   31.5980 C.3   304  NAP304      0.3377
     15  N7A       48.4900   28.0840   30.9200 N.2   304  NAP304     -0.2095
     16  C5A       49.6650   27.4400   30.6960 C.2   304  NAP304      0.2526
     17  C6A       50.0610   26.2080   30.0010 C.2   304  NAP304      0.4393
     18  N6A       49.0650   25.4680   29.4250 N.pl3 304  NAP304      0.2180
     19  N1A       51.3770   25.8500   29.9820 N.2   304  NAP304      0.0021
     20  C2A       52.3530   26.6170   30.5670 C.3   304  NAP304      0.5254
     21  N3A       52.0640   27.7740   31.1960 N.2   304  NAP304     -0.0055
     22  C4A       50.7640   28.2260   31.2830 C.2   304  NAP304      0.3518
     23  O3        48.2630   33.1220   37.4750 O.3   304  NAP304     -0.2703
     24  PN        48.2790   33.4120   39.0780 P.3   304  NAP304      0.2189
     25  O1N       49.5750   33.9240   39.6940 O.3   304  NAP304     -0.4371
     26  O2N       46.9070   33.9900   39.4570 O.2   304  NAP304     -0.5170
     27  O5D       48.2750   31.8240   39.4020 O.3   304  NAP304     -0.3112
     28  C5D       49.4080   31.0180   39.7530 C.3   304  NAP304      0.1813
     29  C4D       48.9460   29.7600   40.4260 C.3   304  NAP304      0.1799
     30  O4D       48.3000   30.1980   41.6720 O.3   304  NAP304     -0.3327
     31  C3D       47.9580   28.8990   39.6400 C.3   304  NAP304      0.2158
     32  O3D       48.2460   27.4870   39.7480 O.3   304  NAP304     -0.2175
     33  C2D       46.6310   29.3160   40.3030 C.3   304  NAP304      0.2309
     34  O2D       45.6010   28.3600   40.1540 O.3   304  NAP304     -0.2158
     35  C1D       47.0870   29.5180   41.7650 C.3   304  NAP304      0.2263
     36  N1N       46.1460   30.2390   42.6310 N.pl3 304  NAP304     -0.2787
     37  C2N       45.9730   31.5760   42.5050 C.3   304  NAP304      0.1244
     38  C3N       45.0280   32.1800   43.3690 C.2   304  NAP304      0.0544
     39  C7N       44.7900   33.6210   43.1890 C.2   304  NAP304      0.2818
     40  O7N       45.5340   34.1350   42.3550 O.2   304  NAP304     -0.2670
     41  N7N       43.7780   34.2460   43.8460 N.am  304  NAP304     -0.0839
     42  C4N       44.2670   31.4500   44.3020 C.2   304  NAP304      0.0033
     43  C5N       44.4330   30.1020   44.4340 C.2   304  NAP304      0.0157
     44  C6N       45.4410   29.5170   43.5710 C.2   304  NAP304      0.0633
     45  P2B       51.1870   33.1540   29.7060 P.3   304  NAP304      0.5328
     46  O1X       49.7030   33.2130   29.4610 O.3   304  NAP304     -0.1145
     47  O2X       52.0530   32.8670   28.4760 O.2   304  NAP304     -0.2224
     48  O3X       51.7230   34.3330   30.5350 O.3   304  NAP304     -0.1145
@<TRIPOS>BOND
     1    47    45    2
     2    18    17    1
     3    46    45    1
     4    45    48    1
     5    45    11    1
     6    19    17    2
     7    19    20    1
     8    17    16    1
     9    20    21    1
    10    11    10    1
    11    16    15    2
    12    16    22    1
    13    15    14    1
    14    21    22    2
    15    22    13    1
    16    14    13    1
    17    13    12    1
    18    10    12    1
    19    10     8    1
    20    12     7    1
    21     8     9    1
    22     8     6    1
    23     7     6    1
    24     6     5    1
    25     5     4    1
    26     4     1    1
    27     2     1    2
    28     1     3    1
    29     1    23    1
    30    23    24    1
    31    24    27    1
    32    24    26    2
    33    24    25    1
    34    27    28    1
    35    31    32    1
    36    31    33    1
    37    31    29    1
    38    28    29    1
    39    34    33    1
    40    33    35    1
    41    29    30    1
    42    30    35    1
    43    35    36    1
    44    40    39    2
    45    37    36    1
    46    37    38    1
    47    36    44    1
    48    39    38    1
    49    39    41   am
    50    38    42    2
    51    44    43    2
    52    42    43    1
