@<TRIPOS>MOLECULE
4iqy_AR6_A_1.pdb
 36 39 0 0 0
SMALL
GASTEIGER

@<TRIPOS>ATOM
      1  N1         5.3710   17.9900   -3.5580 N.2   301  AR6301      0.0021
      2  C2         5.2420   16.6650   -3.8310 C.3   301  AR6301      0.5254
      3  N3         5.5660   16.0740   -5.0010 N.2   301  AR6301     -0.0055
      4  C4         6.0560   16.9140   -5.9140 C.2   301  AR6301      0.3518
      5  C5         6.2020   18.2820   -5.6800 C.2   301  AR6301      0.2526
      6  C6         5.8590   18.8630   -4.4730 C.2   301  AR6301      0.4393
      7  N6         5.9950   20.2480   -4.1660 N.pl3 301  AR6301      0.2180
      8  N7         6.7360   18.8920   -6.8580 N.2   301  AR6301     -0.2095
      9  C8         6.8810   17.8720   -7.7400 C.3   301  AR6301      0.3377
     10  N9         6.4670   16.6900   -7.2030 N.pl3 301  AR6301     -0.1439
     11  PA        10.9270   15.1110   -9.8890 P.3   301  AR6301      0.2189
     12  PB        12.7530   12.8670  -10.1700 P.3   301  AR6301      0.2189
     13  C1'        6.4740   15.3620   -7.7750 C.3   301  AR6301      0.3186
     14  O1A       10.9480   16.2410   -8.9070 O.3   301  AR6301     -0.4371
     15  O1B       13.2050   11.9260   -9.1030 O.3   301  AR6301     -0.4371
     16  C1D       15.3540   17.3680   -9.7090 C.3   301  AR6301      0.3023
     17  O1D       15.8020   18.3780  -10.5520 O.3   301  AR6301     -0.1869
     18  C2'        6.3950   15.2660   -9.2550 C.3   301  AR6301      0.2570
     19  O2'        5.1380   15.5330   -9.7580 O.3   301  AR6301     -0.2130
     20  O2A       11.1300   15.5820  -11.2970 O.2   301  AR6301     -0.5170
     21  O2B       11.9550   12.2990  -11.2820 O.2   301  AR6301     -0.5170
     22  C2D       16.4690   16.7880   -8.9070 C.3   301  AR6301      0.2433
     23  O2D       17.4690   17.7030   -8.5800 O.3   301  AR6301     -0.2148
     24  C3'        6.7990   13.8630   -9.4340 C.3   301  AR6301      0.2184
     25  O3'        5.7170   13.0080   -9.2440 O.3   301  AR6301     -0.2174
     26  O3A       12.0300   14.0730   -9.4250 O.3   301  AR6301     -0.2703
     27  C3D       16.9260   15.6670   -9.7510 C.3   301  AR6301      0.2168
     28  O3D       17.9570   16.0960  -10.5740 O.3   301  AR6301     -0.2175
     29  C4'        7.7930   13.6760   -8.3210 C.3   301  AR6301      0.1821
     30  O4'        7.7140   14.7900   -7.4590 O.3   301  AR6301     -0.3135
     31  C4D       15.7150   15.2690  -10.5350 C.3   301  AR6301      0.1807
     32  O4D       14.7950   16.3260  -10.4540 O.3   301  AR6301     -0.3237
     33  C5'        9.2300   13.4920   -8.7930 C.3   301  AR6301      0.1813
     34  O5'        9.5550   14.3510   -9.8630 O.3   301  AR6301     -0.3112
     35  C5D       15.0930   14.0080   -9.9590 C.3   301  AR6301      0.1813
     36  O5D       14.0360   13.5690  -10.7880 O.3   301  AR6301     -0.3112
@<TRIPOS>BOND
     1    20    11    2
     2    21    12    2
     3    36    12    1
     4    36    35    1
     5    28    27    1
     6    17    16    1
     7    31    32    1
     8    31    35    1
     9    31    27    1
    10    32    16    1
    11    12    26    1
    12    12    15    1
    13    11    34    1
    14    11    26    1
    15    11    14    1
    16    34    33    1
    17    19    18    1
    18    27    22    1
    19    16    22    1
    20    24    18    1
    21    24    25    1
    22    24    29    1
    23    18    13    1
    24    22    23    1
    25    33    29    1
    26    29    30    1
    27    13    30    1
    28    13    10    1
    29     9    10    1
    30     9     8    1
    31    10     4    1
    32     8     5    2
    33     4     5    1
    34     4     3    2
    35     5     6    1
    36     3     2    1
    37     6     7    1
    38     6     1    2
    39     2     1    1
