@<TRIPOS>MOLECULE
4ir3_1FK_A_1.pdb
 19 21 0 0 0
SMALL
GASTEIGER

@<TRIPOS>ATOM
      1  O         25.1110    8.5770    1.0810 O.2   2006  1FK2006    -0.2898
      2  C1        25.8920    9.5680    0.8770 C.2   2006  1FK2006     0.1895
      3  C         25.3640   10.9530    0.6700 C.3   2006  1FK2006     0.0789
      4  C2        27.3500    9.4160    0.8600 C.ar  2006  1FK2006     0.0997
      5  N3        27.9600    8.2530    0.9890 N.ar  2006  1FK2006    -0.3017
      6  C13       27.4190    6.9410    1.1110 C.ar  2006  1FK2006     0.0816
      7  C12       28.2850    5.8840    1.2160 C.ar  2006  1FK2006     0.0371
      8  C11       29.6760    6.0690    1.1980 C.ar  2006  1FK2006     0.0921
      9  N2        30.5130    4.9890    1.2740 N.pl3 2006  1FK2006    -0.1280
     10  C10       30.2240    7.3740    1.0730 C.ar  2006  1FK2006     0.0363
     11  C9        29.3620    8.4780    0.9650 C.ar  2006  1FK2006     0.0748
     12  C4        29.6120    9.8620    0.8400 C.ar  2006  1FK2006     0.0797
     13  C3        28.3420   10.4400    0.7810 C.ar  2006  1FK2006     0.0319
     14  C5        30.8410   10.5730    0.8090 C.1   2006  1FK2006     0.0326
     15  N1        30.8450   11.8200    0.3080 N.2   2006  1FK2006    -0.2151
     16  C8        32.0240   12.5140    0.2750 C.3   2006  1FK2006     0.1641
     17  C7        33.2370   11.9960    0.7560 C.2   2006  1FK2006     0.0222
     18  C6        33.1490   10.7090    1.2870 C.2   2006  1FK2006     0.1070
     19  N         31.9850    9.9980    1.3170 N.2   2006  1FK2006    -0.1928
@<TRIPOS>BOND
     1    16    15    1
     2    16    17    1
     3    15    14    2
     4     3     2    1
     5    17    18    2
     6    13    12   ar
     7    13     4   ar
     8    14    12    1
     9    14    19    2
    10    12    11   ar
    11     4     2    1
    12     4     5   ar
    13     2     1    2
    14    11     5   ar
    15    11    10   ar
    16     5     6   ar
    17    10     8   ar
    18     6     7   ar
    19     8     7   ar
    20     8     9    1
    21    18    19    1
