@<TRIPOS>MOLECULE
4ir4_IR4_A_1.pdb
 24 27 0 0 0
SMALL
GASTEIGER

@<TRIPOS>ATOM
      1  O         25.5290    8.6560    1.1030 O.2   2001  IR42001    -0.2898
      2  C1        26.3190    9.5510    0.7830 C.2   2001  IR42001     0.1894
      3  C         25.7940   10.8880    0.3680 C.3   2001  IR42001     0.0789
      4  C2        27.8130    9.4850    0.7780 C.ar  2001  IR42001     0.0990
      5  N1        28.5940    8.3920    1.0040 N.ar  2001  IR42001    -0.3023
      6  C10       29.9300    8.8470    0.8910 C.ar  2001  IR42001     0.0668
      7  C4        30.0230   10.2180    0.6090 C.ar  2001  IR42001     0.0353
      8  C5        31.2180   10.9740    0.4620 C.ar  2001  IR42001     0.0828
      9  N         32.3310   10.5550    1.0970 N.ar  2001  IR42001    -0.2438
     10  C9        33.4570   11.2800    0.9370 C.ar  2001  IR42001     0.0988
     11  C8        33.5210   12.4270    0.1590 C.ar  2001  IR42001     0.0207
     12  C7        32.3470   12.9200   -0.3610 C.ar  2001  IR42001     0.0031
     13  C6        31.1820   12.1510   -0.2740 C.ar  2001  IR42001     0.0192
     14  C3        28.6840   10.6050    0.5150 C.ar  2001  IR42001     0.0234
     15  C14       28.3030    7.0660    1.2990 C.ar  2001  IR42001     0.0814
     16  C13       29.3350    6.1720    1.4790 C.ar  2001  IR42001     0.0336
     17  C12       30.6700    6.5830    1.3620 C.ar  2001  IR42001     0.0509
     18  C11       30.9430    7.9310    1.0840 C.ar  2001  IR42001     0.0321
     19  N2        31.7730    5.6750    1.5490 N.pl3 2001  IR42001    -0.3027
     20  C18       31.5370    4.2390    1.7560 C.3   2001  IR42001     0.1231
     21  C17       32.6600    3.4100    1.1810 C.3   2001  IR42001     0.1636
     22  O1        33.9280    3.8860    1.5940 O.3   2001  IR42001    -0.3501
     23  C16       34.1350    5.1840    1.0580 C.3   2001  IR42001     0.1636
     24  C15       33.1540    6.1800    1.6300 C.3   2001  IR42001     0.1231
@<TRIPOS>BOND
     1    12    13   ar
     2    12    11   ar
     3    13     8   ar
     4    11    10   ar
     5     3     2    1
     6     8     7    1
     7     8     9   ar
     8    14     7   ar
     9    14     4   ar
    10     7     6   ar
    11     4     2    1
    12     4     5   ar
    13     2     1    2
    14     6     5   ar
    15     6    18   ar
    16    10     9   ar
    17     5    15   ar
    18    23    22    1
    19    23    24    1
    20    18    17   ar
    21    21    22    1
    22    21    20    1
    23    15    16   ar
    24    17    16   ar
    25    17    19    1
    26    19    24    1
    27    19    20    1
