@<TRIPOS>MOLECULE
4ir5_IR5_A_1.pdb
 27 30 0 0 0
SMALL
GASTEIGER

@<TRIPOS>ATOM
      1  C01       25.0620   10.9700    0.6560 C.3   2013  IR52013     0.0789
      2  C02       25.5500    9.5590    0.9120 C.2   2013  IR52013     0.1894
      3  O01       24.7690    8.6300    1.1200 O.2   2013  IR52013    -0.2898
      4  C03       26.9620    9.3130    0.8190 C.ar  2013  IR52013     0.0990
      5  C04       27.9440   10.2090    0.5340 C.ar  2013  IR52013     0.0219
      6  C05       29.1870    9.5250    0.5170 C.ar  2013  IR52013     0.0175
      7  C06       30.4830   10.1510    0.2740 C.ar  2013  IR52013    -0.0001
      8  C07       30.9040   11.1540    1.1470 C.ar  2013  IR52013    -0.0002
      9  C08       32.1400   11.7640    0.9520 C.ar  2013  IR52013    -0.0000
     10  C09       32.9480   11.3880   -0.1000 C.ar  2013  IR52013    -0.0002
     11  C10       32.5360   10.4080   -0.9820 C.ar  2013  IR52013    -0.0017
     12  C11       31.3080    9.7570   -0.8080 C.ar  2013  IR52013     0.0106
     13  C12       30.8990    8.6820   -1.7910 C.3   2013  IR52013     0.2086
     14  O02       30.7810    9.1810   -3.1060 O.3   2013  IR52013    -0.2152
     15  C13       28.9130    8.2210    0.8730 C.ar  2013  IR52013     0.0671
     16  C14       29.7290    7.0790    1.0470 C.ar  2013  IR52013     0.0550
     17  C15       29.1490    5.9240    1.4140 C.ar  2013  IR52013     0.1482
     18  O1        29.8690    4.7560    1.6010 O.3   2013  IR52013    -0.4534
     19  C16       31.2400    4.7930    1.8110 C.ar  2013  IR52013     0.1453
     20  C17       32.0900    4.4700    0.7720 C.ar  2013  IR52013     0.0375
     21  C18       33.4640    4.4860    0.9990 C.ar  2013  IR52013     0.0031
     22  C19       33.9650    4.7890    2.2470 C.ar  2013  IR52013     0.0002
     23  C20       33.1070    5.0700    3.2900 C.ar  2013  IR52013     0.0031
     24  C21       31.7290    5.0960    3.0770 C.ar  2013  IR52013     0.0375
     25  C22       27.7960    5.7800    1.5690 C.ar  2013  IR52013     0.0565
     26  C1        26.9890    6.8560    1.3840 C.ar  2013  IR52013     0.0833
     27  N1        27.5270    8.0650    1.0420 N.ar  2013  IR52013    -0.3023
@<TRIPOS>BOND
     1    14    13    1
     2    13    12    1
     3    11    12   ar
     4    11    10   ar
     5    12     7   ar
     6    10     9   ar
     7     7     6    1
     8     7     8   ar
     9     6     5   ar
    10     6    15   ar
    11     5     4   ar
    12     1     2    1
    13    20    21   ar
    14    20    19   ar
    15     4     2    1
    16     4    27   ar
    17    15    27   ar
    18    15    16   ar
    19     2     3    2
    20     9     8   ar
    21    21    22   ar
    22    27    26   ar
    23    16    17   ar
    24    26    25   ar
    25    17    25   ar
    26    17    18    1
    27    18    19    1
    28    19    24   ar
    29    22    23   ar
    30    24    23   ar
