@<TRIPOS>MOLECULE
4ir6_IR6_A_1.pdb
 29 32 0 0 0
SMALL
GASTEIGER

@<TRIPOS>ATOM
      1  C01       24.5890   10.8720    0.7340 C.3   2007  IR62007     0.0789
      2  C02       25.1130    9.4220    0.9070 C.2   2007  IR62007     0.1894
      3  O01       24.3530    8.4960    1.1620 O.2   2007  IR62007    -0.2898
      4  C03       26.4810    9.2420    0.7720 C.ar  2007  IR62007     0.0990
      5  C04       27.4160   10.2800    0.5670 C.ar  2007  IR62007     0.0219
      6  C05       28.7140    9.6460    0.4790 C.ar  2007  IR62007     0.0190
      7  C06       29.9870   10.3540    0.3800 C.ar  2007  IR62007     0.0186
      8  C07       30.5610   10.6050    1.6150 C.ar  2007  IR62007     0.0013
      9  C08       31.7770   11.2380    1.6990 C.ar  2007  IR62007     0.0001
     10  C09       32.3900   11.7330    0.5730 C.ar  2007  IR62007     0.0013
     11  C10       31.8400   11.5200   -0.6640 C.ar  2007  IR62007     0.0183
     12  C11       30.6250   10.8590   -0.7520 C.ar  2007  IR62007     0.1057
     13  S         29.9800   10.6450   -2.3770 S.O2  2007  IR62007     0.0104
     14  C12       28.6670   11.8080   -2.5650 C.3   2007  IR62007     0.1816
     15  O02       31.0210   10.9970   -3.3100 O.2   2007  IR62007    -0.1686
     16  O03       29.4230    9.3240   -2.4670 O.2   2007  IR62007    -0.1686
     17  C13       28.5060    8.2670    0.7030 C.ar  2007  IR62007     0.0672
     18  C14       29.4040    7.1670    0.7630 C.ar  2007  IR62007     0.0550
     19  C15       28.8870    5.9380    0.9730 C.ar  2007  IR62007     0.1482
     20  O1        29.6650    4.7710    1.0380 O.3   2007  IR62007    -0.4534
     21  C16       31.0470    4.8090    1.2250 C.ar  2007  IR62007     0.1453
     22  C17       31.8730    4.3930    0.1920 C.ar  2007  IR62007     0.0375
     23  C18       33.2480    4.4030    0.3720 C.ar  2007  IR62007     0.0031
     24  C19       33.7950    4.8100    1.5740 C.ar  2007  IR62007     0.0002
     25  C20       32.9700    5.2040    2.6050 C.ar  2007  IR62007     0.0031
     26  C21       31.5830    5.2160    2.4370 C.ar  2007  IR62007     0.0375
     27  C22       27.5320    5.7180    1.1340 C.ar  2007  IR62007     0.0565
     28  C1        26.6620    6.7760    1.0610 C.ar  2007  IR62007     0.0833
     29  N1        27.1340    8.0400    0.8210 N.ar  2007  IR62007    -0.3023
@<TRIPOS>BOND
     1    15    13    2
     2    14    13    1
     3    16    13    2
     4    13    12    1
     5    12    11   ar
     6    12     7   ar
     7    11    10   ar
     8    22    23   ar
     9    22    21   ar
    10    23    24   ar
    11     7     6    1
    12     7     8   ar
    13     6     5   ar
    14     6    17   ar
    15     5     4   ar
    16    10     9   ar
    17    17    18   ar
    18    17    29   ar
    19     1     2    1
    20    18    19   ar
    21     4    29   ar
    22     4     2    1
    23    29    28   ar
    24     2     3    2
    25    19    20    1
    26    19    27   ar
    27    20    21    1
    28    28    27   ar
    29    21    26   ar
    30    24    25   ar
    31     8     9   ar
    32    26    25   ar
