@<TRIPOS>MOLECULE
4iro_HEM_A_1.pdb
 43 50 0 0 0
SMALL
GASTEIGER

@<TRIPOS>ATOM
      1  CHA        6.5010  -19.5820   28.7470 C.2   202  HEM202      0.0000
      2  CHB        8.6900  -15.2840   28.4610 C.2   202  HEM202      0.0000
      3  CHC        4.4140  -13.1010   28.9820 C.2   202  HEM202      0.0000
      4  CHD        2.3890  -17.3710   29.9650 C.2   202  HEM202      0.0000
      5  C1A        7.4730  -18.6140   28.5930 C.ar  202  HEM202      0.0000
      6  C2A        8.8900  -18.8570   28.4190 C.ar  202  HEM202      0.0000
      7  C3A        9.4950  -17.6660   28.3510 C.ar  202  HEM202      0.0000
      8  C4A        8.4770  -16.6460   28.4810 C.ar  202  HEM202      0.0000
      9  CMA       10.9950  -17.3490   28.1670 C.3   202  HEM202      0.0000
     10  CAA        9.5110  -20.2650   28.3480 C.3   202  HEM202      0.0000
     11  CBA        8.9550  -21.2720   27.3570 C.3   202  HEM202      0.0000
     12  CGA        9.9430  -21.8930   26.4060 C.2   202  HEM202      0.0000
     13  O1A       10.4590  -21.1240   25.5530 O.co2 202  HEM202      0.0000
     14  O2A       10.1710  -23.1220   26.5410 O.co2 202  HEM202      0.0000
     15  C1B        7.7210  -14.3080   28.5520 C.2   202  HEM202      0.0000
     16  C2B        7.9440  -12.8800   28.4650 C.2   202  HEM202      0.0000
     17  C3B        6.7580  -12.2770   28.5820 C.2   202  HEM202      0.0000
     18  C4B        5.7600  -13.3140   28.7430 C.2   202  HEM202      0.0000
     19  CMB        9.3340  -12.2410   28.2590 C.3   202  HEM202      0.0000
     20  CAB        6.4350  -10.7700   28.5900 C.2   202  HEM202      0.0000
     21  CBB        6.9660   -9.9770   29.5270 C.2   202  HEM202      0.0000
     22  C1C        3.5350  -14.0620   29.4320 C.ar  202  HEM202      0.0000
     23  C2C        2.2490  -13.8050   30.0600 C.ar  202  HEM202      0.0000
     24  C3C        1.6940  -14.9840   30.3350 C.ar  202  HEM202      0.0000
     25  C4C        2.6130  -16.0160   29.8770 C.ar  202  HEM202      0.0000
     26  CMC        1.7320  -12.3800   30.3390 C.3   202  HEM202      0.0000
     27  CAC        0.3220  -15.3210   30.9540 C.2   202  HEM202      0.0000
     28  CBC       -0.2280  -14.5390   31.8840 C.2   202  HEM202      0.0000
     29  C1D        3.3250  -18.3540   29.7340 C.2   202  HEM202      0.0000
     30  C2D        3.1290  -19.7730   29.9150 C.2   202  HEM202      0.0000
     31  C3D        4.2690  -20.3860   29.5810 C.2   202  HEM202      0.0000
     32  C4D        5.2120  -19.3630   29.1850 C.2   202  HEM202      0.0000
     33  CMD        1.8000  -20.4000   30.3960 C.3   202  HEM202      0.0000
     34  CAD        4.6060  -21.8920   29.6210 C.2   202  HEM202      0.0000
     35  CBD        5.2630  -22.4450   30.8860 C.2   202  HEM202      0.0000
     36  CGD        5.5860  -23.9140   30.8690 C.2   202  HEM202      0.0000
     37  O1D        6.4790  -24.2970   30.0680 O.co2 202  HEM202      0.0000
     38  O2D        4.9340  -24.6490   31.6550 O.co2 202  HEM202      0.0000
     39  NA         7.2400  -17.2510   28.6230 N.ar  202  HEM202      0.0000
     40  NB         6.3700  -14.5490   28.7440 N.2   202  HEM202      0.0000
     41  NC         3.7310  -15.4230   29.3280 N.ar  202  HEM202      0.0000
     42  ND         4.6170  -18.1190   29.2850 N.2   202  HEM202      0.0000
     43 FE          5.5190  -16.3270   29.1020 Fe    202  HEM202      0.0000
@<TRIPOS>BOND
     1    13    12   ar
     2    12    14   ar
     3    12    11    1
     4    11    10    1
     5     9     7    1
     6    19    16    1
     7    10     6    1
     8     7     6   ar
     9     7     8   ar
    10     6     5   ar
    11     2     8    2
    12     2    15    1
    13    16    15    1
    14    16    17    2
    15     8    39   ar
    16    15    40    2
    17    17    20    1
    18    17    18    1
    19    20    21    2
    20     5    39   ar
    21     5     1    2
    22    39    43    1
    23    18    40    1
    24    18     3    2
    25    40    43    1
    26     1    32    1
    27     3    22    1
    28    43    42    1
    29    43    41    1
    30    32    42    2
    31    32    31    1
    32    42    29    1
    33    41    22   ar
    34    41    25   ar
    35    22    23   ar
    36    31    34    1
    37    31    30    2
    38    34    35    2
    39    29    30    1
    40    29     4    2
    41    25     4    1
    42    25    24   ar
    43    30    33    1
    44    23    24   ar
    45    23    26    1
    46    37    36   ar
    47    24    27    1
    48    36    35    1
    49    36    38   ar
    50    27    28    2
