@<TRIPOS>MOLECULE
4is5_GSH_A_1.pdb
 20 19 0 0 0
SMALL
GASTEIGER

@<TRIPOS>ATOM
      1  N1        18.2120   26.5480   -0.6740 N.3   308  GSH308     -0.1208
      2  CA1       16.8430   26.9430   -0.9670 C.3   308  GSH308      0.1948
      3  C1        16.6290   26.8810   -2.4580 C.2   308  GSH308      0.3819
      4  O11       17.5460   27.2360   -3.2420 O.co2 308  GSH308     -0.2441
      5  O12       15.5410   26.4630   -2.9410 O.co2 308  GSH308     -0.2441
      6  CB1       16.6320   28.3550   -0.4090 C.3   308  GSH308      0.0402
      7  CG1       15.3580   28.5490    0.4190 C.3   308  GSH308      0.0889
      8  CD1       15.2780   27.5780    1.5810 C.2   308  GSH308      0.2418
      9  OE1       14.7950   26.2870    1.3490 O.2   308  GSH308     -0.2733
     10  N2        15.6570   28.0120    2.7820 N.am  308  GSH308     -0.1968
     11  CA2       15.5310   27.1370    3.9360 C.3   308  GSH308      0.1843
     12  C2        14.4580   27.6270    4.8700 C.2   308  GSH308      0.2627
     13  O2        14.0820   28.9570    4.8590 O.2   308  GSH308     -0.2714
     14  CB2       16.8930   26.9820    4.6330 C.3   308  GSH308      0.0997
     15  SG2       17.6540   28.4870    5.3490 S.3   308  GSH308     -0.0797
     16  N3        13.8850   26.7740    5.7070 N.am  308  GSH308     -0.1917
     17  CA3       13.1960   27.2520    6.8860 C.3   308  GSH308      0.2285
     18  C3        11.8030   27.7470    6.6070 C.2   308  GSH308      0.3865
     19  O31       11.1930   27.5280    5.5200 O.co2 308  GSH308     -0.2437
     20  O32       11.2230   28.3680    7.5120 O.co2 308  GSH308     -0.2437
@<TRIPOS>BOND
     1     4     3   ar
     2     5     3   ar
     3     3     2    1
     4     2     1    1
     5     2     6    1
     6     6     7    1
     7     7     8    1
     8     9     8    2
     9     8    10   am
    10    10    11    1
    11    11    14    1
    12    11    12    1
    13    14    15    1
    14    13    12    2
    15    12    16   am
    16    19    18   ar
    17    16    17    1
    18    18    17    1
    19    18    20   ar
