@<TRIPOS>MOLECULE
4isd_GSH_A_1.pdb
 20 19 0 0 0
SMALL
GASTEIGER

@<TRIPOS>ATOM
      1  N1       -24.2050  -18.7630   16.4370 N.3   301  GSH301     -0.1208
      2  CA1      -22.8370  -18.3300   16.2530 C.3   301  GSH301      0.1948
      3  C1       -22.7280  -17.0740   15.4320 C.2   301  GSH301      0.3819
      4  O11      -23.5970  -16.7670   14.5650 O.co2 301  GSH301     -0.2441
      5  O12      -21.7480  -16.3070   15.6390 O.co2 301  GSH301     -0.2441
      6  CB1      -21.9430  -19.4270   15.7340 C.3   301  GSH301      0.0402
      7  CG1      -20.4890  -18.9300   15.7540 C.3   301  GSH301      0.0889
      8  CD1      -19.5430  -20.1010   15.4240 C.2   301  GSH301      0.2418
      9  OE1      -19.9730  -21.2480   15.3960 O.2   301  GSH301     -0.2733
     10  N2       -18.1320  -19.8390   15.1330 N.am  301  GSH301     -0.1968
     11  CA2      -17.2040  -20.9000   14.8110 C.3   301  GSH301      0.1843
     12  C2       -16.1420  -20.9970   15.8630 C.2   301  GSH301      0.2627
     13  O2       -15.7360  -20.0060   16.4410 O.2   301  GSH301     -0.2714
     14  CB2      -16.5180  -20.6300   13.5030 C.3   301  GSH301      0.0997
     15  SG2      -16.7750  -22.0200   12.4280 S.3   301  GSH301     -0.0797
     16  N3       -15.5670  -22.2750   16.2070 N.am  301  GSH301     -0.1917
     17  CA3      -14.5480  -22.3010   17.2370 C.3   301  GSH301      0.2285
     18  C3       -15.1440  -22.9820   18.4360 C.2   301  GSH301      0.3865
     19  O31      -16.4000  -23.0270   18.5720 O.co2 301  GSH301     -0.2437
     20  O32      -14.3860  -23.5170   19.2970 O.co2 301  GSH301     -0.2437
@<TRIPOS>BOND
     1    15    14    1
     2    14    11    1
     3     4     3   ar
     4    11    10    1
     5    11    12    1
     6    10     8   am
     7     9     8    2
     8     8     7    1
     9     3     5   ar
    10     3     2    1
    11     6     7    1
    12     6     2    1
    13    12    16   am
    14    12    13    2
    15    16    17    1
    16     2     1    1
    17    17    18    1
    18    18    19   ar
    19    18    20   ar
