@<TRIPOS>MOLECULE
4isi_1GG_H_1.pdb
 33 36 0 0 0
SMALL
GASTEIGER

@<TRIPOS>ATOM
      1  C1         9.6070   34.4960   28.7990 C.ar  301  1GG301      0.0975
      2  C2         8.8560   35.6890   28.9060 C.ar  301  1GG301      0.0077
      3  C3         8.6010   36.4810   27.7750 C.ar  301  1GG301     -0.0023
      4  C4         9.0760   36.0710   26.5200 C.ar  301  1GG301     -0.0006
      5 CL4         0.0240   37.3310   24.7960 Cl    301  1GG301     -0.0508
      6  C5         9.8520   34.8940   26.4100 C.ar  301  1GG301     -0.0023
      7  C6        10.1100   34.1090   27.5420 C.ar  301  1GG301      0.0077
      8  C11        9.9050   33.6890   29.9950 C.2   301  1GG301      0.4766
      9  N12       10.3660   32.4320   29.9110 N.pl3 301  1GG301      0.2047
     10  N13        9.7210   34.2630   31.2050 N.pl3 301  1GG301      0.2047
     11  C14        8.7020   36.8290   25.2920 C.3   301  1GG301      0.1415
     12  N15        7.3590   36.4550   24.8930 N.am  301  1GG301     -0.1992
     13  C18        6.3490   37.3370   25.0000 C.2   301  1GG301      0.2598
     14  O19        6.4150   38.4810   25.4410 O.2   301  1GG301     -0.2715
     15  C20        5.0390   36.7960   24.5150 C.3   301  1GG301      0.1542
     16  C21        4.4360   37.1520   23.1390 C.3   301  1GG301      0.0313
     17  C22        2.8910   37.1380   23.2870 C.3   301  1GG301      0.0262
     18  C23        2.6950   37.0070   24.7920 C.3   301  1GG301      0.1395
     19  N24        3.8850   36.8120   25.4050 N.am  301  1GG301     -0.2605
     20  C28        2.3130   35.9380   22.5070 C.3   301  1GG301      0.0021
     21  C29        2.2610   38.4250   22.6850 C.3   301  1GG301      0.0021
     22  C30        2.8990   34.5620   22.8660 C.3   301  1GG301      0.0001
     23  C36        2.6220   39.7360   23.3950 C.3   301  1GG301      0.0001
     24  C42        1.5430   37.0610   25.5790 C.2   301  1GG301      0.1857
     25  N43        1.5470   36.9250   26.9060 N.2   301  1GG301     -0.3721
     26  C44        2.7160   36.7250   27.5400 C.2   301  1GG301      0.2537
     27  C45        3.9880   36.6570   26.7910 C.2   301  1GG301      0.2953
     28  O46        5.0800   36.4750   27.3130 O.2   301  1GG301     -0.2656
     29  N48        2.8100   36.5060   28.8790 N.pl3 301  1GG301     -0.2077
     30  C49        1.7690   36.7310   29.8290 C.3   301  1GG301      0.0952
     31  C50        1.4210   35.9510   31.1180 C.3   301  1GG301      0.0217
     32  C51        1.5590   37.3140   31.8550 C.3   301  1GG301      0.0035
     33  C52        1.3200   38.0510   30.5020 C.3   301  1GG301      0.0217
@<TRIPOS>BOND
     1    20    22    1
     2    20    17    1
     3    21    17    1
     4    21    23    1
     5    16    17    1
     6    16    15    1
     7    17    18    1
     8    15    13    1
     9    15    19    1
    10    18    19    1
    11    18    24    1
    12     5    24    1
    13    12    13   am
    14    12    11    1
    15    13    14    2
    16    11     4    1
    17    19    27   am
    18    24    25    2
    19     6     4   ar
    20     6     7   ar
    21     4     3   ar
    22    27    28    2
    23    27    26    1
    24    25    26    2
    25    26    29    1
    26     7     1   ar
    27     3     2   ar
    28     1     2   ar
    29     1     8    1
    30    29    30    1
    31    30    33    1
    32    30    31    1
    33     9     8    2
    34     8    10    1
    35    33    32    1
    36    31    32    1
