@<TRIPOS>MOLECULE
4isl_GSH_A_1.pdb
 20 19 0 0 0
SMALL
GASTEIGER

@<TRIPOS>ATOM
      1  N1        25.4550   31.8360    3.9660 N.3   305  GSH305     -0.1208
      2  CA1       25.3610   32.1400    5.3880 C.3   305  GSH305      0.1948
      3  C1        26.2070   33.3420    5.7130 C.2   305  GSH305      0.3819
      4  O11       25.7530   34.2690    6.4270 O.co2 305  GSH305     -0.2441
      5  O12       27.3800   33.4250    5.2730 O.co2 305  GSH305     -0.2441
      6  CB1       25.8380   30.9560    6.2330 C.3   305  GSH305      0.0402
      7  CG1       25.0810   29.6680    5.9150 C.3   305  GSH305      0.0889
      8  CD1       23.7900   29.5840    6.7020 C.2   305  GSH305      0.2418
      9  OE1       23.7220   29.9820    8.0550 O.2   305  GSH305     -0.2733
     10  N2        22.7440   29.1070    6.0420 N.am  305  GSH305     -0.1968
     11  CA2       21.5550   28.6520    6.7330 C.3   305  GSH305      0.1843
     12  C2        21.6720   27.2030    7.1410 C.2   305  GSH305      0.2627
     13  O2        22.5690   26.3490    6.4660 O.2   305  GSH305     -0.2714
     14  CB2       20.3400   28.9480    5.8540 C.3   305  GSH305      0.0997
     15  SG2       20.5330   28.3210    4.1610 S.3   305  GSH305     -0.0797
     16  N3        20.9230   26.7790    8.1600 N.am  305  GSH305     -0.1917
     17  CA3       20.5690   25.3800    8.3320 C.3   305  GSH305      0.2285
     18  C3        21.6640   24.5680    8.9880 C.2   305  GSH305      0.3865
     19  O31       21.5820   23.3250    9.0610 O.co2 305  GSH305     -0.2437
     20  O32       22.6720   25.1190    9.4750 O.co2 305  GSH305     -0.2437
@<TRIPOS>BOND
     1     1     2    1
     2    15    14    1
     3     5     3   ar
     4     2     3    1
     5     2     6    1
     6     3     4   ar
     7    14    11    1
     8     7     6    1
     9     7     8    1
    10    10     8   am
    11    10    11    1
    12    13    12    2
    13     8     9    2
    14    11    12    1
    15    12    16   am
    16    16    17    1
    17    17    18    1
    18    18    19   ar
    19    18    20   ar
