@<TRIPOS>MOLECULE
4isn_GSH_A_1.pdb
 20 19 0 0 0
SMALL
GASTEIGER

@<TRIPOS>ATOM
      1  N1        26.0800   30.6650    4.7180 N.3   301  GSH301     -0.1208
      2  CA1       24.7830   31.2920    4.5120 C.3   301  GSH301      0.1948
      3  C1        24.8230   32.7500    4.9200 C.2   301  GSH301      0.3819
      4  O11       25.9160   33.3400    5.1140 O.co2 301  GSH301     -0.2441
      5  O12       23.7620   33.4080    5.0700 O.co2 301  GSH301     -0.2441
      6  CB1       23.7450   30.5320    5.3390 C.3   301  GSH301      0.0402
      7  CG1       22.9620   29.4750    4.5570 C.3   301  GSH301      0.0889
      8  CD1       21.8650   28.9230    5.4540 C.2   301  GSH301      0.2418
      9  OE1       21.6880   29.4400    6.7610 O.2   301  GSH301     -0.2733
     10  N2        21.0840   27.9560    4.9710 N.am  301  GSH301     -0.1968
     11  CA2       19.8270   27.6590    5.6400 C.3   301  GSH301      0.1843
     12  C2        19.7750   26.2550    6.1890 C.2   301  GSH301      0.2627
     13  O2        20.5790   25.2350    5.6400 O.2   301  GSH301     -0.2714
     14  CB2       18.6530   27.9540    4.7120 C.3   301  GSH301      0.0997
     15  SG2       18.6250   26.8920    3.2390 S.3   301  GSH301     -0.0797
     16  N3        18.9460   26.0330    7.2090 N.am  301  GSH301     -0.1917
     17  CA3       18.4530   24.7040    7.5260 C.3   301  GSH301      0.2285
     18  C3        19.4800   23.8770    8.2720 C.2   301  GSH301      0.3865
     19  O31       20.4650   24.4200    8.8310 O.co2 301  GSH301     -0.2437
     20  O32       19.3580   22.6330    8.3460 O.co2 301  GSH301     -0.2437
@<TRIPOS>BOND
     1    15    14    1
     2     2     1    1
     3     2     3    1
     4     2     6    1
     5     7     6    1
     6     7     8    1
     7    14    11    1
     8     3     5   ar
     9     3     4   ar
    10    10     8   am
    11    10    11    1
    12     8     9    2
    13    11    12    1
    14    13    12    2
    15    12    16   am
    16    16    17    1
    17    17    18    1
    18    18    20   ar
    19    18    19   ar
