@<TRIPOS>MOLECULE
4iso_GSH_A_1.pdb
 20 19 0 0 0
SMALL
GASTEIGER

@<TRIPOS>ATOM
      1  N1         6.2060   -2.0020    7.5140 N.3   301  GSH301     -0.1208
      2  CA1        5.5210   -1.9980    6.2230 C.3   301  GSH301      0.1948
      3  C1         5.7410   -3.3410    5.5530 C.2   301  GSH301      0.3819
      4  O11        5.9870   -3.4620    4.3230 O.co2 301  GSH301     -0.2441
      5  O12        5.6800   -4.3940    6.2320 O.co2 301  GSH301     -0.2441
      6  CB1        6.0470   -0.8250    5.3900 C.3   301  GSH301      0.0402
      7  CG1        5.7560    0.5140    6.0720 C.3   301  GSH301      0.0889
      8  CD1        7.0070    1.0080    6.7880 C.2   301  GSH301      0.2418
      9  OE1        7.0810    0.9660    8.1890 O.2   301  GSH301     -0.2733
     10  N2         8.0230    1.4730    6.0800 N.am  301  GSH301     -0.1968
     11  CA2        9.2050    1.9670    6.7670 C.3   301  GSH301      0.1843
     12  C2         9.0780    3.4300    7.1480 C.2   301  GSH301      0.2627
     13  O2         8.1610    4.2590    6.4780 O.2   301  GSH301     -0.2714
     14  CB2       10.3770    1.6950    5.8390 C.3   301  GSH301      0.0997
     15  SG2       10.1820    2.5880    4.2610 S.3   301  GSH301     -0.0797
     16  N3         9.8510    3.9040    8.1290 N.am  301  GSH301     -0.1917
     17  CA3       10.1560    5.3220    8.2920 C.3   301  GSH301      0.2285
     18  C3         9.1020    6.1120    9.0410 C.2   301  GSH301      0.3865
     19  O31        8.2480    5.5370    9.7510 O.co2 301  GSH301     -0.2437
     20  O32        9.0740    7.3580    8.9740 O.co2 301  GSH301     -0.2437
@<TRIPOS>BOND
     1    15    14    1
     2     4     3   ar
     3     6     7    1
     4     6     2    1
     5     3     2    1
     6     3     5   ar
     7    14    11    1
     8     7     8    1
     9    10    11    1
    10    10     8   am
    11     2     1    1
    12    13    12    2
    13    11    12    1
    14     8     9    2
    15    12    16   am
    16    16    17    1
    17    17    18    1
    18    20    18   ar
    19    18    19   ar
