@<TRIPOS>MOLECULE
4it2_MNH_A_1.pdb
 43 50 0 0 0
SMALL
GASTEIGER

@<TRIPOS>ATOM
      1 MN         -2.2280   15.2180  -23.3720 Mn    500  MNH500      0.0000
      2  CHA       -1.9000   16.6370  -26.6550 C.2   500  MNH500      0.0000
      3  CHB       -5.5350   15.0700  -23.8370 C.2   500  MNH500      0.0000
      4  CHC       -2.7640   15.2600  -19.8670 C.2   500  MNH500      0.0000
      5  CHD        1.0120   15.7950  -22.8360 C.2   500  MNH500      0.0000
      6  NA        -3.4780   15.8290  -24.9400 N.ar  500  MNH500      0.0000
      7  C1A       -3.1500   16.2310  -26.2300 C.ar  500  MNH500      0.0000
      8  C2A       -4.3450   16.1570  -27.0480 C.ar  500  MNH500      0.0000
      9  C3A       -5.3440   15.7330  -26.2630 C.ar  500  MNH500      0.0000
     10  C4A       -4.8210   15.5150  -24.9260 C.ar  500  MNH500      0.0000
     11  CMA       -6.8080   15.5020  -26.7090 C.3   500  MNH500      0.0000
     12  CAA       -4.4620   16.5200  -28.5510 C.3   500  MNH500      0.0000
     13  CBA       -4.0760   15.3350  -29.4330 C.3   500  MNH500      0.0000
     14  CGA       -4.1700   15.7030  -30.9000 C.2   500  MNH500      0.0000
     15  O1A       -3.5250   15.0250  -31.7450 O.co2 500  MNH500      0.0000
     16  O2A       -4.8750   16.6830  -31.2390 O.co2 500  MNH500      0.0000
     17  NB        -3.8190   15.2190  -22.0770 N.2   500  MNH500      0.0000
     18  C1B       -5.1230   15.0690  -22.5250 C.2   500  MNH500      0.0000
     19  C2B       -5.9950   14.9110  -21.3730 C.2   500  MNH500      0.0000
     20  C3B       -5.2200   14.9620  -20.2680 C.2   500  MNH500      0.0000
     21  C4B       -3.8470   15.1560  -20.6980 C.2   500  MNH500      0.0000
     22  CMB       -7.5340   14.7230  -21.4800 C.3   500  MNH500      0.0000
     23  CAB       -5.5970   14.8540  -18.7660 C.2   500  MNH500      0.0000
     24  CBB       -6.8490   14.6790  -18.3230 C.2   500  MNH500      0.0000
     25  NC        -1.1400   15.5490  -21.6610 N.ar  500  MNH500      0.0000
     26  C1C       -1.4780   15.3680  -20.3360 C.ar  500  MNH500      0.0000
     27  C2C       -0.2670   15.3060  -19.5510 C.ar  500  MNH500      0.0000
     28  C3C        0.7710   15.4690  -20.3840 C.ar  500  MNH500      0.0000
     29  C4C        0.2420   15.6190  -21.7160 C.ar  500  MNH500      0.0000
     30  CMC       -0.2290   15.1230  -18.0160 C.3   500  MNH500      0.0000
     31  CAC        2.2940   15.4660  -20.0780 C.2   500  MNH500      0.0000
     32  CBC        2.8230   14.8770  -18.9960 C.2   500  MNH500      0.0000
     33  ND        -0.6680   16.0850  -24.5960 N.2   500  MNH500      0.0000
     34  C1D        0.6010   16.2410  -24.0690 C.2   500  MNH500      0.0000
     35  C2D        1.4310   16.9370  -25.0330 C.2   500  MNH500      0.0000
     36  C3D        0.5230   17.2030  -26.2330 C.2   500  MNH500      0.0000
     37  C4D       -0.7630   16.6380  -25.8720 C.2   500  MNH500      0.0000
     38  CMD        2.9130   17.3400  -24.8890 C.3   500  MNH500      0.0000
     39  CAD        0.9120   17.9320  -27.5310 C.3   500  MNH500      0.0000
     40  CBD        0.8550   16.9980  -28.7300 C.3   500  MNH500      0.0000
     41  CGD        2.2330   16.4620  -29.0230 C.2   500  MNH500      0.0000
     42  O1D        3.1860   16.8000  -28.2770 O.co2 500  MNH500      0.0000
     43  O2D        2.3910   15.7020  -30.0110 O.co2 500  MNH500      0.0000
@<TRIPOS>BOND
     1    15    14   ar
     2    16    14   ar
     3    14    13    1
     4    43    41   ar
     5    13    12    1
     6    41    40    1
     7    41    42   ar
     8    40    39    1
     9    12     8    1
    10    39    36    1
    11     8     9   ar
    12     8     7   ar
    13    11     9    1
    14     2     7    2
    15     2    37    1
    16     9    10   ar
    17    36    37    1
    18    36    35    2
    19     7     6   ar
    20    37    33    2
    21    35    38    1
    22    35    34    1
    23     6    10   ar
    24     6     1    1
    25    10     3    2
    26    33    34    1
    27    33     1    1
    28    34     5    2
    29     3    18    1
    30     1    17    1
    31     1    25    1
    32     5    29    1
    33    18    17    2
    34    18    19    1
    35    17    21    1
    36    29    25   ar
    37    29    28   ar
    38    25    26   ar
    39    22    19    1
    40    19    20    2
    41    21    20    1
    42    21     4    2
    43    28    31    1
    44    28    27   ar
    45    26     4    1
    46    26    27   ar
    47    20    23    1
    48    31    32    2
    49    27    30    1
    50    23    24    2
