@<TRIPOS>MOLECULE
4itr_AMP_C_1.pdb
 23 25 0 0 0
SMALL
GASTEIGER

@<TRIPOS>ATOM
      1  P         30.5500    7.0500  -18.6490 P.3   201  AMP201      0.5327
      2  O1P       29.6980    6.2820  -17.6670 O.3   201  AMP201     -0.1145
      3  O2P       30.2170    6.7690  -20.0960 O.2   201  AMP201     -0.2224
      4  O3P       32.0290    7.0460  -18.3410 O.3   201  AMP201     -0.1145
      5  O5'       30.1270    8.5690  -18.4230 O.3   201  AMP201     -0.2675
      6  C5'       30.7520    9.3530  -17.4170 C.3   201  AMP201      0.1860
      7  C4'       29.9130   10.5440  -17.0250 C.3   201  AMP201      0.1823
      8  O4'       28.7820   10.1050  -16.2370 O.3   201  AMP201     -0.3135
      9  C3'       30.6090   11.5550  -16.1300 C.3   201  AMP201      0.2184
     10  O3'       31.4410   12.4480  -16.8510 O.3   201  AMP201     -0.2174
     11  C2'       29.4500   12.2410  -15.4080 C.3   201  AMP201      0.2570
     12  O2'       28.9180   13.2940  -16.1980 O.3   201  AMP201     -0.2130
     13  C1'       28.4080   11.1190  -15.3290 C.3   201  AMP201      0.3186
     14  N9        28.3190   10.5330  -13.9760 N.pl3 201  AMP201     -0.1439
     15  C8        29.0440    9.4990  -13.5080 C.3   201  AMP201      0.3377
     16  N7        28.7070    9.2130  -12.2230 N.2   201  AMP201     -0.2095
     17  C5        27.7440   10.0740  -11.8450 C.2   201  AMP201      0.2526
     18  C6        26.9450   10.3210  -10.6170 C.2   201  AMP201      0.4393
     19  N6        27.1060    9.5750   -9.4970 N.pl3 201  AMP201      0.2180
     20  N1        26.0410   11.3230  -10.6470 N.2   201  AMP201      0.0021
     21  C2        25.8660   12.0770  -11.7470 C.3   201  AMP201      0.5254
     22  N3        26.5500   11.9100  -12.8930 N.2   201  AMP201     -0.0055
     23  C4        27.4910   10.9410  -13.0070 C.2   201  AMP201      0.3518
@<TRIPOS>BOND
     1     3     1    2
     2     1     5    1
     3     1     4    1
     4     1     2    1
     5     5     6    1
     6     6     7    1
     7     7     8    1
     8     7     9    1
     9    10     9    1
    10     8    13    1
    11    12    11    1
    12     9    11    1
    13    11    13    1
    14    13    14    1
    15    14    15    1
    16    14    23    1
    17    15    16    1
    18    23    22    2
    19    23    17    1
    20    22    21    1
    21    16    17    2
    22    17    18    1
    23    21    20    1
    24    20    18    2
    25    18    19    1
