@<TRIPOS>MOLECULE
4itr_GDP_C_1.pdb
 28 30 0 0 0
SMALL
GASTEIGER

@<TRIPOS>ATOM
      1  PB        25.8680   -1.7610   -4.7830 P.3   202  GDP202      0.5373
      2  O1B       24.8010   -0.8250   -5.2880 O.3   202  GDP202     -0.1143
      3  O2B       26.0700   -2.8870   -5.7620 O.2   202  GDP202     -0.2221
      4  O3B       25.4450   -2.3260   -3.4520 O.3   202  GDP202     -0.1143
      5  O3A       27.2450   -0.9630   -4.5880 O.3   202  GDP202     -0.2261
      6  PA        28.3990   -0.9610   -5.7080 P.3   202  GDP202      0.2231
      7  O1A       27.8580   -0.6470   -7.0790 O.2   202  GDP202     -0.5169
      8  O2A       29.1250   -2.2820   -5.7120 O.3   202  GDP202     -0.4370
      9  O5'       29.3620    0.2130   -5.1840 O.3   202  GDP202     -0.3111
     10  C5'       28.9730    1.5750   -5.3630 C.3   202  GDP202      0.1813
     11  C4'       30.1670    2.4950   -5.1360 C.3   202  GDP202      0.1799
     12  O4'       30.8510    2.1170   -3.9380 O.3   202  GDP202     -0.3326
     13  C3'       31.1590    2.3810   -6.2820 C.3   202  GDP202      0.2158
     14  O3'       31.4770    3.6870   -6.7760 O.3   202  GDP202     -0.2175
     15  C2'       32.3960    1.7450   -5.6850 C.3   202  GDP202      0.2310
     16  O2'       33.5700    2.3850   -6.1900 O.3   202  GDP202     -0.2158
     17  C1'       32.2520    1.9660   -4.1870 C.3   202  GDP202      0.2293
     18  N9        32.7890    0.8260   -3.4000 N.pl3 202  GDP202     -0.2354
     19  C8        32.3290   -0.4420   -3.3650 C.3   202  GDP202      0.2246
     20  N7        33.0670   -1.2080   -2.5190 N.2   202  GDP202     -0.2322
     21  C5        34.0190   -0.4200   -1.9860 C.2   202  GDP202      0.2182
     22  C6        35.1330   -0.5800   -1.0210 C.1   202  GDP202      0.2372
     23  O6        35.3690   -1.6800   -0.4790 O.2   202  GDP202     -0.2069
     24  N1        35.8850    0.4910   -0.7430 N.2   202  GDP202     -0.2485
     25  C2        35.6560    1.6890   -1.3100 C.1   202  GDP202      0.2531
     26  N2        36.4620    2.7250   -0.9790 N.pl3 202  GDP202     -0.0226
     27  N3        34.6580    1.9090   -2.2000 N.2   202  GDP202     -0.3074
     28  C4        33.8250    0.9140   -2.5680 C.2   202  GDP202      0.2300
@<TRIPOS>BOND
     1     7     6    2
     2    14    13    1
     3    13    15    1
     4    13    11    1
     5    16    15    1
     6     3     1    2
     7     8     6    1
     8     6     9    1
     9     6     5    1
    10    15    17    1
    11    10     9    1
    12    10    11    1
    13     2     1    1
    14    11    12    1
    15     1     5    1
    16     1     4    1
    17    17    12    1
    18    17    18    1
    19    18    19    1
    20    18    28    1
    21    19    20    1
    22    28    27    2
    23    28    21    1
    24    20    21    2
    25    27    25    2
    26    21    22    1
    27    25    26    1
    28    25    24    2
    29    22    24    2
    30    22    23    2
