@<TRIPOS>MOLECULE
4iu0_ABH_A_1.pdb
 13 12 0 0 0
SMALL
GASTEIGER

@<TRIPOS>ATOM
      1  N         13.0110  -21.4600    6.7250 N.3   403  ABH403      0.0000
      2  CA        12.8400  -21.5700    8.1840 C.3   403  ABH403      0.0000
      3  C         13.1990  -22.9740    8.6490 C.2   403  ABH403      0.0000
      4  O         13.4870  -23.8350    7.8410 O.co2 403  ABH403      0.0000
      5  OT        13.2050  -23.2640    9.9570 O.co2 403  ABH403      0.0000
      6  CB        11.4010  -21.1860    8.6050 C.3   403  ABH403      0.0000
      7  CG        10.3420  -22.0790    7.9180 C.3   403  ABH403      0.0000
      8  CD         8.9320  -21.6390    8.3360 C.3   403  ABH403      0.0000
      9  CE         7.9010  -22.7100    7.9230 C.3   403  ABH403      0.0000
     10  B          6.4790  -22.0460    7.5370 B     403  ABH403      0.0000
     11  O2         5.5300  -23.0340    7.4370 O.3   403  ABH403      0.0000
     12  O1         6.5890  -21.4030    6.3280 O.3   403  ABH403      0.0000
     13  O3         6.0850  -21.1420    8.5000 O.3   403  ABH403      0.0000
@<TRIPOS>BOND
     1    12    10    1
     2     1     2    1
     3    11    10    1
     4    10     9    1
     5    10    13    1
     6     4     3   ar
     7     7     8    1
     8     7     6    1
     9     9     8    1
    10     2     6    1
    11     2     3    1
    12     3     5   ar
