@<TRIPOS>MOLECULE
4iu1_NNH_A_1.pdb
 12 11 0 0 0
SMALL
GASTEIGER

@<TRIPOS>ATOM
      1  N         12.2700  -22.2170   31.1380 N.3   403  NNH403     -0.1207
      2  CA        12.6090  -22.2880   29.7000 C.3   403  NNH403      0.1979
      3  C         13.8210  -23.2120   29.5080 C.2   403  NNH403      0.3820
      4  O         14.4350  -22.9860   28.3200 O.co2 403  NNH403     -0.2440
      5  CB        12.7680  -20.8570   29.1330 C.3   403  NNH403      0.0775
      6  CG        13.8440  -19.9700   29.7970 C.3   403  NNH403      0.2225
      7  ND        13.8510  -18.6540   29.1140 N.pl3 403  NNH403     -0.0870
      8  CE        14.5890  -17.6420   29.3650 C.2   403  NNH403      0.5283
      9  NH1       15.0400  -17.4570   30.5330 N.4   403  NNH403      0.1134
     10  NH2       14.8610  -16.8080   28.4350 N.pl3 403  NNH403      0.1348
     11  OH1       15.7890  -16.4180   30.8120 O.3   403  NNH403      0.0294
     12  OXT       14.1940  -24.0530   30.3020 O.co2 403  NNH403     -0.2440
@<TRIPOS>BOND
     1     4     3   ar
     2    10     8    2
     3     7     8    1
     4     7     6    1
     5     5     2    1
     6     5     6    1
     7     8     9    1
     8     3     2    1
     9     3    12   ar
    10     2     1    1
    11     9    11    1
