@<TRIPOS>MOLECULE
4iu4_S2C_A_1.pdb
 13 12 0 0 0
SMALL
GASTEIGER

@<TRIPOS>ATOM
      1  OXT       13.7710  -23.9470   -7.2620 O.co2 405  S2C405      0.0000
      2  N         11.4330  -22.7310   -6.4150 N.3   405  S2C405      0.0000
      3  CA        12.0580  -22.2560   -7.6270 C.3   405  S2C405      0.0000
      4  C         13.1600  -23.2400   -8.0250 C.2   405  S2C405      0.0000
      5  O         13.3860  -23.2460   -9.3620 O.co2 405  S2C405      0.0000
      6  CB        12.4690  -20.7960   -7.3720 C.3   405  S2C405      0.0000
      7  SG        14.1270  -20.3730   -8.0110 S.3   405  S2C405      0.0000
      8  CD        14.2420  -18.6390   -7.4660 C.3   405  S2C405      0.0000
      9  CE        15.5840  -18.0230   -7.8530 C.3   405  S2C405      0.0000
     10  B         15.6790  -16.5140   -7.3680 B     405  S2C405      0.0000
     11  O1        15.0130  -16.3660   -5.8330 O.3   405  S2C405      0.0000
     12  O2        17.2680  -16.0170   -7.2820 O.3   405  S2C405      0.0000
     13  O3        14.8320  -15.5080   -8.4020 O.3   405  S2C405      0.0000
@<TRIPOS>BOND
     1     5     4   ar
     2    13    10    1
     3     4     3    1
     4     4     1   ar
     5     7     8    1
     6     7     6    1
     7     9     8    1
     8     9    10    1
     9     3     6    1
    10     3     2    1
    11    10    12    1
    12    10    11    1
