@<TRIPOS>MOLECULE
4iun_THP_A_1.pdb
 25 26 0 0 0
SMALL
GASTEIGER

@<TRIPOS>ATOM
      1  P2        17.9100    8.7940    6.4500 P.3   202  THP202      0.5327
      2  O4P       17.7730    7.2790    6.4240 O.2   202  THP202     -0.2224
      3  O5P       16.6620    9.5680    6.8710 O.3   202  THP202     -0.1145
      4  O6P       19.0650    9.2480    7.3600 O.3   202  THP202     -0.1145
      5  P1        20.7420   13.3710    2.0040 P.3   202  THP202      0.5326
      6  O1P       20.0460   14.0400    0.8390 O.2   202  THP202     -0.2224
      7  O2P       22.2730   13.0930    1.7880 O.3   202  THP202     -0.1145
      8  O3P       20.5140   14.0330    3.2690 O.3   202  THP202     -0.1145
      9  O5'       18.1840    9.1800    4.9630 O.3   202  THP202     -0.2675
     10  C5'       18.1450   10.5210    4.4450 C.3   202  THP202      0.1857
     11  C4'       18.6230   10.4450    3.0560 C.3   202  THP202      0.1748
     12  O4'       17.6650    9.7470    2.3200 O.3   202  THP202     -0.3340
     13  C3'       18.7580   11.7800    2.4300 C.3   202  THP202      0.1600
     14  O3'       20.1410   11.8770    2.0640 O.3   202  THP202     -0.2700
     15  C2'       17.9730   11.6710    1.1600 C.3   202  THP202      0.0847
     16  C1'       17.6520   10.2060    1.0290 C.3   202  THP202      0.2089
     17  N1        16.3280   10.0080    0.4750 N.am  202  THP202     -0.1794
     18  C2        16.1450   10.1790   -0.8730 C.1   202  THP202      0.2844
     19  O2        17.0990   10.5210   -1.6200 O.2   202  THP202     -0.1918
     20  N3        14.9420    9.9750   -1.4330 N.2   202  THP202     -0.2455
     21  C4        13.8800    9.6630   -0.6920 C.1   202  THP202      0.2134
     22  O4        12.8030    9.4990   -1.2380 O.2   202  THP202     -0.2088
     23  C5        14.0350    9.3870    0.7260 C.2   202  THP202      0.0891
     24  C5M       12.8850    8.9840    1.5730 C.3   202  THP202      0.0462
     25  C6        15.2990    9.6140    1.2550 C.2   202  THP202      0.0877
@<TRIPOS>BOND
     1    19    18    2
     2    20    18    2
     3    20    21    2
     4    22    21    2
     5    18    17   am
     6    21    23    1
     7    17    16    1
     8    17    25    1
     9    23    25    2
    10    23    24    1
    11     6     5    2
    12    16    15    1
    13    16    12    1
    14    15    13    1
    15     7     5    1
    16     5    14    1
    17     5     8    1
    18    14    13    1
    19    12    11    1
    20    13    11    1
    21    11    10    1
    22    10     9    1
    23     9     1    1
    24     2     1    2
    25     1     3    1
    26     1     4    1
