@<TRIPOS>MOLECULE
4iuo_QIC_A_1.pdb
 13 13 0 0 0
SMALL
GASTEIGER

@<TRIPOS>ATOM
      1  C1         2.1610   -0.4380    0.3850 C.3   301  QIC301      0.2239
      2  O1         1.1580    0.5740    0.5960 O.3   301  QIC301     -0.2139
      3  C2         3.4970    0.0450    0.9220 C.3   301  QIC301      0.0773
      4  O2         2.5190    1.2680    2.7630 O.3   301  QIC301     -0.2202
      5  C3         3.4560    0.2360    2.4320 C.3   301  QIC301      0.1877
      6  O3         3.0150   -0.7980    4.5500 O.3   301  QIC301     -0.2177
      7  C4         3.0720   -1.0510    3.1440 C.3   301  QIC301      0.2123
      8  O4         1.4210   -2.7990    3.2890 O.3   301  QIC301     -0.2202
      9  C5         1.7370   -1.5680    2.6240 C.3   301  QIC301      0.1877
     10  O5         1.8510    0.2380   -1.8660 O.co2 301  QIC301     -0.2429
     11  C6         1.7790   -1.7410    1.0940 C.3   301  QIC301      0.0773
     12  O6         2.8510   -1.7050   -1.5470 O.co2 301  QIC301     -0.2429
     13  C7         2.2970   -0.6540   -1.1100 C.2   301  QIC301      0.3918
@<TRIPOS>BOND
     1    10    13   ar
     2    12    13   ar
     3    13     1    1
     4     1     2    1
     5     1     3    1
     6     1    11    1
     7     3     5    1
     8    11     9    1
     9     5     4    1
    10     5     7    1
    11     9     7    1
    12     9     8    1
    13     7     6    1
