@<TRIPOS>MOLECULE
4ivf_GSH_A_1.pdb
 20 19 0 0 0
SMALL
GASTEIGER

@<TRIPOS>ATOM
      1  N1         6.7680   94.2520   89.3350 N.3   301  GSH301     -0.1208
      2  CA1        8.0290   94.7730   88.8800 C.3   301  GSH301      0.1948
      3  C1         8.9360   94.8940   90.0210 C.2   301  GSH301      0.3819
      4  O11       10.1610   95.1000   89.8600 O.co2 301  GSH301     -0.2441
      5  O12        8.4770   94.7850   91.1740 O.co2 301  GSH301     -0.2441
      6  CB1        7.8150   96.1200   88.2020 C.3   301  GSH301      0.0402
      7  CG1        8.9650   96.4560   87.3330 C.3   301  GSH301      0.0889
      8  CD1        8.9600   95.5890   86.0890 C.2   301  GSH301      0.2418
      9  OE1        7.9200   95.0440   85.7000 O.2   301  GSH301     -0.2733
     10  N2        10.2420   95.3980   85.3330 N.am  301  GSH301     -0.1968
     11  CA2       10.3080   94.5840   84.1320 C.3   301  GSH301      0.1843
     12  C2        11.1690   93.3770   84.3870 C.2   301  GSH301      0.2627
     13  O2        12.0160   93.3900   85.2770 O.2   301  GSH301     -0.2714
     14  CB2       10.9350   95.3710   83.0750 C.3   301  GSH301      0.0997
     15  SG2        9.9730   96.8170   82.7760 S.3   301  GSH301     -0.0797
     16  N3        11.0170   92.1780   83.5950 N.am  301  GSH301     -0.1917
     17  CA3       11.8800   91.0550   83.9150 C.3   301  GSH301      0.2285
     18  C3        11.9130   90.0900   82.7990 C.2   301  GSH301      0.3865
     19  O31       11.9740   90.4990   81.6150 O.co2 301  GSH301     -0.2437
     20  O32       11.8860   88.8560   83.0580 O.co2 301  GSH301     -0.2437
@<TRIPOS>BOND
     1    19    18   ar
     2    15    14    1
     3    18    20   ar
     4    18    17    1
     5    14    11    1
     6    16    17    1
     7    16    12   am
     8    11    12    1
     9    11    10    1
    10    12    13    2
    11    10     8   am
    12     9     8    2
    13     8     7    1
    14     7     6    1
    15     6     2    1
    16     2     1    1
    17     2     3    1
    18     4     3   ar
    19     3     5   ar
