@<TRIPOS>MOLECULE
4ivm_ACJ_B_1.pdb
 24 25 0 0 0
SMALL
GASTEIGER

@<TRIPOS>ATOM
      1  O3        15.8890   21.4410   45.8640 O.co2 501  ACJ501     -0.2405
      2  C11       16.6500   21.3020   46.8630 C.2   501  ACJ501      0.3895
      3  O2        16.3180   20.4770   47.7470 O.co2 501  ACJ501     -0.2405
      4  C9        18.1440   22.9950   45.9100 C.ar  501  ACJ501      0.0457
      5  C14       18.8230   22.0580   48.0210 C.ar  501  ACJ501      0.1494
      6  C8        19.2690   23.7840   45.9280 C.ar  501  ACJ501      0.1456
      7  N1        18.6870   21.2030   49.1610 N.pl3 501  ACJ501      0.0579
      8  C13       19.9590   22.8440   48.0100 C.ar  501  ACJ501      0.0274
      9  O5        19.6160   21.2300   50.0900 O.2   501  ACJ501     -0.1261
     10  C12       20.1770   23.7060   46.9630 C.ar  501  ACJ501      0.0392
     11  O1        19.5560   24.6420   44.9110 O.3   501  ACJ501     -0.4526
     12  C7        18.5270   25.0160   44.0870 C.ar  501  ACJ501      0.1557
     13  O4        17.6760   20.3960   49.2970 O.2   501  ACJ501     -0.1261
     14  C6        18.3580   24.3660   42.8900 C.ar  501  ACJ501      0.0383
     15  C10       17.9060   22.1220   46.9630 C.ar  501  ACJ501      0.1052
     16  C4        17.7240   26.0870   44.4240 C.ar  501  ACJ501      0.0920
     17  C5        17.3490   24.7810   42.0510 C.ar  501  ACJ501      0.0070
     18  C2        16.5300   25.8380   42.3980 C.ar  501  ACJ501      0.0725
     19 CL1        18.0050   26.8690   45.9350 Cl    501  ACJ501     -0.0791
     20  C3        16.7090   26.5130   43.5910 C.ar  501  ACJ501      0.0183
     21  C1        15.4640   26.2560   41.4460 C.3   501  ACJ501      0.4186
     22  F1        14.3180   26.3990   42.1240 F     501  ACJ501     -0.1659
     23  F2        15.3530   25.3470   40.4560 F     501  ACJ501     -0.1659
     24  F3        15.8570   27.4350   40.9490 F     501  ACJ501     -0.1659
@<TRIPOS>BOND
     1    23    21    1
     2    24    21    1
     3    21    22    1
     4    21    18    1
     5    17    18   ar
     6    17    14   ar
     7    18    20   ar
     8    14    12   ar
     9    20    16   ar
    10    12    16   ar
    11    12    11    1
    12    16    19    1
    13    11     6    1
    14     1     2   ar
    15     4     6   ar
    16     4    15   ar
    17     6    10   ar
    18     2    15    1
    19     2     3   ar
    20    15     5   ar
    21    10     8   ar
    22     8     5   ar
    23     5     7    1
    24     7    13    2
    25     7     9    2
