@<TRIPOS>MOLECULE
4ivo_ACJ_B_1.pdb
 24 25 0 0 0
SMALL
GASTEIGER

@<TRIPOS>ATOM
      1  O3        16.4560  -20.3110  -47.8060 O.co2 501  ACJ501     -0.2405
      2  C11       16.7650  -21.1590  -46.9470 C.2   501  ACJ501      0.3895
      3  O2        16.0120  -21.2600  -45.9430 O.co2 501  ACJ501     -0.2405
      4  C9        18.1990  -22.9380  -46.0510 C.ar  501  ACJ501      0.0457
      5  C14       18.8690  -22.0180  -48.1620 C.ar  501  ACJ501      0.1494
      6  C8        19.2900  -23.7830  -46.1060 C.ar  501  ACJ501      0.1456
      7  N1        18.7560  -21.1450  -49.2870 N.pl3 501  ACJ501      0.0579
      8  C13       19.9640  -22.8650  -48.1810 C.ar  501  ACJ501      0.0274
      9  O5        19.6450  -21.1960  -50.2490 O.2   501  ACJ501     -0.1261
     10  C12       20.1780  -23.7550  -47.1520 C.ar  501  ACJ501      0.0392
     11  O1        19.5510  -24.6620  -45.1080 O.3   501  ACJ501     -0.4526
     12  C7        18.5020  -24.9590  -44.2580 C.ar  501  ACJ501      0.1557
     13  O4        17.7810  -20.3000  -49.3750 O.2   501  ACJ501     -0.1261
     14  C6        18.3730  -24.2600  -43.0660 C.ar  501  ACJ501      0.0383
     15  C10       17.9700  -22.0440  -47.0850 C.ar  501  ACJ501      0.1052
     16  C4        17.6340  -26.0060  -44.5540 C.ar  501  ACJ501      0.0920
     17  C5        17.3590  -24.5890  -42.1890 C.ar  501  ACJ501      0.0070
     18  C2        16.4850  -25.6240  -42.4960 C.ar  501  ACJ501      0.0725
     19 CL1        17.8350  -26.8830  -46.0260 Cl    501  ACJ501     -0.0791
     20  C3        16.6170  -26.3400  -43.6790 C.ar  501  ACJ501      0.0183
     21  C1        15.3900  -25.9630  -41.5410 C.3   501  ACJ501      0.4186
     22  F1        14.2770  -26.2720  -42.2050 F     501  ACJ501     -0.1659
     23  F2        15.1470  -24.9290  -40.7380 F     501  ACJ501     -0.1659
     24  F3        15.7940  -27.0060  -40.8280 F     501  ACJ501     -0.1659
@<TRIPOS>BOND
     1     9     7    2
     2    13     7    2
     3     7     5    1
     4     8     5   ar
     5     8    10   ar
     6     5    15   ar
     7     1     2   ar
     8    10     6   ar
     9    15     2    1
    10    15     4   ar
    11     2     3   ar
    12     6     4   ar
    13     6    11    1
    14    19    16    1
    15    11    12    1
    16    16    12   ar
    17    16    20   ar
    18    12    14   ar
    19    20    18   ar
    20    14    17   ar
    21    18    17   ar
    22    18    21    1
    23    22    21    1
    24    21    24    1
    25    21    23    1
