@<TRIPOS>MOLECULE
4ivp_I51_A_1.pdb
 15 15 0 0 0
SMALL
GASTEIGER

@<TRIPOS>ATOM
      1  N1        46.5170   25.5340   54.3830 N.2   401  I51401     -0.3113
      2  O1        45.2910   27.2020   55.3320 O.2   401  I51401     -0.1745
      3  O2        43.2100   24.5760   52.2970 O.2   401  I51401     -0.2129
      4  N2        44.2190   25.9030   53.7960 N.2   401  I51401     -0.2366
      5  C1        45.3280   26.2700   54.5350 C.1   401  I51401      0.3649
      6  C2        44.2720   24.8210   52.9030 C.1   401  I51401      0.1991
      7  C3        45.5270   24.0930   52.7800 C.3   401  I51401      0.1720
      8  C4        45.4810   22.9450   51.8390 C.3   401  I51401      0.0265
      9  C5        46.6300   24.4510   53.5000 C.2   401  I51401      0.1401
     10  C11       47.9080   23.7030   53.3910 C.2   401  I51401      0.0263
     11  C12       49.1360   24.1150   53.0740 C.2   401  I51401      0.0233
     12  C13       49.4120   25.5780   52.9230 C.3   401  I51401      0.2070
     13  C14       50.3980   23.2880   53.2540 C.3   401  I51401      0.2070
     14  O3        49.1690   26.2560   54.1060 O.3   401  I51401     -0.2154
     15  O4        50.1870   22.0030   52.7790 O.3   401  I51401     -0.2154
@<TRIPOS>BOND
     1     8     7    1
     2     3     6    2
     3    15    13    1
     4     7     6    1
     5     7     9    1
     6     6     4    2
     7    12    11    1
     8    12    14    1
     9    11    13    1
    10    11    10    2
    11    10     9    1
    12     9     1    2
    13     4     5    2
    14     1     5    2
    15     5     2    2
