@<TRIPOS>MOLECULE
4ivq_I43_A_1.pdb
 17 17 0 0 0
SMALL
GASTEIGER

@<TRIPOS>ATOM
      1  N1        21.2070   23.2990   64.0150 N.am  501  I43501     -0.2081
      2  C01       20.8510   24.7130   64.3020 C.3   501  I43501      0.1312
      3  O1        23.3170   24.1130   63.5330 O.2   501  I43501     -0.1925
      4  O2        22.7030   19.5880   63.0450 O.2   501  I43501     -0.4473
      5  C02       23.0440   18.6360   64.0480 C.3   501  I43501      0.2553
      6  N2        23.0610   21.8330   63.2870 N.2   501  I43501     -0.2839
      7  C1        22.5920   23.1190   63.5970 C.1   501  I43501      0.2749
      8  C2        22.2030   20.8160   63.3960 C.2   501  I43501      0.2867
      9  C3        20.7950   20.9400   63.8110 C.2   501  I43501      0.0551
     10  C4        19.9060   19.7270   63.9100 C.3   501  I43501      0.0381
     11  C5        20.3310   22.2130   64.1160 C.2   501  I43501      0.0422
     12  C11       18.9180   22.4320   64.5680 C.3   501  I43501      0.0473
     13  C12       17.7830   22.2470   63.8620 C.3   501  I43501      0.0716
     14  C13       16.4930   21.7470   64.4590 C.3   501  I43501      0.1850
     15  C14       17.7330   22.3200   62.3780 C.3   501  I43501      0.1850
     16  O3        16.0100   22.7750   65.2920 O.3   501  I43501     -0.2203
     17  O4        18.7790   21.6150   61.7810 O.3   501  I43501     -0.2203
@<TRIPOS>BOND
     1    17    15    1
     2    15    13    1
     3     4     8    1
     4     4     5    1
     5     6     8    2
     6     6     7    2
     7     8     9    1
     8     3     7    2
     9     7     1   am
    10     9    10    1
    11     9    11    2
    12    13    14    1
    13    13    12    1
    14     1    11    1
    15     1     2    1
    16    11    12    1
    17    14    16    1
