@<TRIPOS>MOLECULE
4ivr_N50_A_1.pdb
 17 17 0 0 0
SMALL
GASTEIGER

@<TRIPOS>ATOM
      1  N1        21.2220   20.9640   64.0700 N.2   501  N50501     -0.3194
      2  O1        22.9070   19.5390   63.3250 O.2   501  N50501     -0.3954
      3  C01       21.7750   18.6630   63.3210 C.3   501  N50501      0.2708
      4  O2        23.9800   23.9640   64.3750 O.2   501  N50501     -0.4499
      5  C02       25.3090   23.7680   63.8770 C.3   501  N50501      0.2550
      6  N2        23.5330   21.7440   63.7990 N.2   501  N50501     -0.2777
      7  C1        22.5330   20.8090   63.7420 C.1   501  N50501      0.3122
      8  C2        23.1030   22.9670   64.2360 C.2   501  N50501      0.2723
      9  C3        21.7880   23.2710   64.6000 C.3   501  N50501      0.1389
     10  C4        21.4180   24.6410   65.0730 C.3   501  N50501      0.0182
     11  C5        20.8610   22.2070   64.4990 C.2   501  N50501      0.1116
     12  C11       19.4590   22.3900   64.8840 C.3   501  N50501      0.0613
     13  C12       18.3640   22.0340   64.1910 C.3   501  N50501      0.0727
     14  C13       17.1010   22.8280   64.3540 C.3   501  N50501      0.1851
     15  C14       18.2340   20.6950   63.5220 C.3   501  N50501      0.1851
     16  O3        16.2380   21.9860   65.0320 O.3   501  N50501     -0.2203
     17  O4        18.8200   19.7190   64.3610 O.3   501  N50501     -0.2203
@<TRIPOS>BOND
     1     3     2    1
     2     2     7    1
     3    15    13    1
     4    15    17    1
     5     7     6    2
     6     7     1    2
     7     6     8    2
     8     5     4    1
     9     1    11    2
    10    13    14    1
    11    13    12    1
    12     8     4    1
    13     8     9    1
    14    14    16    1
    15    11     9    1
    16    11    12    1
    17     9    10    1
