@<TRIPOS>MOLECULE
4iw5_UMC_A_1.pdb
 20 21 0 0 0
SMALL
GASTEIGER

@<TRIPOS>ATOM
      1  P        110.5120   23.5940   31.4890 P.3   901  UMC901      0.5327
      2  N1       108.1480   19.8520   26.7800 N.am  901  UMC901     -0.2018
      3  C2       107.3640   19.7730   25.6960 C.1   901  UMC901      0.2802
      4  O2       107.5220   20.5310   24.7320 O.2   901  UMC901     -0.1922
      5  N3       106.3790   18.8720   25.7020 N.2   901  UMC901     -0.2497
      6  C4       106.2210   17.9160   26.6280 C.1   901  UMC901      0.1941
      7  O4       105.3150   17.0830   26.5660 O.2   901  UMC901     -0.2133
      8  C5       107.1690   17.8610   27.7980 C.3   901  UMC901      0.1579
      9  C6       107.9080   19.1790   28.0560 C.3   901  UMC901      0.1249
     10  C1'      109.3470   20.7150   26.7490 C.3   901  UMC901      0.2048
     11  O1P      109.7990   22.8510   32.5800 O.3   901  UMC901     -0.1145
     12  C2'      109.1010   22.2140   26.9980 C.3   901  UMC901      0.0871
     13  O2P      111.7350   24.3690   31.9550 O.3   901  UMC901     -0.1145
     14  C3'      110.4620   22.6430   27.5580 C.3   901  UMC901      0.1857
     15  O3'      111.4130   22.8330   26.4860 O.3   901  UMC901     -0.2203
     16  O3P      109.6000   24.4510   30.6220 O.2   901  UMC901     -0.2224
     17  C4'      110.8760   21.4430   28.3880 C.3   901  UMC901      0.1774
     18  O4'      110.2850   20.2970   27.7450 O.3   901  UMC901     -0.3342
     19  C5'      110.3540   21.5310   29.8170 C.3   901  UMC901      0.1858
     20  O5'      111.1610   22.4660   30.5180 O.3   901  UMC901     -0.2675
@<TRIPOS>BOND
     1     4     3    2
     2     3     5    2
     3     3     2   am
     4     5     6    2
     5    15    14    1
     6     7     6    2
     7     6     8    1
     8    10     2    1
     9    10    12    1
    10    10    18    1
    11     2     9    1
    12    12    14    1
    13    14    17    1
    14    18    17    1
    15     8     9    1
    16    17    19    1
    17    19    20    1
    18    20     1    1
    19    16     1    2
    20     1    13    1
    21     1    11    1
