@<TRIPOS>MOLECULE
4iw9_GSH_A_1.pdb
 20 19 0 0 0
SMALL
GASTEIGER

@<TRIPOS>ATOM
      1  N1       -30.7350    3.8210   46.8440 N.3   301  GSH301     -0.1208
      2  CA1      -29.8980    4.9880   46.4640 C.3   301  GSH301      0.1948
      3  C1       -28.4730    4.5550   46.3010 C.2   301  GSH301      0.3819
      4  O11      -28.0510    3.6460   47.0440 O.co2 301  GSH301     -0.2441
      5  O12      -27.7530    5.0940   45.4310 O.co2 301  GSH301     -0.2441
      6  CB1      -30.0630    6.0370   47.5480 C.3   301  GSH301      0.0402
      7  CG1      -29.2170    7.2760   47.2580 C.3   301  GSH301      0.0889
      8  CD1      -29.4430    8.3240   48.3180 C.2   301  GSH301      0.2418
      9  OE1      -30.1700    8.1210   49.2780 O.2   301  GSH301     -0.2733
     10  N2       -28.7810    9.4570   48.1650 N.am  301  GSH301     -0.1968
     11  CA2      -28.8830   10.4990   49.1680 C.3   301  GSH301      0.1843
     12  C2       -28.8900   11.8570   48.5460 C.2   301  GSH301      0.2627
     13  O2       -28.3610   12.0290   47.4600 O.2   301  GSH301     -0.2714
     14  CB2      -27.7330   10.4300   50.1670 C.3   301  GSH301      0.0997
     15  SG2      -26.1110   10.0390   49.4690 S.3   301  GSH301     -0.0797
     16  N3       -29.4840   12.8180   49.2500 N.am  301  GSH301     -0.1917
     17  CA3      -29.5550   14.1860   48.7680 C.3   301  GSH301      0.2285
     18  C3       -30.8720   14.4560   48.0810 C.2   301  GSH301      0.3865
     19  O31      -31.2050   15.6420   47.8640 O.co2 301  GSH301     -0.2437
     20  O32      -31.5820   13.4790   47.7550 O.co2 301  GSH301     -0.2437
@<TRIPOS>BOND
     1     5     3   ar
     2     3     2    1
     3     3     4   ar
     4     2     1    1
     5     2     6    1
     6     7     6    1
     7     7     8    1
     8    13    12    2
     9    20    18   ar
    10    19    18   ar
    11    18    17    1
    12    10     8   am
    13    10    11    1
    14     8     9    2
    15    12    11    1
    16    12    16   am
    17    17    16    1
    18    11    14    1
    19    15    14    1
