@<TRIPOS>MOLECULE
4ix2_IMP_A_1.pdb
 23 25 0 0 0
SMALL
GASTEIGER

@<TRIPOS>ATOM
      1  P         30.9830   21.9410   56.4650 P.3   501  IMP501      0.5327
      2  O1P       31.5060   20.6080   56.9500 O.3   501  IMP501     -0.1145
      3  O2P       31.0430   22.2610   54.9920 O.2   501  IMP501     -0.2224
      4  O3P       31.7730   23.0060   57.1760 O.3   501  IMP501     -0.1145
      5  O5'       29.4580   22.1100   56.8950 O.3   501  IMP501     -0.2675
      6  C5'       28.5690   21.0040   56.8920 C.3   501  IMP501      0.1860
      7  C4'       27.6120   21.0520   58.0610 C.3   501  IMP501      0.1823
      8  O4'       26.7240   22.1880   57.9400 O.3   501  IMP501     -0.3135
      9  C3'       26.6650   19.8720   58.1840 C.3   501  IMP501      0.2184
     10  O3'       27.2770   18.7260   58.7440 O.3   501  IMP501     -0.2174
     11  C2'       25.5190   20.4350   59.0210 C.3   501  IMP501      0.2570
     12  O2'       25.8400   20.3990   60.4000 O.3   501  IMP501     -0.2130
     13  C1'       25.4890   21.8970   58.5680 C.3   501  IMP501      0.3186
     14  N9        24.3920   22.1660   57.6220 N.pl3 501  IMP501     -0.1435
     15  C8        24.4290   22.1020   56.2590 C.3   501  IMP501      0.3382
     16  N7        23.2090   22.4320   55.7780 N.2   501  IMP501     -0.2054
     17  C5        22.3920   22.7060   56.8220 C.2   501  IMP501      0.2446
     18  C6        21.0590   23.0960   56.9000 C.1   501  IMP501      0.1792
     19  O6        20.5250   23.6020   55.9130 O.2   501  IMP501     -0.2203
     20  N1        20.4920   23.2990   58.1430 N.2   501  IMP501     -0.1458
     21  C2        21.2380   23.1350   59.2890 C.3   501  IMP501      0.4017
     22  N3        22.5600   22.7540   59.2010 N.2   501  IMP501     -0.0334
     23  C4        23.1280   22.5450   57.9870 C.2   501  IMP501      0.3528
@<TRIPOS>BOND
     1     3     1    2
     2    16    15    1
     3    16    17    2
     4    19    18    2
     5    15    14    1
     6     1     5    1
     7     1     2    1
     8     1     4    1
     9    17    18    1
    10    17    23    1
    11     6     5    1
    12     6     7    1
    13    18    20    2
    14    14    23    1
    15    14    13    1
    16     8     7    1
    17     8    13    1
    18    23    22    2
    19     7     9    1
    20    20    21    1
    21     9    10    1
    22     9    11    1
    23    13    11    1
    24    11    12    1
    25    22    21    1
