@<TRIPOS>MOLECULE
4ixq_HEM_f_1.pdb
 43 50 0 0 0
SMALL
GASTEIGER

@<TRIPOS>ATOM
      1  CHA      171.0370  -24.5200  -22.6150 C.2   101  HEM101      0.0000
      2  CHB      173.3330  -28.4870  -21.0360 C.2   101  HEM101      0.0000
      3  CHC      169.6180  -29.4670  -18.0540 C.2   101  HEM101      0.0000
      4  CHD      167.3060  -25.4970  -19.6250 C.2   101  HEM101      0.0000
      5  C1A      171.9670  -25.5120  -22.4380 C.ar  101  HEM101      0.0000
      6  C2A      173.2230  -25.5870  -23.1420 C.ar  101  HEM101      0.0000
      7  C3A      173.8710  -26.6760  -22.7180 C.ar  101  HEM101      0.0000
      8  C4A      173.0370  -27.3300  -21.7230 C.ar  101  HEM101      0.0000
      9  CMA      175.2590  -27.1530  -23.2020 C.3   101  HEM101      0.0000
     10  CAA      173.6850  -24.5590  -24.1970 C.3   101  HEM101      0.0000
     11  CBA      173.1210  -24.9730  -25.5540 C.3   101  HEM101      0.0000
     12  CGA      173.1570  -23.8290  -26.5360 C.2   101  HEM101      0.0000
     13  O1A      172.8530  -24.0730  -27.7320 O.co2 101  HEM101      0.0000
     14  O2A      173.4840  -22.6820  -26.1360 O.co2 101  HEM101      0.0000
     15  C1B      172.5340  -29.1000  -20.0930 C.2   101  HEM101      0.0000
     16  C2B      172.8520  -30.3150  -19.3760 C.2   101  HEM101      0.0000
     17  C3B      171.8490  -30.6030  -18.5540 C.2   101  HEM101      0.0000
     18  C4B      170.8310  -29.5700  -18.7110 C.2   101  HEM101      0.0000
     19  CMB      174.1330  -31.1570  -19.5160 C.3   101  HEM101      0.0000
     20  CAB      171.8740  -31.8480  -17.6340 C.2   101  HEM101      0.0000
     21  CBB      170.8540  -32.1880  -16.8440 C.2   101  HEM101      0.0000
     22  C1C      168.6650  -28.4780  -18.2170 C.ar  101  HEM101      0.0000
     23  C2C      167.3910  -28.3810  -17.5180 C.ar  101  HEM101      0.0000
     24  C3C      166.7550  -27.2780  -17.9600 C.ar  101  HEM101      0.0000
     25  C4C      167.6120  -26.6540  -18.9450 C.ar  101  HEM101      0.0000
     26  CMC      166.9090  -29.4040  -16.4610 C.3   101  HEM101      0.0000
     27  CAC      165.3740  -26.6760  -17.5800 C.2   101  HEM101      0.0000
     28  CBC      164.5320  -27.1910  -16.6800 C.2   101  HEM101      0.0000
     29  C1D      168.0800  -24.8620  -20.5680 C.2   101  HEM101      0.0000
     30  C2D      167.7140  -23.6420  -21.2570 C.2   101  HEM101      0.0000
     31  C3D      168.8850  -23.3440  -22.1960 C.2   101  HEM101      0.0000
     32  C4D      169.8340  -24.4070  -21.9690 C.2   101  HEM101      0.0000
     33  CMD      166.4200  -22.8150  -21.0950 C.3   101  HEM101      0.0000
     34  CAD      169.0330  -22.1570  -23.1680 C.3   101  HEM101      0.0000
     35  CBD      169.2920  -20.9030  -22.3460 C.3   101  HEM101      0.0000
     36  CGD      170.7330  -20.5040  -22.5040 C.2   101  HEM101      0.0000
     37  O1D      171.3980  -21.0180  -23.4390 O.co2 101  HEM101      0.0000
     38  O2D      171.2150  -19.6720  -21.6950 O.co2 101  HEM101      0.0000
     39  NA       171.8800  -26.5880  -21.5780 N.ar  101  HEM101      0.0000
     40  NB       171.2920  -28.6730  -19.6620 N.2   101  HEM101      0.0000
     41  NC       168.7620  -27.4050  -19.0800 N.ar  101  HEM101      0.0000
     42  ND       169.3300  -25.2810  -21.0120 N.2   101  HEM101      0.0000
     43 FE        170.3180  -26.9920  -20.3300 Fe    101  HEM101      0.0000
@<TRIPOS>BOND
     1    13    12   ar
     2    12    14   ar
     3    12    11    1
     4    11    10    1
     5    10     6    1
     6    37    36   ar
     7     9     7    1
     8    34    35    1
     9    34    31    1
    10     6     7   ar
    11     6     5   ar
    12     7     8   ar
    13     1     5    2
    14     1    32    1
    15    36    35    1
    16    36    38   ar
    17     5    39   ar
    18    31    32    1
    19    31    30    2
    20    32    42    2
    21     8    39   ar
    22     8     2    2
    23    39    43    1
    24    30    33    1
    25    30    29    1
    26     2    15    1
    27    42    29    1
    28    42    43    1
    29    29     4    2
    30    43    40    1
    31    43    41    1
    32    15    40    2
    33    15    16    1
    34    40    18    1
    35     4    25    1
    36    19    16    1
    37    16    17    2
    38    41    25   ar
    39    41    22   ar
    40    25    24   ar
    41    18    17    1
    42    18     3    2
    43    17    20    1
    44    22     3    1
    45    22    23   ar
    46    24    27    1
    47    24    23   ar
    48    20    21    2
    49    27    28    2
    50    23    26    1
