@<TRIPOS>MOLECULE
4ixr_HEM_f_1.pdb
 43 50 0 0 0
SMALL
GASTEIGER

@<TRIPOS>ATOM
      1  CHA      -39.1320  -24.3390   22.6590 C.2   101  HEM101      0.0000
      2  CHB      -41.4850  -28.3010   21.0940 C.2   101  HEM101      0.0000
      3  CHC      -37.7550  -29.3040   18.1140 C.2   101  HEM101      0.0000
      4  CHD      -35.3880  -25.3430   19.6710 C.2   101  HEM101      0.0000
      5  C1A      -40.0840  -25.3250   22.4900 C.2   101  HEM101      0.0000
      6  C2A      -41.3480  -25.3970   23.1900 C.2   101  HEM101      0.0000
      7  C3A      -42.0080  -26.4810   22.7720 C.2   101  HEM101      0.0000
      8  C4A      -41.1810  -27.1440   21.7800 C.2   101  HEM101      0.0000
      9  CMA      -43.4020  -26.9410   23.2600 C.3   101  HEM101      0.0000
     10  CAA      -41.8160  -24.3790   24.2470 C.3   101  HEM101      0.0000
     11  CBA      -41.2550  -24.8480   25.5870 C.3   101  HEM101      0.0000
     12  CGA      -41.2750  -23.7250   26.5870 C.2   101  HEM101      0.0000
     13  O1A      -40.9290  -23.9770   27.7690 O.co2 101  HEM101      0.0000
     14  O2A      -41.6350  -22.5830   26.2010 O.co2 101  HEM101      0.0000
     15  C1B      -40.6850  -28.9180   20.1540 C.ar  101  HEM101      0.0000
     16  C2B      -41.0100  -30.1290   19.4370 C.ar  101  HEM101      0.0000
     17  C3B      -40.0020  -30.4240   18.6170 C.ar  101  HEM101      0.0000
     18  C4B      -38.9740  -29.3980   18.7720 C.ar  101  HEM101      0.0000
     19  CMB      -42.3040  -30.9530   19.5900 C.3   101  HEM101      0.0000
     20  CAB      -40.0170  -31.6650   17.6910 C.2   101  HEM101      0.0000
     21  CBB      -38.9660  -32.0240   16.9500 C.2   101  HEM101      0.0000
     22  C1C      -36.7870  -28.3270   18.2690 C.2   101  HEM101      0.0000
     23  C2C      -35.5130  -28.2430   17.5710 C.2   101  HEM101      0.0000
     24  C3C      -34.8690  -27.1430   18.0130 C.2   101  HEM101      0.0000
     25  C4C      -35.7120  -26.5030   18.9960 C.2   101  HEM101      0.0000
     26  CMC      -35.0390  -29.2710   16.5180 C.3   101  HEM101      0.0000
     27  CAC      -33.4880  -26.5450   17.6390 C.2   101  HEM101      0.0000
     28  CBC      -32.6570  -27.0490   16.7270 C.2   101  HEM101      0.0000
     29  C1D      -36.1490  -24.6890   20.6150 C.ar  101  HEM101      0.0000
     30  C2D      -35.7770  -23.4690   21.3050 C.ar  101  HEM101      0.0000
     31  C3D      -36.9530  -23.1620   22.2430 C.ar  101  HEM101      0.0000
     32  C4D      -37.9150  -24.2220   22.0180 C.ar  101  HEM101      0.0000
     33  CMD      -34.4760  -22.6510   21.1430 C.3   101  HEM101      0.0000
     34  CAD      -37.0990  -21.9690   23.2130 C.3   101  HEM101      0.0000
     35  CBD      -37.3880  -20.7180   22.3890 C.3   101  HEM101      0.0000
     36  CGD      -38.8330  -20.3080   22.5160 C.2   101  HEM101      0.0000
     37  O1D      -39.5280  -20.8140   23.4330 O.co2 101  HEM101      0.0000
     38  O2D      -39.2910  -19.4690   21.6960 O.co2 101  HEM101      0.0000
     39  NA       -40.0150  -26.4090   21.6350 N.2   101  HEM101      0.0000
     40  NB       -39.4370  -28.5000   19.7220 N.ar  101  HEM101      0.0000
     41  NC       -36.8670  -27.2470   19.1270 N.2   101  HEM101      0.0000
     42  ND       -37.4050  -25.0950   21.0600 N.ar  101  HEM101      0.0000
     43 FE        -38.4180  -26.8200   20.3700 Fe    101  HEM101      0.0000
@<TRIPOS>BOND
     1    26    23    1
     2    28    27    2
     3    21    20    2
     4    23    24    2
     5    23    22    1
     6    27    24    1
     7    20    17    1
     8    24    25    1
     9     3    22    2
    10     3    18    1
    11    22    41    1
    12    17    18   ar
    13    17    16   ar
    14    18    40   ar
    15    25    41    2
    16    25     4    1
    17    41    43    1
    18    16    19    1
    19    16    15   ar
    20     4    29    2
    21    40    15   ar
    22    40    43    1
    23    15     2    1
    24    43    42    1
    25    43    39    1
    26    29    42   ar
    27    29    30   ar
    28    42    32   ar
    29     2     8    2
    30    33    30    1
    31    30    31   ar
    32    39     8    1
    33    39     5    2
    34    38    36   ar
    35     8     7    1
    36    32    31   ar
    37    32     1    2
    38    31    34    1
    39    35    36    1
    40    35    34    1
    41     5     1    1
    42     5     6    1
    43    36    37   ar
    44     7     6    2
    45     7     9    1
    46     6    10    1
    47    10    11    1
    48    11    12    1
    49    14    12   ar
    50    12    13   ar
