@<TRIPOS>MOLECULE
4ixt_1H1_A_1.pdb
 11 10 0 0 0
SMALL
GASTEIGER

@<TRIPOS>ATOM
      1  O2        70.3690   32.7980   18.6830 O.2   301  1H1301     -0.2500
      2  C3        70.4080   33.4000   17.6200 C.2   301  1H1301      0.3196
      3  O1        69.1570   33.6660   16.9240 O.3   301  1H1301     -0.4484
      4  C2        67.9650   33.8110   17.6960 C.3   301  1H1301      0.2086
      5  C1        67.0930   32.6000   17.4670 C.3   301  1H1301      0.0513
      6  C4        71.7290   33.8660   17.0480 C.3   301  1H1301      0.1434
      7  C5        71.8520   33.4680   15.5770 C.3   301  1H1301      0.1782
      8  O3        71.5880   32.0640   15.4500 O.3   301  1H1301     -0.2214
      9  C6        73.2610   33.7630   15.0740 C.3   301  1H1301      0.1387
     10  C7        73.5160   35.2150   14.9950 C.1   301  1H1301      0.0759
     11  N         73.7750   36.3390   14.8980 N.1   301  1H1301     -0.1958
@<TRIPOS>BOND
     1    11    10    3
     2    10     9    1
     3     9     7    1
     4     8     7    1
     5     7     6    1
     6     3     2    1
     7     3     4    1
     8     6     2    1
     9     5     4    1
    10     2     1    2
