@<TRIPOS>MOLECULE
4iz8_THP_A_1.pdb
 25 26 0 0 0
SMALL
GASTEIGER

@<TRIPOS>ATOM
      1  P2        15.7020   10.8550   42.8510 P.3   201  THP201      0.5327
      2  O4P       15.6790    9.4190   43.0630 O.2   201  THP201     -0.2224
      3  O5P       14.5050   11.6160   43.2790 O.3   201  THP201     -0.1145
      4  O6P       16.9450   11.5630   43.3310 O.3   201  THP201     -0.1145
      5  P1        18.9270   14.4250   38.8500 P.3   201  THP201      0.5326
      6  O1P       19.8870   14.8520   37.7510 O.2   201  THP201     -0.2224
      7  O2P       18.3160   15.3980   39.7820 O.3   201  THP201     -0.1145
      8  O3P       19.5370   13.2830   39.6510 O.3   201  THP201     -0.1145
      9  O5'       15.6820   10.9260   41.2130 O.3   201  THP201     -0.2675
     10  C5'       15.6820   12.2330   40.5730 C.3   201  THP201      0.1857
     11  C4'       16.6200   12.1420   39.3840 C.3   201  THP201      0.1748
     12  O4'       16.2720   11.0270   38.6420 O.3   201  THP201     -0.3340
     13  C3'       16.6160   13.3970   38.4520 C.3   201  THP201      0.1600
     14  O3'       17.9500   13.6520   37.9360 O.3   201  THP201     -0.2700
     15  C2'       15.7950   12.8530   37.3240 C.3   201  THP201      0.0847
     16  C1'       15.9460   11.3330   37.3140 C.3   201  THP201      0.2089
     17  N1        14.6500   10.7560   36.8810 N.am  201  THP201     -0.1794
     18  C2        14.2620   10.5630   35.5170 C.1   201  THP201      0.2844
     19  O2        15.1380   10.8640   34.5780 O.2   201  THP201     -0.1918
     20  N3        13.0830   10.0840   35.0950 N.2   201  THP201     -0.2455
     21  C4        12.1420    9.7430   36.0590 C.1   201  THP201      0.2134
     22  O4        11.0710    9.3550   35.6570 O.2   201  THP201     -0.2088
     23  C5        12.4860    9.9540   37.4390 C.2   201  THP201      0.0891
     24  C5M       11.4120    9.5890   38.4160 C.3   201  THP201      0.0462
     25  C6        13.7440   10.4150   37.8350 C.2   201  THP201      0.0877
@<TRIPOS>BOND
     1    19    18    2
     2    20    18    2
     3    20    21    2
     4    18    17   am
     5    22    21    2
     6    21    23    1
     7    17    16    1
     8    17    25    1
     9    16    15    1
    10    16    12    1
    11    15    13    1
    12    23    25    2
    13    23    24    1
    14     6     5    2
    15    14    13    1
    16    14     5    1
    17    13    11    1
    18    12    11    1
    19     5     8    1
    20     5     7    1
    21    11    10    1
    22    10     9    1
    23     9     1    1
    24     1     2    2
    25     1     3    1
    26     1     4    1
