@<TRIPOS>MOLECULE
4iz9_APC_A_1.pdb
 30 32 0 0 0
SMALL
GASTEIGER

@<TRIPOS>ATOM
      1  PG        11.0660   38.2540   11.6760 P.3   402  APC402      0.4006
      2  O2G       10.8570   36.8830   12.2730 O.3   402  APC402     -0.1422
      3  O3G       10.0420   38.7910   10.6940 O.3   402  APC402     -0.1422
      4  PB        12.5880   40.4240   12.8550 P.3   402  APC402      0.3877
      5  O1B       13.0400   40.5510   11.4200 O.2   402  APC402     -0.2545
      6  O2B       12.1650   41.6940   13.5800 O.3   402  APC402     -0.1389
      7  O3B       11.3610   39.3530   12.8490 O.3   402  APC402     -0.2285
      8  PA        15.1970   40.8900   14.4460 P.3   402  APC402      0.3820
      9  O1A       15.8940   41.6420   13.3350 O.2   402  APC402     -0.2548
     10  O2A       14.4820   41.7110   15.4990 O.3   402  APC402     -0.1392
     11  C3A       13.9820   39.6880   13.7770 C.3   402  APC402      0.2357
     12  O5'       16.3420   40.0030   15.1820 O.3   402  APC402     -0.2896
     13  C5'       16.0860   38.9970   16.1800 C.3   402  APC402      0.1836
     14  C4'       17.4430   38.5820   16.7340 C.3   402  APC402      0.1822
     15  O4'       18.1520   39.7880   17.0730 O.3   402  APC402     -0.3135
     16  C3'       17.4200   37.7350   18.0140 C.3   402  APC402      0.2184
     17  O3'       18.5360   36.8250   18.0980 O.3   402  APC402     -0.2174
     18  C2'       17.6710   38.7680   19.0730 C.3   402  APC402      0.2570
     19  O2'       18.1570   38.2170   20.2990 O.3   402  APC402     -0.2130
     20  C1'       18.7350   39.5760   18.3540 C.3   402  APC402      0.3186
     21  N9        19.0830   40.7470   19.1830 N.pl3 402  APC402     -0.1439
     22  C8        18.3290   41.8130   19.4710 C.3   402  APC402      0.3377
     23  N7        19.0380   42.6240   20.2940 N.2   402  APC402     -0.2095
     24  C5        20.2240   42.0370   20.5270 C.2   402  APC402      0.2526
     25  C6        21.3260   42.3890   21.2770 C.2   402  APC402      0.4393
     26  N6        21.3120   43.5610   21.9680 N.pl3 402  APC402      0.2180
     27  N1        22.3960   41.5660   21.3100 N.2   402  APC402      0.0021
     28  C2        22.4030   40.4040   20.6250 C.3   402  APC402      0.5254
     29  N3        21.3390   40.0490   19.8900 N.2   402  APC402     -0.0055
     30  C4        20.2480   40.8520   19.8230 C.2   402  APC402      0.3518
@<TRIPOS>BOND
     1     3     1    1
     2     5     4    2
     3     1     2    1
     4     1     7    1
     5     7     4    1
     6     4     6    1
     7     4    11    1
     8     9     8    2
     9    11     8    1
    10     8    12    1
    11     8    10    1
    12    12    13    1
    13    13    14    1
    14    14    15    1
    15    14    16    1
    16    15    20    1
    17    16    17    1
    18    16    18    1
    19    20    18    1
    20    20    21    1
    21    18    19    1
    22    21    22    1
    23    21    30    1
    24    22    23    1
    25    30    29    2
    26    30    24    1
    27    29    28    1
    28    23    24    2
    29    24    25    1
    30    28    27    1
    31    25    27    2
    32    25    26    1
