@<TRIPOS>MOLECULE
4izg_4OP_A_1.pdb
 11 11 0 0 0
SMALL
GASTEIGER

@<TRIPOS>ATOM
      1  CN1       15.6480   33.1730   41.6270 C.3   416  4OP416     -0.0949
      2  N         14.8190   32.5500   42.6120 N.4   416  4OP416      0.3973
      3  CD        15.0410   31.1210   42.5870 C.3   416  4OP416     -0.0389
      4  CG        13.9280   30.5230   41.7950 C.3   416  4OP416      0.1306
      5  CB        12.9800   31.5980   41.5310 C.3   416  4OP416      0.0215
      6  CA        13.4240   32.7430   42.3630 C.3   416  4OP416      0.0541
      7  C         12.9370   34.0500   41.7520 C.2   416  4OP416      0.3464
      8  OXT       13.4760   35.1740   41.9660 O.co2 416  4OP416     -0.2479
      9  O         11.8890   34.0280   41.0000 O.co2 416  4OP416     -0.2479
     10  OG        14.4170   30.0230   40.6040 O.3   416  4OP416     -0.2254
     11  CN2       15.1450   33.0330   43.9250 C.3   416  4OP416     -0.0949
@<TRIPOS>BOND
     1    10     4    1
     2     9     7   ar
     3     5     4    1
     4     5     6    1
     5     1     2    1
     6     7     8   ar
     7     7     6    1
     8     4     3    1
     9     6     2    1
    10     3     2    1
    11     2    11    1
