@<TRIPOS>MOLECULE
4j0r_1H2_A_1.pdb
 22 24 0 0 0
SMALL
GASTEIGER

@<TRIPOS>ATOM
      1  C4        29.3800   15.6470   -0.9940 C.ar  205  1H2205     -0.0012
      2  C14       26.0090   17.9680   -3.7910 C.ar  205  1H2205     -0.0002
      3  C5        28.0800   15.0940   -1.1510 C.ar  205  1H2205      0.0151
      4  C6        27.2270   14.9920   -0.0710 C.ar  205  1H2205      0.0405
      5  C11       27.8630   16.0610   -4.7090 C.ar  205  1H2205     -0.0015
      6  C7        27.6940   15.4360    1.1840 C.ar  205  1H2205      0.1955
      7  C8        28.9850   15.9750    1.3560 C.ar  205  1H2205      0.0421
      8  C9        27.5930   14.6740   -2.5520 C.3   205  1H2205      0.1967
      9  C10       27.2950   15.9130   -3.4150 C.ar  205  1H2205      0.0119
     10  C12       27.4660   17.1530   -5.5540 C.ar  205  1H2205     -0.0002
     11  C13       26.5180   18.0920   -5.0640 C.ar  205  1H2205     -0.0000
     12  C3        29.7960   16.0860    0.2630 C.ar  205  1H2205      0.0069
     13  O1        28.6100   13.8550   -3.1450 O.3   205  1H2205     -0.2134
     14  C15       26.3650   16.8860   -2.9600 C.ar  205  1H2205     -0.0015
     15  O         26.8850   15.3520    2.2260 O.3   205  1H2205     -0.2866
     16  C2        31.1290   16.6460    0.4310 C.ar  205  1H2205      0.0497
     17  C16       32.2630   16.0670   -0.0170 C.ar  205  1H2205      0.1544
     18  C17       32.4610   14.6970   -0.5630 C.3   205  1H2205      0.0754
     19  O2        33.3720   16.9180    0.1810 O.2   205  1H2205     -0.3581
     20  N         32.8010   18.0980    0.8520 N.ar  205  1H2205     -0.0817
     21  C1        31.4440   17.9120    1.0110 C.ar  205  1H2205      0.1006
     22  C         30.4610   18.8280    1.6960 C.3   205  1H2205      0.0556
@<TRIPOS>BOND
     1    10    11   ar
     2    10     5   ar
     3    11     2   ar
     4     5     9   ar
     5     2    14   ar
     6     9    14   ar
     7     9     8    1
     8    13     8    1
     9     8     3    1
    10     3     1   ar
    11     3     4   ar
    12     1    12   ar
    13    18    17    1
    14     4     6   ar
    15    17    19   ar
    16    17    16   ar
    17    19    20   ar
    18    12    16    1
    19    12     7   ar
    20    16    21   ar
    21    20    21   ar
    22    21    22    1
    23     6     7   ar
    24     6    15    1
