@<TRIPOS>MOLECULE
4j0s_1H3_A_1.pdb
 22 24 0 0 0
SMALL
GASTEIGER

@<TRIPOS>ATOM
      1  C4        29.8400   15.7380   -1.0260 C.ar  205  1H3205     -0.0012
      2  C14       26.3940   17.7790   -3.7460 C.ar  205  1H3205     -0.0002
      3  C5        28.5520   15.1470   -1.2520 C.ar  205  1H3205      0.0151
      4  C6        27.6660   15.0400   -0.2240 C.ar  205  1H3205      0.0405
      5  C11       28.2090   15.9720   -4.7670 C.ar  205  1H3205     -0.0015
      6  C7        28.0730   15.4950    1.0820 C.ar  205  1H3205      0.1955
      7  C8        29.3020   16.0550    1.3330 C.ar  205  1H3205      0.0421
      8  C9        28.1800   14.6450   -2.6530 C.3   205  1H3205      0.1967
      9  C10       27.7110   15.7910   -3.4970 C.ar  205  1H3205      0.0119
     10  C12       27.7690   17.0610   -5.5150 C.ar  205  1H3205     -0.0002
     11  C13       26.8800   17.9510   -5.0010 C.ar  205  1H3205     -0.0000
     12  C3        30.1970   16.1970    0.2570 C.ar  205  1H3205      0.0069
     13  O1        27.2220   13.6040   -2.5460 O.3   205  1H3205     -0.2134
     14  C15       26.8090   16.6900   -3.0080 C.ar  205  1H3205     -0.0015
     15  O         27.1990   15.3930    2.0690 O.3   205  1H3205     -0.2866
     16  C2        31.5050   16.7390    0.4610 C.ar  205  1H3205      0.0497
     17  C16       32.7160   16.1710   -0.0050 C.ar  205  1H3205      0.1544
     18  C17       33.1030   14.8300   -0.5660 C.3   205  1H3205      0.0754
     19  O2        33.7020   17.0330    0.2010 O.2   205  1H3205     -0.3581
     20  N         33.1610   18.1550    0.8670 N.ar  205  1H3205     -0.0817
     21  C1        31.8550   18.0050    1.0580 C.ar  205  1H3205      0.1006
     22  C         30.9660   18.9570    1.8030 C.3   205  1H3205      0.0556
@<TRIPOS>BOND
     1    10    11   ar
     2    10     5   ar
     3    11     2   ar
     4     5     9   ar
     5     2    14   ar
     6     9    14   ar
     7     9     8    1
     8     8    13    1
     9     8     3    1
    10     3     1   ar
    11     3     4   ar
    12     1    12   ar
    13    18    17    1
    14     4     6   ar
    15    17    19   ar
    16    17    16   ar
    17    19    20   ar
    18    12    16    1
    19    12     7   ar
    20    16    21   ar
    21    20    21   ar
    22    21    22    1
    23     6     7   ar
    24     6    15    1
