@<TRIPOS>MOLECULE
4j1m_THP_A_1.pdb
 25 26 0 0 0
SMALL
GASTEIGER

@<TRIPOS>ATOM
      1  P2        17.8920   11.0670    4.7890 P.3   201  THP201      0.5327
      2  O4P       17.8820    9.6090    5.0490 O.2   201  THP201     -0.2224
      3  O5P       16.7200   11.7760    5.3720 O.3   201  THP201     -0.1145
      4  O6P       19.1610   11.8160    5.1320 O.3   201  THP201     -0.1145
      5  P1        21.0840   14.7100    0.9140 P.3   201  THP201      0.5326
      6  O1P       22.0260   15.2430   -0.1130 O.2   201  THP201     -0.2224
      7  O2P       21.7990   13.5550    1.6300 O.3   201  THP201     -0.1145
      8  O3P       20.4220   15.7210    1.7440 O.3   201  THP201     -0.1145
      9  O5'       17.7860   11.1600    3.1980 O.3   201  THP201     -0.2675
     10  C5'       17.8630   12.4330    2.5500 C.3   201  THP201      0.1857
     11  C4'       18.8060   12.3910    1.3660 C.3   201  THP201      0.1748
     12  O4'       18.5170   11.2980    0.5360 O.3   201  THP201     -0.3340
     13  C3'       18.6950   13.6350    0.4740 C.3   201  THP201      0.1600
     14  O3'       20.0360   13.9570   -0.0240 O.3   201  THP201     -0.2700
     15  C2'       17.8590   13.1890   -0.6550 C.3   201  THP201      0.0847
     16  C1'       18.1130   11.6840   -0.7560 C.3   201  THP201      0.2089
     17  N1        16.8590   11.0110   -1.0950 N.am  201  THP201     -0.1794
     18  C2        16.5740   10.7670   -2.4700 C.1   201  THP201      0.2844
     19  O2        17.4590   11.1030   -3.2690 O.2   201  THP201     -0.1918
     20  N3        15.4620   10.2250   -2.8670 N.2   201  THP201     -0.2455
     21  C4        14.4710    9.9330   -1.9660 C.1   201  THP201      0.2134
     22  O4        13.3960    9.4840   -2.3170 O.2   201  THP201     -0.2088
     23  C5        14.7190   10.1400   -0.5510 C.2   201  THP201      0.0891
     24  C5M       13.6850    9.8340    0.4930 C.3   201  THP201      0.0462
     25  C6        15.9050   10.7120   -0.1890 C.2   201  THP201      0.0877
@<TRIPOS>BOND
     1    19    18    2
     2    20    18    2
     3    20    21    2
     4    18    17   am
     5    22    21    2
     6    21    23    1
     7    17    16    1
     8    17    25    1
     9    16    15    1
    10    16    12    1
    11    15    13    1
    12    23    25    2
    13    23    24    1
    14     6     5    2
    15    14    13    1
    16    14     5    1
    17    13    11    1
    18    12    11    1
    19     5     7    1
    20     5     8    1
    21    11    10    1
    22    10     9    1
    23     9     1    1
    24     1     2    2
    25     1     4    1
    26     1     3    1
