@<TRIPOS>MOLECULE
4j1o_PBE_A_1.pdb
 10 10 0 0 0
SMALL
GASTEIGER

@<TRIPOS>ATOM
      1  N         14.8650   32.5890   42.2800 N.4   412  PBE412      0.3955
      2  CD        15.0880   31.1620   42.2390 C.3   412  PBE412     -0.0724
      3  CA        13.7510   32.8590   41.3830 C.3   412  PBE412      0.0515
      4  CB        12.9360   31.6350   41.3120 C.3   412  PBE412     -0.0114
      5  CG        13.8640   30.5360   41.6490 C.3   412  PBE412     -0.0238
      6  CE        16.0550   33.2770   41.8280 C.3   412  PBE412     -0.0950
      7  CF        14.5900   32.9670   43.6620 C.3   412  PBE412     -0.0950
      8  C         12.9440   34.0990   41.4420 C.2   412  PBE412      0.3464
      9  O         11.7340   34.0530   41.0890 O.co2 412  PBE412     -0.2479
     10  OXT       13.4010   35.2310   41.7670 O.co2 412  PBE412     -0.2479
@<TRIPOS>BOND
     1     9     8   ar
     2     4     3    1
     3     4     5    1
     4     3     8    1
     5     3     1    1
     6     8    10   ar
     7     5     2    1
     8     6     1    1
     9     2     1    1
    10     1     7    1
