@<TRIPOS>MOLECULE
4j6h_THP_A_1.pdb
 25 26 0 0 0
SMALL
GASTEIGER

@<TRIPOS>ATOM
      1  P2        17.9370   11.1320    4.6730 P.3   201  THP201      0.5327
      2  O4P       17.8770    9.6500    4.8990 O.2   201  THP201     -0.2224
      3  O5P       19.1950   11.8410    5.1320 O.3   201  THP201     -0.1145
      4  O6P       16.7200   11.8760    5.1010 O.3   201  THP201     -0.1145
      5  P1        21.2280   14.5840    0.8030 P.3   201  THP201      0.5326
      6  O1P       22.1460   15.1660   -0.2430 O.2   201  THP201     -0.2224
      7  O2P       21.8770   13.4360    1.5390 O.3   201  THP201     -0.1145
      8  O3P       20.5210   15.5320    1.6580 O.3   201  THP201     -0.1145
      9  O5'       17.8700   11.1820    3.0570 O.3   201  THP201     -0.2675
     10  C5'       17.8790   12.4180    2.3410 C.3   201  THP201      0.1857
     11  C4'       18.9140   12.3120    1.2430 C.3   201  THP201      0.1748
     12  O4'       18.6020   11.1990    0.4320 O.3   201  THP201     -0.3340
     13  C3'       18.8690   13.5290    0.3420 C.3   201  THP201      0.1600
     14  O3'       20.1650   13.8870   -0.2100 O.3   201  THP201     -0.2700
     15  C2'       18.0050   13.0510   -0.8010 C.3   201  THP201      0.0847
     16  C1'       18.2240   11.5420   -0.8580 C.3   201  THP201      0.2089
     17  N1        16.9390   10.9260   -1.1930 N.am  201  THP201     -0.1794
     18  C2        16.6490   10.6600   -2.5570 C.1   201  THP201      0.2844
     19  O2        17.5420   10.9550   -3.4140 O.2   201  THP201     -0.1918
     20  N3        15.4950   10.1800   -2.9390 N.2   201  THP201     -0.2455
     21  C4        14.4690    9.9000   -2.1040 C.1   201  THP201      0.2134
     22  O4        13.3850    9.4740   -2.5080 O.2   201  THP201     -0.2088
     23  C5        14.7520   10.1610   -0.6950 C.2   201  THP201      0.0891
     24  C5M       13.7470    9.8340    0.4030 C.3   201  THP201      0.0462
     25  C6        15.9800   10.6260   -0.3370 C.2   201  THP201      0.0877
@<TRIPOS>BOND
     1    19    18    2
     2    20    18    2
     3    20    21    2
     4    18    17   am
     5    22    21    2
     6    21    23    1
     7    17    16    1
     8    17    25    1
     9    16    15    1
    10    16    12    1
    11    15    13    1
    12    23    25    2
    13    23    24    1
    14     6     5    2
    15    14    13    1
    16    14     5    1
    17    13    11    1
    18    12    11    1
    19     5     7    1
    20     5     8    1
    21    11    10    1
    22    10     9    1
    23     9     1    1
    24     1     2    2
    25     1     4    1
    26     1     3    1
