@<TRIPOS>MOLECULE
4ja1_NGH_B_1.pdb
 21 21 0 0 0
SMALL
GASTEIGER

@<TRIPOS>ATOM
      1  C1         3.9980   -9.5230   -2.4840 C.ar  306  NGH306      0.0230
      2  C2         3.4850   -9.1500   -3.7210 C.ar  306  NGH306      0.0383
      3  C3         2.4020   -8.2820   -3.7910 C.ar  306  NGH306      0.1388
      4  C4         1.8330   -7.7860   -2.6240 C.ar  306  NGH306      0.0383
      5  C5         2.3460   -8.1580   -1.3880 C.ar  306  NGH306      0.0230
      6  C6         3.4290   -9.0270   -1.3170 C.ar  306  NGH306      0.1224
      7  O1         1.8970   -7.9150   -5.0100 O.3   306  NGH306     -0.4714
      8  C7         2.5080   -8.3880   -6.2080 C.3   306  NGH306      0.2525
      9  S1         4.0180   -9.4550    0.1020 S.O2  306  NGH306      0.0637
     10  O2         3.7440   -8.3880    1.0910 O.2   306  NGH306     -0.1528
     11  O3         5.4790   -9.6580   -0.0120 O.2   306  NGH306     -0.1528
     12  N          3.3590  -10.7480    0.5550 N.3   306  NGH306     -0.1460
     13  C9         3.8870  -12.0280    0.1080 C.3   306  NGH306      0.0963
     14  C10        2.2010  -10.7050    1.4350 C.3   306  NGH306      0.1857
     15  C11        0.9390  -10.6880    0.6060 C.2   306  NGH306      0.3015
     16  N1         0.1710   -9.6080    0.7180 N.am  306  NGH306      0.0400
     17  O4        -0.8640   -9.5260    0.0770 O.2   306  NGH306     -0.1531
     18  O5         0.6620  -11.6280   -0.1200 O.2   306  NGH306     -0.2682
     19  C12        4.5460  -12.6350    1.3410 C.3   306  NGH306      0.0178
     20  C13        3.5260  -13.3790    2.1940 C.3   306  NGH306      0.0015
     21  C14        5.2650  -11.5670    2.1570 C.3   306  NGH306      0.0015
@<TRIPOS>BOND
     1     8     7    1
     2     7     3    1
     3     3     2   ar
     4     3     4   ar
     5     2     1   ar
     6     4     5   ar
     7     1     6   ar
     8     5     6   ar
     9     6     9    1
    10    18    15    2
    11    11     9    2
    12    17    16    2
    13     9    12    1
    14     9    10    2
    15    13    12    1
    16    13    19    1
    17    12    14    1
    18    15    16    1
    19    15    14    1
    20    19    21    1
    21    19    20    1
