@<TRIPOS>MOLECULE
4jbx_SK7_A_1.pdb
 16 16 0 0 0
SMALL
GASTEIGER

@<TRIPOS>ATOM
      1  N1        46.4790   25.0620   54.5220 N.am  601  SK7601     -0.2071
      2  C6        47.6220   25.4010   55.4020 C.3   601  SK7601      0.1313
      3  O1        45.2900   26.7880   55.5130 O.2   601  SK7601     -0.1919
      4  O2        43.1290   24.3950   52.3070 O.2   601  SK7601     -0.2088
      5  N2        44.2030   25.5850   53.8890 N.2   601  SK7601     -0.2456
      6  C1        45.3210   25.8700   54.6910 C.1   601  SK7601      0.2823
      7  C2        44.1750   24.5420   52.9440 C.1   601  SK7601      0.2130
      8  C3        45.4010   23.7450   52.8290 C.2   601  SK7601      0.0837
      9  C4        45.3150   22.6620   51.8160 C.3   601  SK7601      0.0458
     10  C5        46.5090   24.0080   53.5930 C.2   601  SK7601      0.0485
     11  C11       47.7450   23.1920   53.4930 C.3   601  SK7601      0.0478
     12  C12       48.8540   23.3920   52.7680 C.3   601  SK7601      0.0716
     13  C14       49.9850   22.3850   52.7930 C.3   601  SK7601      0.1850
     14  C13       49.1910   24.7650   52.2740 C.3   601  SK7601      0.1850
     15  O4        49.9630   21.7240   51.5550 O.3   601  SK7601     -0.2203
     16  O3        50.1560   25.3320   53.1220 O.3   601  SK7601     -0.2203
@<TRIPOS>BOND
     1    15    13    1
     2     9     8    1
     3    14    12    1
     4    14    16    1
     5     4     7    2
     6    12    13    1
     7    12    11    1
     8     8     7    1
     9     8    10    2
    10     7     5    2
    11    11    10    1
    12    10     1    1
    13     5     6    2
    14     1     6   am
    15     1     2    1
    16     6     3    2
