@<TRIPOS>MOLECULE
4jby_FSK_A_1.pdb
 16 16 0 0 0
SMALL
GASTEIGER

@<TRIPOS>ATOM
      1  N1        46.5190   25.1720   54.5990 N.am  601  FSK601     -0.2032
      2  C6        47.6180   25.5430   55.5300 C.3   601  FSK601      0.1316
      3  O1        45.2220   26.7980   55.6080 O.2   601  FSK601     -0.1919
      4  O2        43.2350   24.4580   52.2960 O.2   601  FSK601     -0.2088
      5  N2        44.2420   25.6190   53.9390 N.2   601  FSK601     -0.2456
      6  C1        45.3260   25.9150   54.7680 C.1   601  FSK601      0.2826
      7  C2        44.2650   24.6170   52.9580 C.1   601  FSK601      0.2134
      8  C3        45.5210   23.8930   52.8350 C.2   601  FSK601      0.0878
      9  C4        45.5150   22.8460   51.7890 C.3   601  FSK601      0.0461
     10  C5        46.6050   24.1630   53.6170 C.2   601  FSK601      0.0702
     11  C11       47.8690   23.3930   53.4790 C.2   601  FSK601      0.0127
     12  C12       49.0040   23.8180   52.9140 C.2   601  FSK601      0.0247
     13  C14       49.2370   25.2700   52.5950 C.3   601  FSK601      0.2181
     14  C13       50.2320   22.9760   52.6560 C.3   601  FSK601      0.2071
     15  F         50.1260   25.7400   53.5000 F     601  FSK601     -0.2294
     16  O3        49.8490   21.6340   52.7490 O.3   601  FSK601     -0.2154
@<TRIPOS>BOND
     1     9     8    1
     2     4     7    2
     3    13    12    1
     4    13    15    1
     5    14    16    1
     6    14    12    1
     7     8     7    1
     8     8    10    2
     9    12    11    2
    10     7     5    2
    11    11    10    1
    12    10     1    1
    13     5     6    2
    14     1     6   am
    15     1     2    1
    16     6     3    2
