@<TRIPOS>MOLECULE
4jdw_ARG_A_1.pdb
 20 19 0 0 0
SMALL
GASTEIGER

@<TRIPOS>ATOM
      1  N         45.0870   72.8460   15.0360 N.4   500  ARG500      0.3888
      2  CA        44.5070   72.4690   16.3640 C.3   500  ARG500      0.0404
      3  C         44.0630   73.6920   17.1420 C.2   500  ARG500      0.3448
      4  O         44.6250   74.7900   16.9580 O.co2 500  ARG500     -0.2480
      5  CB        45.5050   71.6650   17.1980 C.3   500  ARG500     -0.0073
      6  CG        45.4210   70.1780   16.9670 C.3   500  ARG500      0.0412
      7  CD        46.6370   69.5050   17.5030 C.3   500  ARG500      0.1737
      8  NE        46.6770   68.1000   17.1210 N.pl3 500  ARG500     -0.2651
      9  CZ        47.7500   67.4760   16.6500 C.cat 500  ARG500      0.3417
     10  NH1       48.8860   68.1290   16.4840 N.pl3 500  ARG500     -0.2918
     11  NH2       47.6910   66.1830   16.3960 N.pl3 500  ARG500     -0.2918
     12  OXT       43.1090   73.5390   17.9070 O.co2 500  ARG500     -0.2480
     13  H1        44.4850   73.5700   14.5850 H     500  ARG500     -0.0885
     14  H2        45.9730   73.3690   15.2180 H     500  ARG500     -0.0885
     15  H3        45.2400   72.0740   14.3670 H     500  ARG500     -0.0885
     16  HE        45.8510   67.6020   17.2440 H     500  ARG500      0.2586
     17 HH11       48.9960   69.1000   16.6800 H     500  ARG500      0.2545
     18 HH12       49.6620   67.5990   16.1400 H     500  ARG500      0.2545
     19 HH21       46.8100   65.7350   16.5490 H     500  ARG500      0.2545
     20 HH22       48.4700   65.6670   16.0470 H     500  ARG500      0.2545
@<TRIPOS>BOND
     1    15     1    1
     2    13     1    1
     3     1    14    1
     4     1     2    1
     5    20    11    1
     6    18    10    1
     7     2     3    1
     8     2     5    1
     9    11    19    1
    10    11     9    2
    11    10     9    1
    12    10    17    1
    13     9     8    1
    14     4     3   ar
    15     6     5    1
    16     6     7    1
    17     8    16    1
    18     8     7    1
    19     3    12   ar
