@<TRIPOS>MOLECULE
4kmb_G4S_1_1.pdb
 15 15 0 0 0
SMALL
GASTEIGER

@<TRIPOS>ATOM
      1  C1        49.7740   -4.8480   25.4660 C.3   222  G4S222      0.1777
      2  C2        50.3090   -3.4570   25.8330 C.3   222  G4S222      0.2141
      3  C3        50.1220   -3.1850   27.3260 C.3   222  G4S222      0.2164
      4  C4        48.6490   -3.3700   27.6850 C.3   222  G4S222      0.2055
      5  C5        48.2110   -4.7820   27.2950 C.3   222  G4S222      0.1801
      6  C6        46.7470   -5.0750   27.6140 C.3   222  G4S222      0.2141
      7  O2        51.6890   -3.3700   25.4930 O.3   222  G4S222     -0.2176
      8  O3        50.5320   -1.8580   27.6290 O.3   222  G4S222     -0.2175
      9  O4        47.8500   -2.3920   26.9920 O.3   222  G4S222     -0.2384
     10  O5        48.4010   -4.9850   25.8720 O.3   222  G4S222     -0.3481
     11  O6        46.6160   -6.2340   28.4280 O.3   222  G4S222     -0.2176
     12  S         46.9680   -1.1750   27.5110 S.3   222  G4S222     -0.0001
     13  O7        46.3760   -0.5990   26.3310 O.2   222  G4S222     -0.3452
     14  O8        47.8900   -0.2940   28.1780 O.2   222  G4S222     -0.3452
     15  O9        46.0000   -1.7620   28.3960 O.3   222  G4S222     -0.2682
@<TRIPOS>BOND
     1     1     2    1
     2     1    10    1
     3     7     2    1
     4     2     3    1
     5    10     5    1
     6    13    12    2
     7     9    12    1
     8     9     4    1
     9     5     6    1
    10     5     4    1
    11     3     8    1
    12     3     4    1
    13    12    14    2
    14    12    15    1
    15     6    11    1
