@<TRIPOS>MOLECULE
4kmb_FUC_1_1.pdb
 10 10 0 0 0
SMALL
GASTEIGER

@<TRIPOS>ATOM
      1  C1        46.7550   -5.3310   21.8750 C.3   224  FUC224      0.1776
      2  C2        45.3130   -5.3540   22.3460 C.3   224  FUC224      0.2141
      3  C3        45.2220   -4.7670   23.7480 C.3   224  FUC224      0.2172
      4  C4        45.8420   -3.3710   23.7730 C.3   224  FUC224      0.2116
      5  C5        47.2480   -3.3720   23.1570 C.3   224  FUC224      0.1483
      6  C6        47.8420   -1.9850   22.9690 C.3   224  FUC224      0.0349
      7  O2        44.8240   -6.6860   22.3500 O.3   224  FUC224     -0.2176
      8  O3        43.8580   -4.6780   24.1190 O.3   224  FUC224     -0.2175
      9  O4        45.0010   -2.4760   23.0590 O.3   224  FUC224     -0.2177
     10  O5        47.2270   -3.9950   21.8610 O.3   224  FUC224     -0.3508
@<TRIPOS>BOND
     1    10     1    1
     2    10     5    1
     3     1     2    1
     4     2     7    1
     5     2     3    1
     6     6     5    1
     7     9     4    1
     8     5     4    1
     9     3     4    1
    10     3     8    1
