@<TRIPOS>MOLECULE
4kmb_MAG_1_1.pdb
 16 16 0 0 0
SMALL
GASTEIGER

@<TRIPOS>ATOM
      1  C1        50.4010   -8.1460   21.3480 C.3   223  MAG223      0.2586
      2  C2        48.9420   -7.7700   21.6480 C.3   223  MAG223      0.1842
      3  C3        48.8750   -6.3940   22.3160 C.3   223  MAG223      0.2094
      4  C4        49.7980   -6.3470   23.5440 C.3   223  MAG223      0.2136
      5  C5        51.2140   -6.7880   23.1620 C.3   223  MAG223      0.1834
      6  C6        52.1560   -6.8810   24.3550 C.3   223  MAG223      0.2142
      7  C7        47.4970   -8.8090   19.9470 C.2   223  MAG223      0.2420
      8  C8        46.7380   -8.5350   18.6580 C.3   223  MAG223      0.0964
      9  N2        48.1520   -7.7520   20.4260 N.am  223  MAG223     -0.1992
     10  O1        50.4510   -9.4140   20.7580 O.3   223  MAG223     -0.3265
     11  O3        47.5180   -6.1380   22.7240 O.3   223  MAG223     -0.2183
     12  O4        49.8420   -5.0090   24.0830 O.3   223  MAG223     -0.2176
     13  O5        51.1720   -8.0890   22.5450 O.3   223  MAG223     -0.3262
     14  O6        51.6770   -7.8090   25.3220 O.3   223  MAG223     -0.2176
     15  O7        47.5170   -9.9130   20.4890 O.2   223  MAG223     -0.2733
     16  CM        51.7900   -9.8880   20.5190 C.3   223  MAG223      0.1769
@<TRIPOS>BOND
     1     8     7    1
     2     7     9   am
     3     7    15    2
     4     9     2    1
     5    16    10    1
     6    10     1    1
     7     1     2    1
     8     1    13    1
     9     2     3    1
    10     3    11    1
    11     3     4    1
    12    13     5    1
    13     5     4    1
    14     5     6    1
    15     4    12    1
    16     6    14    1
