@<TRIPOS>MOLECULE
4lbd_961_A_1.pdb
 29 31 0 0 0
SMALL
GASTEIGER

@<TRIPOS>ATOM
      1  C1        37.3690   16.5240   86.3550 C.ar    1  9611        0.1555
      2  C2        36.4520   17.4460   86.8090 C.ar    1  9611        0.0376
      3  C3        35.5620   17.0930   87.8380 C.ar    1  9611        0.0821
      4  C4        35.6380   15.8550   88.3930 C.ar    1  9611        0.0081
      5  C5        36.5140   14.9340   87.9060 C.ar    1  9611        0.0191
      6  C6        37.3680   15.2410   86.8680 C.ar    1  9611        0.1008
      7  C7        34.5340   17.9890   88.2990 C.2     1  9611        0.3878
      8  C8        41.1760   13.1620   82.9030 C.ar    1  9611       -0.0059
      9  C9        40.7740   13.6270   84.1750 C.ar    1  9611        0.0163
     10  C10       41.4900   14.6670   84.7140 C.ar    1  9611       -0.0017
     11  C11       42.6690   15.1090   84.1380 C.ar    1  9611       -0.0048
     12  C12       43.1070   14.6770   82.8850 C.ar    1  9611       -0.0268
     13  C13       44.3820   15.3700   82.3410 C.3     1  9611        0.0186
     14  C14       44.5440   14.9540   80.8520 C.3     1  9611        0.0044
     15  C15       44.2200   13.4520   80.5430 C.3     1  9611        0.0044
     16  C16       42.7010   13.1110   80.7720 C.3     1  9611        0.0186
     17  C17       42.3100   13.6680   82.2040 C.ar    1  9611       -0.0270
     18  C18       41.8310   13.7210   79.5960 C.3     1  9611        0.0044
     19  C19       42.5510   11.5480   80.6550 C.3     1  9611        0.0044
     20  C20       44.2750   16.9540   82.4050 C.3     1  9611        0.0044
     21  C21       45.5910   14.8310   83.1150 C.3     1  9611        0.0044
     22  C22       39.7170   13.0250   85.0930 C.3     1  9611        0.2516
     23  C23       38.4690   13.9820   85.2180 C.2     1  9611        0.2804
     24  N6        38.2040   14.2870   86.4740 N.am    1  9611       -0.1745
     25  F1        38.3820   16.9100   85.5560 F       1  9611       -0.2028
     26  O22       39.2820   11.7760   84.7410 O.3     1  9611       -0.2083
     27  O23       37.8100   14.4220   84.2800 O.2     1  9611       -0.2699
     28  O71       34.6040   19.1420   87.8470 O.co2   1  9611       -0.2406
     29  O72       33.5740   17.6150   89.0050 O.co2   1  9611       -0.2406
@<TRIPOS>BOND
     1    18    16    1
     2    15    16    1
     3    15    14    1
     4    19    16    1
     5    16    17    1
     6    14    13    1
     7    17    12   ar
     8    17     8   ar
     9    13    20    1
    10    13    12    1
    11    13    21    1
    12    12    11   ar
    13     8     9   ar
    14    11    10   ar
    15     9    10   ar
    16     9    22    1
    17    27    23    2
    18    26    22    1
    19    22    23    1
    20    23    24   am
    21    25     1    1
    22     1     2   ar
    23     1     6   ar
    24    24     6    1
    25     2     3   ar
    26     6     5   ar
    27     3     7    1
    28     3     4   ar
    29    28     7   ar
    30     5     4   ar
    31     7    29   ar
