@<TRIPOS>MOLECULE
4mba_HEM_A_1.pdb
 43 50 0 0 0
SMALL
GASTEIGER

@<TRIPOS>ATOM
      1 FE        -58.4480  -37.6560  -32.3650 Fe    148  HEM148      0.0000
      2  CHA      -59.2670  -34.3190  -32.4320 C.2   148  HEM148      0.0000
      3  CHB      -59.1390  -37.8440  -29.0970 C.2   148  HEM148      0.0000
      4  CHC      -57.3110  -40.9280  -32.3160 C.2   148  HEM148      0.0000
      5  CHD      -57.3460  -37.3890  -35.6260 C.2   148  HEM148      0.0000
      6  NA       -59.2070  -36.3670  -31.0710 N.2   148  HEM148      0.0000
      7  C1A      -59.4990  -35.0290  -31.2630 C.2   148  HEM148      0.0000
      8  C2A      -60.0170  -34.4690  -30.0270 C.2   148  HEM148      0.0000
      9  C3A      -59.9260  -35.4290  -29.0890 C.2   148  HEM148      0.0000
     10  C4A      -59.3080  -36.5990  -29.7100 C.2   148  HEM148      0.0000
     11  CMA      -60.5330  -35.4800  -27.6630 C.3   148  HEM148      0.0000
     12  CAA      -60.5070  -33.0100  -29.8910 C.3   148  HEM148      0.0000
     13  CBA      -59.3720  -32.1260  -29.3580 C.3   148  HEM148      0.0000
     14  CGA      -59.8490  -30.7560  -28.9770 C.2   148  HEM148      0.0000
     15  O1A      -60.3410  -30.6000  -27.8400 O.co2 148  HEM148      0.0000
     16  O2A      -59.7200  -29.8380  -29.8150 O.co2 148  HEM148      0.0000
     17  NB       -58.2150  -39.1150  -31.0250 N.ar  148  HEM148      0.0000
     18  C1B      -58.6600  -38.9980  -29.7010 C.ar  148  HEM148      0.0000
     19  C2B      -58.4010  -40.2150  -28.9820 C.ar  148  HEM148      0.0000
     20  C3B      -57.9350  -41.1180  -29.8870 C.ar  148  HEM148      0.0000
     21  C4B      -57.7390  -40.3870  -31.1350 C.ar  148  HEM148      0.0000
     22  CMB      -59.0700  -40.5320  -27.6210 C.3   148  HEM148      0.0000
     23  CAB      -57.6560  -42.6330  -29.6620 C.2   148  HEM148      0.0000
     24  CBB      -56.4490  -43.0890  -29.3660 C.2   148  HEM148      0.0000
     25  NC       -57.5300  -38.8910  -33.6260 N.2   148  HEM148      0.0000
     26  C1C      -57.1790  -40.2240  -33.4870 C.2   148  HEM148      0.0000
     27  C2C      -56.7000  -40.7550  -34.7540 C.2   148  HEM148      0.0000
     28  C3C      -56.6240  -39.7050  -35.6030 C.2   148  HEM148      0.0000
     29  C4C      -57.3040  -38.6090  -34.9730 C.2   148  HEM148      0.0000
     30  CMC      -56.2410  -42.1670  -35.0190 C.3   148  HEM148      0.0000
     31  CAC      -56.0740  -39.6400  -37.0250 C.2   148  HEM148      0.0000
     32  CBC      -55.5740  -40.7630  -37.5500 C.2   148  HEM148      0.0000
     33  ND       -58.3340  -36.1810  -33.7650 N.ar  148  HEM148      0.0000
     34  C1D      -57.9090  -36.2660  -35.0840 C.ar  148  HEM148      0.0000
     35  C2D      -58.0020  -34.9640  -35.7300 C.ar  148  HEM148      0.0000
     36  C3D      -58.4810  -34.1250  -34.8120 C.ar  148  HEM148      0.0000
     37  C4D      -58.8350  -34.8950  -33.6250 C.ar  148  HEM148      0.0000
     38  CMD      -57.6500  -34.5790  -37.1820 C.3   148  HEM148      0.0000
     39  CAD      -58.8980  -32.6760  -35.0680 C.3   148  HEM148      0.0000
     40  CBD      -58.1430  -31.7780  -34.0880 C.3   148  HEM148      0.0000
     41  CGD      -57.0730  -30.9580  -34.7460 C.2   148  HEM148      0.0000
     42  O1D      -56.0120  -30.8180  -34.1080 O.co2 148  HEM148      0.0000
     43  O2D      -57.2660  -30.4520  -35.8810 O.co2 148  HEM148      0.0000
@<TRIPOS>BOND
     1    32    31    2
     2    38    35    1
     3    31    28    1
     4    43    41   ar
     5    35    34   ar
     6    35    36   ar
     7     5    34    2
     8     5    29    1
     9    28    29    1
    10    28    27    2
    11    34    33   ar
    12    39    36    1
    13    39    40    1
    14    30    27    1
    15    29    25    2
    16    36    37   ar
    17    27    26    1
    18    41    42   ar
    19    41    40    1
    20    33    37   ar
    21    33     1    1
    22    25    26    1
    23    25     1    1
    24    37     2    2
    25    26     4    2
    26     2     7    1
    27     1     6    1
    28     1    17    1
    29     4    21    1
    30     7     6    2
    31     7     8    1
    32    21    17   ar
    33    21    20   ar
    34     6    10    1
    35    17    18   ar
    36     8    12    1
    37     8     9    2
    38    12    13    1
    39    20    23    1
    40    20    19   ar
    41    16    14   ar
    42    10     3    2
    43    10     9    1
    44    18     3    1
    45    18    19   ar
    46    23    24    2
    47    13    14    1
    48     9    11    1
    49    19    22    1
    50    14    15   ar
