@<TRIPOS>MOLECULE
4mbn_HEM_A_1.pdb
 43 50 0 0 0
SMALL
GASTEIGER

@<TRIPOS>ATOM
      1  CHA       16.9540   31.1590    0.4950 C.2   225  HEM225      0.0000
      2  CHB       15.6970   28.0230    3.9790 C.2   225  HEM225      0.0000
      3  CHC       14.3350   24.8480    0.5620 C.2   225  HEM225      0.0000
      4  CHD       15.5310   28.0070   -2.8860 C.2   225  HEM225      0.0000
      5  C1A       16.7190   30.5940    1.7370 C.2   225  HEM225      0.0000
      6  C2A       16.9760   31.2310    2.9650 C.2   225  HEM225      0.0000
      7  C3A       16.6350   30.3250    3.9740 C.2   225  HEM225      0.0000
      8  C4A       16.1430   29.1650    3.3400 C.2   225  HEM225      0.0000
      9  CMA       16.7180   30.5560    5.4640 C.3   225  HEM225      0.0000
     10  CAA       17.4620   32.6550    3.1340 C.3   225  HEM225      0.0000
     11  CBA       16.3760   33.6670    3.5450 C.3   225  HEM225      0.0000
     12  CGA       15.1910   33.6090    2.5540 C.2   225  HEM225      0.0000
     13  O1A       14.0460   33.7600    2.9570 O.co2 225  HEM225      0.0000
     14  O2A       15.3500   33.7650    1.2610 O.co2 225  HEM225      0.0000
     15  C1B       15.2220   26.8910    3.3470 C.ar  225  HEM225      0.0000
     16  C2B       14.8320   25.7390    3.9980 C.ar  225  HEM225      0.0000
     17  C3B       14.4700   24.8140    2.9840 C.ar  225  HEM225      0.0000
     18  C4B       14.5940   25.4570    1.7760 C.ar  225  HEM225      0.0000
     19  CMB       14.8620   25.5920    5.5150 C.3   225  HEM225      0.0000
     20  CAB       14.1290   23.4690    3.0780 C.3   225  HEM225      0.0000
     21  CBB       14.1990   22.7290    4.2550 C.3   225  HEM225      0.0000
     22  C1C       14.5230   25.4110   -0.6810 C.2   225  HEM225      0.0000
     23  C2C       14.3630   24.7490   -1.9070 C.2   225  HEM225      0.0000
     24  C3C       14.7560   25.6820   -2.9090 C.2   225  HEM225      0.0000
     25  C4C       15.0790   26.8670   -2.2490 C.2   225  HEM225      0.0000
     26  CMC       13.8910   23.3000   -2.0390 C.3   225  HEM225      0.0000
     27  CAC       14.8610   25.5120   -4.2930 C.3   225  HEM225      0.0000
     28  CBC       14.5750   24.2860   -4.9400 C.3   225  HEM225      0.0000
     29  C1D       16.0160   29.1320   -2.2640 C.ar  225  HEM225      0.0000
     30  C2D       16.5570   30.2250   -2.9410 C.ar  225  HEM225      0.0000
     31  C3D       17.0340   31.1030   -1.9780 C.ar  225  HEM225      0.0000
     32  C4D       16.6930   30.5680   -0.7260 C.ar  225  HEM225      0.0000
     33  CMD       16.5930   30.3940   -4.4520 C.3   225  HEM225      0.0000
     34  CAD       17.8460   32.3550   -2.2590 C.3   225  HEM225      0.0000
     35  CBD       19.3170   32.0240   -2.5280 C.3   225  HEM225      0.0000
     36  CGD       20.0970   33.2850   -2.8620 C.2   225  HEM225      0.0000
     37  O1D       20.0460   33.7570   -4.0030 O.co2 225  HEM225      0.0000
     38  O2D       20.6100   34.0140   -1.9080 O.co2 225  HEM225      0.0000
     39  NA        16.1840   29.3490    1.9820 N.2   225  HEM225      0.0000
     40  NB        15.0700   26.7220    1.9890 N.ar  225  HEM225      0.0000
     41  NC        14.9780   26.6760   -0.8920 N.2   225  HEM225      0.0000
     42  ND        16.1010   29.3460   -0.9050 N.ar  225  HEM225      0.0000
     43 FE         15.4370   28.0780    0.6130 Fe    225  HEM225      0.0000
@<TRIPOS>BOND
     1    28    27    1
     2    33    30    1
     3    27    24    1
     4    37    36   ar
     5    30    29   ar
     6    30    31   ar
     7    24    25    1
     8    24    23    2
     9     4    29    2
    10     4    25    1
    11    36    35    1
    12    36    38   ar
    13    35    34    1
    14    29    42   ar
    15    34    31    1
    16    25    41    2
    17    26    23    1
    18    31    32   ar
    19    23    22    1
    20    42    32   ar
    21    42    43    1
    22    41    22    1
    23    41    43    1
    24    32     1    2
    25    22     3    2
    26     1     5    1
    27     3    18    1
    28    43    39    1
    29    43    40    1
    30    14    12   ar
    31     5    39    2
    32     5     6    1
    33    18    40   ar
    34    18    17   ar
    35    39     8    1
    36    40    15   ar
    37    12    13   ar
    38    12    11    1
    39     6    10    1
    40     6     7    2
    41    17    20    1
    42    17    16   ar
    43    20    21    1
    44    10    11    1
    45     8     7    1
    46     8     2    2
    47    15     2    1
    48    15    16   ar
    49     7     9    1
    50    16    19    1
