@<TRIPOS>MOLECULE
4mbp_GLC_A_1.pdb
 11 11 0 0 0
SMALL
GASTEIGER

@<TRIPOS>ATOM
      1  C1         9.7690   24.4750   40.2340 C.3   374  GLC374      0.1777
      2  C2         8.8510   24.3510   38.9850 C.3   374  GLC374      0.2141
      3  C3         9.6210   24.0810   37.7540 C.3   374  GLC374      0.2173
      4  C4        10.6010   25.2840   37.5690 C.3   374  GLC374      0.2142
      5  C5        11.4420   25.6590   38.7620 C.3   374  GLC374      0.1810
      6  C6        11.8090   27.1020   38.5630 C.3   374  GLC374      0.2141
      7  O2         8.0180   23.2330   39.1270 O.3   374  GLC374     -0.2176
      8  O3         8.7260   23.8070   36.6470 O.3   374  GLC374     -0.2175
      9  O4        11.6000   24.8260   36.6220 O.3   374  GLC374     -0.2176
     10  O5        10.7280   25.5230   40.0920 O.3   374  GLC374     -0.3481
     11  O6        12.5080   27.4940   39.7270 O.3   374  GLC374     -0.2176
@<TRIPOS>BOND
     1     9     4    1
     2     8     3    1
     3     4     3    1
     4     4     5    1
     5     3     2    1
     6     6     5    1
     7     6    11    1
     8     5    10    1
     9     2     7    1
    10     2     1    1
    11    10     1    1
