@<TRIPOS>MOLECULE
4mdh_NAD_A_1.pdb
 44 48 0 0 0
SMALL
GASTEIGER

@<TRIPOS>ATOM
      1  PA        24.7850   34.7770   41.5260 P.3   335  NAD335      0.2189
      2  O1A       24.1910   36.0390   42.0250 O.3   335  NAD335     -0.4371
      3  O2A       26.2480   34.7010   41.3590 O.2   335  NAD335     -0.5170
      4  O5B       23.9930   34.3720   40.2040 O.3   335  NAD335     -0.3112
      5  C5B       22.6430   33.9600   40.1630 C.3   335  NAD335      0.1813
      6  C4B       22.1340   34.1230   38.7530 C.3   335  NAD335      0.1821
      7  O4B       20.7340   34.4850   38.7580 O.3   335  NAD335     -0.3135
      8  C3B       22.8700   35.1930   37.9050 C.3   335  NAD335      0.2184
      9  O3B       23.5900   34.6070   36.8030 O.3   335  NAD335     -0.2174
     10  C2B       21.7510   36.0440   37.3210 C.3   335  NAD335      0.2570
     11  O2B       21.9690   36.3950   35.9660 O.3   335  NAD335     -0.2130
     12  C1B       20.5480   35.1020   37.4910 C.3   335  NAD335      0.3186
     13  N9A       19.2390   35.7520   37.3230 N.pl3 335  NAD335     -0.1439
     14  C8A       18.8570   37.0230   37.6550 C.3   335  NAD335      0.3377
     15  N7A       17.6550   37.3640   37.2410 N.2   335  NAD335     -0.2095
     16  C5A       17.1850   36.2420   36.5760 C.2   335  NAD335      0.2526
     17  C6A       16.0010   36.0060   35.9200 C.2   335  NAD335      0.4393
     18  N6A       15.0310   36.9370   35.8260 N.pl3 335  NAD335      0.2180
     19  N1A       15.8570   34.8090   35.3450 N.2   335  NAD335      0.0021
     20  C2A       16.8310   33.9230   35.3980 C.3   335  NAD335      0.5254
     21  N3A       18.0000   34.0350   35.9630 N.2   335  NAD335     -0.0055
     22  C4A       18.1110   35.2310   36.5440 C.2   335  NAD335      0.3518
     23  O3        24.3450   33.4450   42.3450 O.3   335  NAD335     -0.2703
     24  PN        24.0480   33.0630   43.8630 P.3   335  NAD335      0.2189
     25  O1N       25.1830   33.1650   44.8190 O.3   335  NAD335     -0.4371
     26  O2N       23.7970   31.7110   43.3640 O.2   335  NAD335     -0.5170
     27  O5D       22.6020   33.4960   44.3920 O.3   335  NAD335     -0.3112
     28  C5D       21.4190   32.7930   44.0240 C.3   335  NAD335      0.1813
     29  C4D       20.2400   33.1570   44.8580 C.3   335  NAD335      0.1799
     30  O4D       20.1190   32.1960   45.9300 O.3   335  NAD335     -0.3327
     31  C3D       20.3710   34.5070   45.5630 C.3   335  NAD335      0.2158
     32  O3D       19.0710   35.0290   45.8420 O.3   335  NAD335     -0.2175
     33  C2D       20.9700   34.1480   46.9100 C.3   335  NAD335      0.2309
     34  O2D       20.7320   35.1850   47.8260 O.3   335  NAD335     -0.2158
     35  C1D       20.1440   32.9110   47.1700 C.3   335  NAD335      0.2263
     36  N1N       20.6500   32.0380   48.1940 N.pl3 335  NAD335     -0.2787
     37  C2N       19.7540   31.3750   48.9590 C.3   335  NAD335      0.1244
     38  C3N       20.2030   30.5330   49.9730 C.2   335  NAD335      0.0544
     39  C7N       19.1350   29.8210   50.7760 C.2   335  NAD335      0.2818
     40  O7N       19.4430   28.8350   51.4350 O.2   335  NAD335     -0.2670
     41  N7N       17.9310   30.3520   50.7420 N.am  335  NAD335     -0.0839
     42  C4N       21.5830   30.3820   50.1840 C.2   335  NAD335      0.0033
     43  C5N       22.4760   31.0710   49.3690 C.2   335  NAD335      0.0157
     44  C6N       21.9860   31.8880   48.3760 C.2   335  NAD335      0.0633
@<TRIPOS>BOND
     1    19    20    1
     2    19    17    2
     3    20    21    1
     4    18    17    1
     5    17    16    1
     6    21    22    2
     7    11    10    1
     8    22    16    1
     9    22    13    1
    10    16    15    2
    11     9     8    1
    12    15    14    1
    13    10    12    1
    14    10     8    1
    15    13    12    1
    16    13    14    1
    17    12     7    1
    18     8     6    1
    19     6     7    1
    20     6     5    1
    21     5     4    1
    22     4     1    1
    23     3     1    2
    24     1     2    1
    25     1    23    1
    26    23    24    1
    27    26    24    2
    28    24    27    1
    29    24    25    1
    30    28    27    1
    31    28    29    1
    32    29    31    1
    33    29    30    1
    34    31    32    1
    35    31    33    1
    36    30    35    1
    37    33    35    1
    38    33    34    1
    39    35    36    1
    40    36    44    1
    41    36    37    1
    42    44    43    2
    43    37    38    1
    44    43    42    1
    45    38    42    2
    46    38    39    1
    47    41    39   am
    48    39    40    2
