@<TRIPOS>MOLECULE
4mht_SAH_A_1.pdb
 26 28 0 0 0
SMALL
GASTEIGER

@<TRIPOS>ATOM
      1  N        -19.2370   31.1840   81.2900 N.3   328  SAH328     -0.1208
      2  CA       -19.8760   30.3500   82.3600 C.3   328  SAH328      0.1952
      3  CB       -19.7590   30.9450   83.7740 C.3   328  SAH328      0.0422
      4  CG       -18.3530   31.3700   84.1690 C.3   328  SAH328      0.0597
      5  SD       -18.3790   31.9530   85.8850 S.3   328  SAH328     -0.1375
      6  C        -21.3420   30.2440   81.9830 C.2   328  SAH328      0.3819
      7  O        -21.6880   30.7370   80.8330 O.co2 328  SAH328     -0.2441
      8  OXT      -22.2410   30.2480   82.9200 O.co2 328  SAH328     -0.2441
      9  C5'      -16.8190   31.3440   86.5130 C.3   328  SAH328      0.0899
     10  C4'      -16.9790   29.8970   86.9270 C.3   328  SAH328      0.1630
     11  O4'      -15.7360   29.4190   87.3750 O.3   328  SAH328     -0.3153
     12  C3'      -17.8830   29.6700   88.1070 C.3   328  SAH328      0.2168
     13  O3'      -18.8420   28.6400   87.8900 O.3   328  SAH328     -0.2175
     14  C2'      -16.8990   29.1670   89.1270 C.3   328  SAH328      0.2569
     15  O2'      -17.5600   28.3280   90.0560 O.3   328  SAH328     -0.2130
     16  C1'      -15.9380   28.4030   88.3180 C.3   328  SAH328      0.3185
     17  N9       -14.6600   28.2920   88.9590 N.pl3 328  SAH328     -0.1439
     18  C8       -13.9670   29.2290   89.7110 C.3   328  SAH328      0.3377
     19  N7       -12.7950   28.8670   90.1180 N.2   328  SAH328     -0.2095
     20  C5       -12.6990   27.5760   89.5960 C.2   328  SAH328      0.2526
     21  C6       -11.6920   26.5870   89.6470 C.2   328  SAH328      0.4393
     22  N6       -10.5350   26.6410   90.3240 N.pl3 328  SAH328      0.2180
     23  N1       -11.9520   25.4490   88.9930 N.2   328  SAH328      0.0021
     24  C2       -13.1150   25.2680   88.3350 C.3   328  SAH328      0.5254
     25  N3       -14.1230   26.0900   88.2250 N.2   328  SAH328     -0.0055
     26  C4       -13.8370   27.2400   88.8890 C.2   328  SAH328      0.3518
@<TRIPOS>BOND
     1     7     6   ar
     2     1     2    1
     3     6     2    1
     4     6     8   ar
     5     2     3    1
     6     3     4    1
     7     4     5    1
     8     5     9    1
     9     9    10    1
    10    10    11    1
    11    10    12    1
    12    11    16    1
    13    13    12    1
    14    12    14    1
    15    25    24    1
    16    25    26    2
    17    16    17    1
    18    16    14    1
    19    24    23    1
    20    26    17    1
    21    26    20    1
    22    17    18    1
    23    23    21    2
    24    14    15    1
    25    20    21    1
    26    20    19    2
    27    21    22    1
    28    18    19    1
