@<TRIPOS>MOLECULE
4nll_FMN_A_1.pdb
 31 33 0 0 0
SMALL
GASTEIGER

@<TRIPOS>ATOM
      1  N1        27.6950   14.2500   15.8530 N.2   139  FMN139     -0.2890
      2  C2        27.8220   14.0430   17.1680 C.1   139  FMN139      0.3669
      3  O2        26.8330   13.8290   17.8420 O.2   139  FMN139     -0.1744
      4  N3        29.0990   14.0820   17.7620 N.2   139  FMN139     -0.2300
      5  C4        30.2750   14.2300   17.0960 C.1   139  FMN139      0.2513
      6  O4        31.3450   14.2090   17.6780 O.2   139  FMN139     -0.2057
      7  C4A       30.1390   14.4320   15.6390 C.2   139  FMN139      0.2700
      8  N5        31.2160   14.5630   14.8940 N.2   139  FMN139     -0.3878
      9  C5A       31.0490   14.7550   13.5300 C.2   139  FMN139      0.1320
     10  C6        32.2030   14.9130   12.7080 C.2   139  FMN139      0.0250
     11  C7        32.0840   15.2020   11.3720 C.2   139  FMN139     -0.0238
     12  C7M       33.3140   15.2840   10.4980 C.3   139  FMN139      0.0308
     13  C8        30.7810   15.3790   10.7980 C.2   139  FMN139     -0.0280
     14  C8M       30.6040   15.7430    9.3460 C.3   139  FMN139      0.0304
     15  C9        29.6400   15.2010   11.5620 C.2   139  FMN139     -0.0041
     16  C9A       29.7430   14.8960   12.9360 C.3   139  FMN139      0.1497
     17  N10       28.6320   14.6860   13.7520 N.pl3 139  FMN139     -0.2691
     18  C10       28.7650   14.4420   15.1050 C.2   139  FMN139      0.2416
     19  C1'       27.3060   14.6710   13.1370 C.3   139  FMN139      0.1294
     20  C2'       26.7560   16.0810   12.9200 C.3   139  FMN139      0.2044
     21  O2'       26.8360   16.8500   14.1220 O.3   139  FMN139     -0.2185
     22  C3'       25.3040   15.9830   12.4940 C.3   139  FMN139      0.2164
     23  O3'       25.2240   15.2340   11.2820 O.3   139  FMN139     -0.2175
     24  C4'       24.4990   17.2770   12.3530 C.3   139  FMN139      0.2147
     25  O4'       23.1530   16.9650   11.9840 O.3   139  FMN139     -0.2176
     26  C5'       25.1200   18.1740   11.2810 C.3   139  FMN139      0.1892
     27  O5'       24.4130   19.3860   11.2230 O.3   139  FMN139     -0.2674
     28  P         24.7770   20.5130   10.1920 P.3   139  FMN139      0.5327
     29  O1P       26.2370   20.5500   10.1000 O.3   139  FMN139     -0.1145
     30  O2P       24.0830   21.6990   10.6860 O.3   139  FMN139     -0.1145
     31  O3P       24.1700   20.0950    8.8280 O.2   139  FMN139     -0.2224
@<TRIPOS>BOND
     1    31    28    2
     2    14    13    1
     3    29    28    1
     4    28    30    1
     5    28    27    1
     6    12    11    1
     7    13    11    1
     8    13    15    2
     9    27    26    1
    10    26    24    1
    11    23    22    1
    12    11    10    2
    13    15    16    1
    14    25    24    1
    15    24    22    1
    16    22    20    1
    17    10     9    1
    18    20    19    1
    19    20    21    1
    20    16     9    1
    21    16    17    1
    22    19    17    1
    23     9     8    2
    24    17    18    1
    25     8     7    2
    26    18     7    1
    27    18     1    2
    28     7     5    1
    29     1     2    2
    30     5     6    2
    31     5     4    2
    32     2     4    2
    33     2     3    2
