@<TRIPOS>MOLECULE
4nos_HEM_A_1.pdb
 43 50 0 0 0
SMALL
GASTEIGER

@<TRIPOS>ATOM
      1  CHA        1.9950   94.8840   18.4630 C.2   510  HEM510      0.0000
      2  CHB        2.0760   97.3130   22.6690 C.2   510  HEM510      0.0000
      3  CHC       -1.6710   94.6290   24.2010 C.2   510  HEM510      0.0000
      4  CHD       -1.5920   92.0550   20.0830 C.2   510  HEM510      0.0000
      5  C1A        2.3340   95.8120   19.4550 C.2   510  HEM510      0.0000
      6  C2A        3.3220   96.8720   19.3550 C.2   510  HEM510      0.0000
      7  C3A        3.3540   97.5290   20.5280 C.2   510  HEM510      0.0000
      8  C4A        2.3850   96.9270   21.3900 C.2   510  HEM510      0.0000
      9  CMA        4.2150   98.7270   20.9380 C.3   510  HEM510      0.0000
     10  CAA        4.1350   97.1370   18.1020 C.3   510  HEM510      0.0000
     11  CBA        3.1900   97.7920   17.0840 C.3   510  HEM510      0.0000
     12  CGA        3.8200   98.7370   16.0740 C.2   510  HEM510      0.0000
     13  O1A        3.3290   98.6690   14.9200 O.co2 510  HEM510      0.0000
     14  O2A        4.7150   99.4840   16.4160 O.co2 510  HEM510      0.0000
     15  C1B        1.1010   96.7870   23.4690 C.ar  510  HEM510      0.0000
     16  C2B        0.8120   97.2530   24.7930 C.ar  510  HEM510      0.0000
     17  C3B       -0.2560   96.5110   25.2560 C.ar  510  HEM510      0.0000
     18  C4B       -0.6260   95.5760   24.1970 C.ar  510  HEM510      0.0000
     19  CMB        1.5830   98.3870   25.4870 C.3   510  HEM510      0.0000
     20  CAB       -0.9690   96.6300   26.6220 C.3   510  HEM510      0.0000
     21  CBB       -1.5400   95.3200   27.1820 C.3   510  HEM510      0.0000
     22  C1C       -1.9950   93.7030   23.1850 C.2   510  HEM510      0.0000
     23  C2C       -3.1510   92.7680   23.2210 C.2   510  HEM510      0.0000
     24  C3C       -3.1050   92.0370   22.0840 C.2   510  HEM510      0.0000
     25  C4C       -1.9680   92.5060   21.3290 C.2   510  HEM510      0.0000
     26  CMC       -4.1650   92.7130   24.3840 C.3   510  HEM510      0.0000
     27  CAC       -4.0190   90.9100   21.5560 C.3   510  HEM510      0.0000
     28  CBC       -5.3250   90.6700   22.3130 C.3   510  HEM510      0.0000
     29  C1D       -0.5900   92.5580   19.2990 C.ar  510  HEM510      0.0000
     30  C2D       -0.2640   92.1050   17.9840 C.ar  510  HEM510      0.0000
     31  C3D        0.7160   92.9110   17.5060 C.ar  510  HEM510      0.0000
     32  C4D        1.0360   93.8630   18.5450 C.ar  510  HEM510      0.0000
     33  CMD       -0.9620   90.9350   17.2600 C.3   510  HEM510      0.0000
     34  CAD        1.3240   92.8220   16.1110 C.3   510  HEM510      0.0000
     35  CBD        0.6670   93.9960   15.3050 C.3   510  HEM510      0.0000
     36  CGD        1.0570   94.1100   13.8610 C.2   510  HEM510      0.0000
     37  O1D        0.9460   95.2160   13.2870 O.co2 510  HEM510      0.0000
     38  O2D        1.4180   93.0380   13.3040 O.co2 510  HEM510      0.0000
     39  NA         1.7770   95.8790   20.7040 N.2   510  HEM510      0.0000
     40  NB         0.2270   95.7590   23.1240 N.ar  510  HEM510      0.0000
     41  NC        -1.3120   93.5240   22.0090 N.2   510  HEM510      0.0000
     42  ND         0.2250   93.6330   19.6540 N.ar  510  HEM510      0.0000
     43 FE          0.5450   94.4040   21.5770 Fe    510  HEM510      0.0000
@<TRIPOS>BOND
     1    37    36   ar
     2    38    36   ar
     3    36    35    1
     4    13    12   ar
     5    35    34    1
     6    12    14   ar
     7    12    11    1
     8    34    31    1
     9    11    10    1
    10    33    30    1
    11    31    30   ar
    12    31    32   ar
    13    30    29   ar
    14    10     6    1
    15     1    32    2
    16     1     5    1
    17    32    42   ar
    18    29    42   ar
    19    29     4    2
    20     6     5    1
    21     6     7    2
    22     5    39    2
    23    42    43    1
    24     4    25    1
    25     7     9    1
    26     7     8    1
    27    39     8    1
    28    39    43    1
    29    25    41    2
    30    25    24    1
    31     8     2    2
    32    27    24    1
    33    27    28    1
    34    43    41    1
    35    43    40    1
    36    41    22    1
    37    24    23    2
    38     2    15    1
    39    40    15   ar
    40    40    18   ar
    41    22    23    1
    42    22     3    2
    43    23    26    1
    44    15    16   ar
    45    18     3    1
    46    18    17   ar
    47    16    17   ar
    48    16    19    1
    49    17    20    1
    50    20    21    1
