@<TRIPOS>MOLECULE
4nos_H2B_A_1.pdb
 17 18 0 0 0
SMALL
GASTEIGER

@<TRIPOS>ATOM
      1  N1         8.8260   97.6390   14.6430 N.2   511  H2B511     -0.2683
      2  C2         7.5730   98.0360   15.0880 C.1   511  H2B511      0.2608
      3  N2         7.2550   97.8880   16.3620 N.pl3 511  H2B511     -0.0220
      4  N3         6.6750   98.5780   14.2110 N.2   511  H2B511     -0.2474
      5  C4         6.9350   98.7630   12.8130 C.1   511  H2B511      0.2441
      6  O4         6.0680   99.2500   12.0960 O.2   511  H2B511     -0.2063
      7  C4A        8.2110   98.3280   12.3930 C.2   511  H2B511      0.2463
      8  C8A        9.2180   97.7620   13.3160 C.1   511  H2B511      0.1270
      9  N5         8.6150   98.4250   11.0650 N.2   511  H2B511     -0.2460
     10  N8        10.4480   97.3750   12.9660 N.2   511  H2B511     -0.2054
     11  C6         9.7400   97.5380   10.6450 C.3   511  H2B511      0.1627
     12  C7        10.8890   97.5630   11.5830 C.3   511  H2B511      0.1643
     13  C9        10.0600   97.8070    9.1600 C.3   511  H2B511      0.2063
     14  O9        10.3320   99.1850    8.9790 O.3   511  H2B511     -0.2183
     15  C10       11.2410   97.0190    8.5940 C.3   511  H2B511      0.1842
     16  C11       11.4570   97.3330    7.1620 C.3   511  H2B511      0.0383
     17  O10       10.9770   95.6040    8.7910 O.3   511  H2B511     -0.2204
@<TRIPOS>BOND
     1    16    15    1
     2    15    17    1
     3    15    13    1
     4    14    13    1
     5    13    11    1
     6    11     9    1
     7    11    12    1
     8     9     7    2
     9    12    10    1
    10     6     5    2
    11     7     5    1
    12     7     8    1
    13     5     4    2
    14    10     8    2
    15     8     1    2
    16     4     2    2
    17     1     2    2
    18     2     3    1
