@<TRIPOS>MOLECULE
4nos_H4B_B_1.pdb
 17 18 0 0 0
SMALL
GASTEIGER

@<TRIPOS>ATOM
      1  N1        24.1260   95.8130   16.0640 N.2   1011  H4B1011    -0.2683
      2  C2        25.4330   96.2510   16.0240 C.1   1011  H4B1011     0.2608
      3  N2        25.8090   97.1090   15.0940 N.pl3 1011  H4B1011    -0.0220
      4  N3        26.3120   95.8070   16.9440 N.2   1011  H4B1011    -0.2474
      5  C4        25.9880   94.8840   17.9690 C.1   1011  H4B1011     0.2441
      6  O4        26.8540   94.5400   18.7500 O.2   1011  H4B1011    -0.2063
      7  C4A       24.6650   94.4550   17.9690 C.2   1011  H4B1011     0.2463
      8  C8A       23.6750   94.9160   17.0160 C.1   1011  H4B1011     0.1270
      9  N5        24.1940   93.5520   18.8970 N.2   1011  H4B1011    -0.2460
     10  N8        22.3800   94.5630   17.0080 N.2   1011  H4B1011    -0.2054
     11  C6        22.9310   92.8080   18.5590 C.3   1011  H4B1011     0.1627
     12  C7        21.8640   93.6840   18.0500 C.3   1011  H4B1011     0.1643
     13  C9        22.5310   91.9150   19.7390 C.3   1011  H4B1011     0.2063
     14  O9        22.2310   92.7430   20.8620 O.3   1011  H4B1011    -0.2183
     15  C10       21.3290   91.0330   19.5010 C.3   1011  H4B1011     0.1842
     16  C11       21.1270   90.1010   20.6310 C.3   1011  H4B1011     0.0383
     17  O10       21.5310   90.3280   18.2590 O.3   1011  H4B1011    -0.2204
@<TRIPOS>BOND
     1     3     2    1
     2     2     1    2
     3     2     4    2
     4     1     8    2
     5     4     5    2
     6    10     8    2
     7    10    12    1
     8     8     7    1
     9     5     7    1
    10     5     6    2
    11     7     9    2
    12    12    11    1
    13    17    15    1
    14    11     9    1
    15    11    13    1
    16    15    13    1
    17    15    16    1
    18    13    14    1
