@<TRIPOS>MOLECULE
4np1_HEM_A_1.pdb
 43 50 0 0 0
SMALL
GASTEIGER

@<TRIPOS>ATOM
      1  CHA       24.6440   24.8060   58.8670 C.2   185  HEM185      0.0000
      2  CHB       28.9200   25.9910   60.8770 C.2   185  HEM185      0.0000
      3  CHC       26.8450   25.5480   65.2360 C.2   185  HEM185      0.0000
      4  CHD       22.4280   25.0550   63.2050 C.2   185  HEM185      0.0000
      5  C1A       25.9990   25.0920   59.0640 C.ar  185  HEM185      0.0000
      6  C2A       27.0120   25.0650   57.9860 C.ar  185  HEM185      0.0000
      7  C3A       28.1810   25.4700   58.5910 C.ar  185  HEM185      0.0000
      8  C4A       27.9120   25.7340   59.9740 C.ar  185  HEM185      0.0000
      9  CMA       29.5170   25.5080   57.8980 C.3   185  HEM185      0.0000
     10  CAA       26.8260   24.6710   56.4820 C.3   185  HEM185      0.0000
     11  CBA       26.9270   23.1830   56.1180 C.3   185  HEM185      0.0000
     12  CGA       26.8520   22.9230   54.6150 C.2   185  HEM185      0.0000
     13  O1A       25.8030   23.2530   54.0270 O.co2 185  HEM185      0.0000
     14  O2A       27.8270   22.3900   54.0300 O.co2 185  HEM185      0.0000
     15  C1B       28.7270   25.9540   62.2150 C.2   185  HEM185      0.0000
     16  C2B       29.7840   26.1110   63.1640 C.2   185  HEM185      0.0000
     17  C3B       29.2050   25.9740   64.3840 C.2   185  HEM185      0.0000
     18  C4B       27.7820   25.7410   64.2020 C.2   185  HEM185      0.0000
     19  CMB       31.2210   26.4930   62.8760 C.3   185  HEM185      0.0000
     20  CAB       29.8310   26.2270   65.6100 C.2   185  HEM185      0.0000
     21  CBB       30.2370   25.2460   66.4610 C.2   185  HEM185      0.0000
     22  C1C       25.4940   25.3120   65.0660 C.ar  185  HEM185      0.0000
     23  C2C       24.5290   25.2120   66.1620 C.ar  185  HEM185      0.0000
     24  C3C       23.2840   25.1630   65.6150 C.ar  185  HEM185      0.0000
     25  C4C       23.4640   25.2260   64.1490 C.ar  185  HEM185      0.0000
     26  CMC       24.8550   25.1230   67.6480 C.3   185  HEM185      0.0000
     27  CAC       22.0990   25.0950   66.3110 C.3   185  HEM185      0.0000
     28  CBC       21.4260   26.3080   66.3990 C.3   185  HEM185      0.0000
     29  C1D       22.6490   24.8750   61.8420 C.2   185  HEM185      0.0000
     30  C2D       21.6100   24.6850   60.8150 C.2   185  HEM185      0.0000
     31  C3D       22.2840   24.6150   59.6140 C.2   185  HEM185      0.0000
     32  C4D       23.6780   24.7590   59.8630 C.2   185  HEM185      0.0000
     33  CMD       20.0900   24.6810   61.0020 C.3   185  HEM185      0.0000
     34  CAD       21.7060   24.6210   58.2320 C.3   185  HEM185      0.0000
     35  CBD       21.2090   26.0370   57.9770 C.3   185  HEM185      0.0000
     36  CGD       21.6920   26.6080   56.6590 C.2   185  HEM185      0.0000
     37  O1D       21.6330   27.8550   56.5030 O.co2 185  HEM185      0.0000
     38  O2D       22.1260   25.8110   55.7880 O.co2 185  HEM185      0.0000
     39  NA        26.5840   25.4470   60.2980 N.ar  185  HEM185      0.0000
     40  NB        27.4890   25.7290   62.8350 N.2   185  HEM185      0.0000
     41  NC        24.8490   25.2950   63.8210 N.ar  185  HEM185      0.0000
     42  ND        23.9230   24.9430   61.2440 N.2   185  HEM185      0.0000
     43 FE         25.7020   25.4130   62.0500 Fe    185  HEM185      0.0000
@<TRIPOS>BOND
     1    13    12   ar
     2    14    12   ar
     3    12    11    1
     4    38    36   ar
     5    11    10    1
     6    10     6    1
     7    37    36   ar
     8    36    35    1
     9     9     7    1
    10    35    34    1
    11     6     7   ar
    12     6     5   ar
    13    34    31    1
    14     7     8   ar
    15     1     5    2
    16     1    32    1
    17     5    39   ar
    18    31    32    1
    19    31    30    2
    20    32    42    2
    21     8    39   ar
    22     8     2    2
    23    39    43    1
    24    30    33    1
    25    30    29    1
    26     2    15    1
    27    42    29    1
    28    42    43    1
    29    29     4    2
    30    43    40    1
    31    43    41    1
    32    15    40    2
    33    15    16    1
    34    40    18    1
    35    19    16    1
    36    16    17    2
    37     4    25    1
    38    41    25   ar
    39    41    22   ar
    40    25    24   ar
    41    18    17    1
    42    18     3    2
    43    17    20    1
    44    22     3    1
    45    22    23   ar
    46    20    21    2
    47    24    23   ar
    48    24    27    1
    49    23    26    1
    50    27    28    1
