@<TRIPOS>MOLECULE
4nse_ARG_A_1.pdb
 12 11 0 0 0
SMALL
GASTEIGER

@<TRIPOS>ATOM
      1  N          7.8240   15.3940   35.1020 N.3   700  ARG700     -0.1208
      2  CA         8.4610   15.9660   33.8770 C.3   700  ARG700      0.1944
      3  C          7.7710   17.2810   33.5290 C.2   700  ARG700      0.3819
      4  O          8.2070   17.9420   32.5680 O.co2 700  ARG700     -0.2441
      5  CB         8.3290   14.9950   32.6930 C.3   700  ARG700      0.0343
      6  CG         8.8870   13.5960   32.9360 C.3   700  ARG700      0.0490
      7  CD         8.3820   12.6280   31.8700 C.3   700  ARG700      0.2205
      8  NE         6.9270   12.4680   31.9170 N.pl3 700  ARG700     -0.0865
      9  CZ         6.1820   11.8810   30.9820 C.cat 700  ARG700      0.5346
     10  NH1        6.7340   11.3630   29.8970 N.pl3 700  ARG700      0.1354
     11  NH2        4.8700   11.8040   31.1410 N.pl3 700  ARG700      0.1354
     12  OXT        6.7880   17.6410   34.2090 O.co2 700  ARG700     -0.2441
@<TRIPOS>BOND
     1    10     9    1
     2     9    11    1
     3     9     8    2
     4     7     8    1
     5     7     6    1
     6     4     3   ar
     7     5     6    1
     8     5     2    1
     9     3     2    1
    10     3    12   ar
    11     2     1    1
