@<TRIPOS>MOLECULE
4nse_HEM_A_1.pdb
 43 50 0 0 0
SMALL
GASTEIGER

@<TRIPOS>ATOM
      1  CHA        9.1990    9.1750   34.8560 C.2   500  HEM500      0.0000
      2  CHB        4.6430    9.1760   33.4300 C.2   500  HEM500      0.0000
      3  CHC        6.0760    7.5900   29.1250 C.2   500  HEM500      0.0000
      4  CHD       10.4200    6.8170   30.7840 C.2   500  HEM500      0.0000
      5  C1A        7.8590    9.4630   34.7580 C.2   500  HEM500      0.0000
      6  C2A        7.1070   10.2100   35.7510 C.2   500  HEM500      0.0000
      7  C3A        5.8230   10.1630   35.3730 C.2   500  HEM500      0.0000
      8  C4A        5.7850    9.4160   34.1360 C.2   500  HEM500      0.0000
      9  CMA        4.6230   10.7830   36.0460 C.3   500  HEM500      0.0000
     10  CAA        7.6670   10.9780   36.9340 C.3   500  HEM500      0.0000
     11  CBA        7.8630   12.4000   36.4690 C.3   500  HEM500      0.0000
     12  CGA        8.5740   13.2700   37.4850 C.2   500  HEM500      0.0000
     13  O1A        8.2220   13.1890   38.6870 O.co2 500  HEM500      0.0000
     14  O2A        9.4750   14.0410   37.0720 O.co2 500  HEM500      0.0000
     15  C1B        4.6260    8.5340   32.1990 C.ar  500  HEM500      0.0000
     16  C2B        3.4530    8.4820   31.3490 C.ar  500  HEM500      0.0000
     17  C3B        3.8410    8.0440   30.0940 C.ar  500  HEM500      0.0000
     18  C4B        5.2740    7.8660   30.2200 C.ar  500  HEM500      0.0000
     19  CMB        2.0620    8.9540   31.7460 C.3   500  HEM500      0.0000
     20  CAB        3.0340    7.8930   28.9450 C.2   500  HEM500      0.0000
     21  CBB        3.0770    6.8860   28.0270 C.2   500  HEM500      0.0000
     22  C1C        7.3900    7.2660   29.1600 C.2   500  HEM500      0.0000
     23  C2C        8.1630    6.8170   27.9890 C.2   500  HEM500      0.0000
     24  C3C        9.4180    6.5350   28.4740 C.2   500  HEM500      0.0000
     25  C4C        9.3500    6.8220   29.9250 C.2   500  HEM500      0.0000
     26  CMC        7.6690    6.6830   26.5410 C.3   500  HEM500      0.0000
     27  CAC       10.5610    6.0640   27.7870 C.2   500  HEM500      0.0000
     28  CBC       10.6420    5.3230   26.6480 C.2   500  HEM500      0.0000
     29  C1D       10.4010    7.2770   32.1080 C.ar  500  HEM500      0.0000
     30  C2D       11.6030    7.4390   32.9030 C.ar  500  HEM500      0.0000
     31  C3D       11.2740    8.1580   33.9900 C.ar  500  HEM500      0.0000
     32  C4D        9.8590    8.4030   33.9210 C.ar  500  HEM500      0.0000
     33  CMD       12.9880    6.8550   32.6400 C.3   500  HEM500      0.0000
     34  CAD       12.2500    8.6200   35.0630 C.3   500  HEM500      0.0000
     35  CBD       12.6200   10.0890   34.9130 C.3   500  HEM500      0.0000
     36  CGD       13.6120   10.5610   35.9630 C.2   500  HEM500      0.0000
     37  O1D       14.2230    9.7040   36.6390 O.co2 500  HEM500      0.0000
     38  O2D       13.7820   11.7950   36.1080 O.co2 500  HEM500      0.0000
     39  NA         7.0280    8.9590   33.7500 N.2   500  HEM500      0.0000
     40  NB         5.7340    8.0760   31.5420 N.ar  500  HEM500      0.0000
     41  NC         8.0980    7.2480   30.3440 N.2   500  HEM500      0.0000
     42  ND         9.3000    7.8220   32.7460 N.ar  500  HEM500      0.0000
     43 FE          7.4720    7.7400   32.2010 Fe    500  HEM500      0.0000
@<TRIPOS>BOND
     1    26    23    1
     2    28    27    2
     3    27    24    1
     4    23    24    2
     5    23    22    1
     6    21    20    2
     7    24    25    1
     8    20    17    1
     9     3    22    2
    10     3    18    1
    11    22    41    1
    12    25    41    2
    13    25     4    1
    14    17    18   ar
    15    17    16   ar
    16    18    40   ar
    17    41    43    1
    18     4    29    2
    19    16    19    1
    20    16    15   ar
    21    40    15   ar
    22    40    43    1
    23    29    42   ar
    24    29    30   ar
    25    15     2    1
    26    43    42    1
    27    43    39    1
    28    33    30    1
    29    42    32   ar
    30    30    31   ar
    31     2     8    2
    32    39     8    1
    33    39     5    2
    34    32    31   ar
    35    32     1    2
    36    31    34    1
    37     8     7    1
    38     5     1    1
    39     5     6    1
    40    35    34    1
    41    35    36    1
    42     7     6    2
    43     7     9    1
    44     6    10    1
    45    36    38   ar
    46    36    37   ar
    47    11    10    1
    48    11    12    1
    49    14    12   ar
    50    12    13   ar
