@<TRIPOS>MOLECULE
4nul_FMN_A_1.pdb
 31 33 0 0 0
SMALL
GASTEIGER

@<TRIPOS>ATOM
      1  N1        27.9330   14.1930   15.9940 N.2   139  FMN139     -0.2887
      2  C2        28.0710   13.9680   17.2900 C.1   139  FMN139      0.3669
      3  O2        27.0860   13.7730   17.9630 O.2   139  FMN139     -0.1744
      4  N3        29.3630   13.9250   17.8650 N.2   139  FMN139     -0.2300
      5  C4        30.5480   14.1010   17.2000 C.1   139  FMN139      0.2513
      6  O4        31.6270   14.0760   17.7760 O.2   139  FMN139     -0.2057
      7  C4A       30.3990   14.3330   15.7570 C.2   139  FMN139      0.2706
      8  N5        31.4840   14.4380   15.0000 N.2   139  FMN139     -0.3841
      9  C5A       31.2860   14.5870   13.6570 C.2   139  FMN139      0.1452
     10  C6        32.4130   14.7020   12.8250 C.2   139  FMN139      0.0252
     11  C7        32.2780   14.9170   11.5000 C.2   139  FMN139     -0.0375
     12  C7M       33.4930   14.9550   10.6110 C.3   139  FMN139      0.0268
     13  C8        30.9890   15.0550   10.9400 C.3   139  FMN139      0.0417
     14  C8M       30.7980   15.2530    9.4660 C.3   139  FMN139      0.0091
     15  C9        29.8670   14.9520   11.7350 C.2   139  FMN139     -0.0049
     16  C9A       29.9860   14.7080   13.0870 C.2   139  FMN139      0.0795
     17  N10       28.8700   14.5300   13.9130 N.pl3 139  FMN139     -0.2545
     18  C10       29.0080   14.3650   15.2550 C.2   139  FMN139      0.2449
     19  C1'       27.5390   14.4860   13.3020 C.3   139  FMN139      0.1336
     20  C2'       26.9490   15.8820   13.0780 C.3   139  FMN139      0.2048
     21  O2'       27.0000   16.6490   14.2760 O.3   139  FMN139     -0.2185
     22  C3'       25.4950   15.7470   12.6360 C.3   139  FMN139      0.2165
     23  O3'       25.4490   15.0590   11.3870 O.3   139  FMN139     -0.2175
     24  C4'       24.7190   17.0610   12.5320 C.3   139  FMN139      0.2147
     25  O4'       23.3660   16.7790   12.1780 O.3   139  FMN139     -0.2176
     26  C5'       25.3250   17.9570   11.4580 C.3   139  FMN139      0.1892
     27  O5'       24.5700   19.1340   11.3220 O.3   139  FMN139     -0.2674
     28  P         24.8580   20.2020   10.1740 P.3   139  FMN139      0.5327
     29  O1P       24.3580   19.7850    8.8870 O.2   139  FMN139     -0.2224
     30  O2P       24.3640   21.4910   10.7010 O.3   139  FMN139     -0.1145
     31  O3P       26.3730   20.3060   10.1530 O.3   139  FMN139     -0.1145
@<TRIPOS>BOND
     1    29    28    2
     2    14    13    1
     3    31    28    1
     4    28    30    1
     5    28    27    1
     6    12    11    1
     7    13    11    1
     8    13    15    1
     9    27    26    1
    10    23    22    1
    11    26    24    1
    12    11    10    2
    13    15    16    2
    14    25    24    1
    15    24    22    1
    16    22    20    1
    17    10     9    1
    18    20    19    1
    19    20    21    1
    20    16     9    1
    21    16    17    1
    22    19    17    1
    23     9     8    2
    24    17    18    1
    25     8     7    2
    26    18     7    1
    27    18     1    2
    28     7     5    1
    29     1     2    2
    30     5     6    2
    31     5     4    2
    32     2     4    2
    33     2     3    2
