@<TRIPOS>MOLECULE
4ovw_IN1_A_1.pdb
 23 23 0 0 0
SMALL
GASTEIGER

@<TRIPOS>ATOM
      1  C1        13.3530   -5.7830   29.1820 C.3   801  IN1801      0.1529
      2  C2        13.0990   -6.5040   30.4640 C.3   801  IN1801      0.1277
      3  C3        13.6830   -5.4110   32.6010 C.3   801  IN1801      0.2992
      4  C7        13.6120   -6.5430   37.3530 C.3   801  IN1801      0.0122
      5  C1B       14.4470   -4.2270   27.9750 C.3   801  IN1801      0.2695
      6  C2B       15.3320   -2.9690   28.0940 C.3   801  IN1801      0.2406
      7  C3B       15.7520   -2.5100   26.7050 C.3   801  IN1801      0.2198
      8  C4B       16.5480   -3.6250   26.0380 C.3   801  IN1801      0.2144
      9  C5B       15.7670   -4.9480   25.9750 C.3   801  IN1801      0.1835
     10  C6B       16.6660   -6.1650   25.5710 C.3   801  IN1801      0.2142
     11  O5B       15.1980   -5.2860   27.2980 O.3   801  IN1801     -0.3256
     12  O2B       14.7510   -1.9750   28.8960 O.3   801  IN1801     -0.2149
     13  O3B       16.6090   -1.3740   26.8890 O.3   801  IN1801     -0.2174
     14  O4B       17.0340   -3.2310   24.7730 O.3   801  IN1801     -0.2176
     15  O6B       15.7230   -7.2470   25.4960 O.3   801  IN1801     -0.2176
     16  O1B       14.2700   -4.7140   29.3270 O.3   801  IN1801     -0.3283
     17  C6        12.5460   -5.5660   31.5770 C.3   801  IN1801      0.3934
     18  O1R       12.0800   -4.3260   31.0600 O.2   801  IN1801     -0.2712
     19  O2        13.1850   -5.3000   33.9030 O.3   801  IN1801     -0.4401
     20  C4        13.2330   -6.2960   34.8910 C.2   801  IN1801      0.3172
     21  C5        13.2400   -5.5810   36.2410 C.3   801  IN1801      0.1096
     22  O3        13.5080   -7.4890   34.7210 O.2   801  IN1801     -0.2501
     23  O4S       11.4440   -6.1930   32.1840 O.2   801  IN1801     -0.2712
@<TRIPOS>BOND
     1    14     8    1
     2    15    10    1
     3    10     9    1
     4     9     8    1
     5     9    11    1
     6     8     7    1
     7     7    13    1
     8     7     6    1
     9    11     5    1
    10     5     6    1
    11     5    16    1
    12     6    12    1
    13     1    16    1
    14     1     2    1
    15     2    17    1
    16    18    17    1
    17    17    23    1
    18    17     3    1
    19     3    19    1
    20    19    20    1
    21    22    20    2
    22    20    21    1
    23    21     4    1
