@<TRIPOS>MOLECULE
4pad_TCK_A_1.pdb
 20 20 0 0 0
SMALL
GASTEIGER

@<TRIPOS>ATOM
      1  S         17.3100   29.4860   12.3540 S.O2  213  TCK213      0.0772
      2  O1S       17.1880   30.9940   12.6790 O.2   213  TCK213     -0.1516
      3  O2S       17.9570   28.6940   13.4620 O.2   213  TCK213     -0.1516
      4  C1        18.4440   29.2920   10.8960 C.ar  213  TCK213      0.1235
      5  C2        18.9190   27.9790   10.6140 C.ar  213  TCK213      0.0196
      6  C3        19.8070   27.8450    9.5080 C.ar  213  TCK213     -0.0029
      7  C4        20.2200   28.9770    8.8350 C.ar  213  TCK213     -0.0218
      8  C5        19.7440   30.2400    9.1180 C.ar  213  TCK213     -0.0029
      9  C6        18.9070   30.4230   10.2230 C.ar  213  TCK213      0.0196
     10  C7        21.2050   28.7880    7.5290 C.3   213  TCK213      0.0310
     11  N         16.0980   29.0480   11.8730 N.3   213  TCK213     -0.0718
     12  CA        14.9030   28.9320   12.6860 C.3   213  TCK213      0.1547
     13  C         15.1030   28.2010   13.9970 C.2   213  TCK213      0.1686
     14  O         15.2850   27.1000   14.1640 O.2   213  TCK213     -0.2945
     15  CB        13.8860   28.4320   11.7040 C.3   213  TCK213      0.0269
     16  CG        12.2930   28.6660   12.1640 C.3   213  TCK213      0.0035
     17  CD        11.5790   28.4080   11.0250 C.3   213  TCK213      0.0206
     18  CE        10.0370   28.6910   11.4350 C.3   213  TCK213      0.1093
     19  NZ         9.3780   28.7830   10.3390 N.3   213  TCK213     -0.1314
     20  CM        15.1290   29.1700   15.1300 C.3   213  TCK213      0.0738
@<TRIPOS>BOND
     1    10     7    1
     2     7     8   ar
     3     7     6   ar
     4     8     9   ar
     5     6     5   ar
     6     9     4   ar
     7    19    18    1
     8     5     4   ar
     9     4     1    1
    10    17    18    1
    11    17    16    1
    12    15    16    1
    13    15    12    1
    14    11     1    1
    15    11    12    1
    16     1     2    2
    17     1     3    2
    18    12    13    1
    19    13    14    2
    20    13    20    1
