@<TRIPOS>MOLECULE
4pah_LNR_A_1.pdb
 12 12 0 0 0
SMALL
GASTEIGER

@<TRIPOS>ATOM
      1  OAC       -1.2650   24.8400    4.5210 O.3   600  LNR600     -0.2832
      2  CAJ       -2.5670   25.1570    4.9300 C.ar  600  LNR600      0.2340
      3  CAG       -3.7320   24.9340    4.1190 C.ar  600  LNR600      0.0436
      4  CAI       -2.7320   25.7230    6.2490 C.ar  600  LNR600      0.2342
      5  OAB       -1.6470   25.9260    7.0350 O.3   600  LNR600     -0.2831
      6  CAE       -4.0170   26.0670    6.7600 C.ar  600  LNR600      0.0452
      7  CAF       -5.1680   25.8490    5.9760 C.ar  600  LNR600      0.0017
      8  CAK       -5.0570   25.2810    4.6450 C.ar  600  LNR600      0.0126
      9  CAL       -6.3790   25.0020    3.8370 C.3   600  LNR600      0.1933
     10  OAD       -6.1060   24.4380    2.5420 O.3   600  LNR600     -0.2167
     11  CAH       -7.2680   26.3100    3.7100 C.3   600  LNR600      0.1466
     12  NAA       -7.5700   26.8780    5.0620 N.3   600  LNR600     -0.1282
@<TRIPOS>BOND
     1    10     9    1
     2    11     9    1
     3    11    12    1
     4     9     8    1
     5     3     8   ar
     6     3     2   ar
     7     1     2    1
     8     8     7   ar
     9     2     4   ar
    10     7     6   ar
    11     4     6   ar
    12     4     5    1
