@<TRIPOS>MOLECULE
4pax_NU1_A_1.pdb
 13 14 0 0 0
SMALL
GASTEIGER

@<TRIPOS>ATOM
      1  C5        39.8440   22.5140   21.9820 C.3     1  NU11        0.2272
      2  O5        38.4950   22.3890   21.5850 O.3     1  NU11       -0.2105
      3  C4A       40.8640   23.0640   21.1180 C.2     1  NU11        0.1674
      4  N4        40.5810   23.5140   19.8540 N.2     1  NU11       -0.3435
      5  C3        41.4750   24.0120   19.0810 C.1     1  NU11        0.1267
      6  C9        41.0660   24.4710   17.7210 C.3     1  NU11        0.1438
      7  N2        42.7650   24.1310   19.4150 N.2     1  NU11       -0.2706
      8  C1        43.2080   23.7340   20.6200 C.1     1  NU11        0.2163
      9  O1        44.3880   23.8360   20.9660 O.2     1  NU11       -0.2085
     10  C8A       42.2000   23.1530   21.5860 C.2     1  NU11        0.1244
     11  C8        42.5440   22.7080   22.8850 C.2     1  NU11        0.0148
     12  C7        41.5410   22.1690   23.7240 C.2     1  NU11       -0.0008
     13  C6        40.2080   22.0680   23.2730 C.2     1  NU11        0.0134
@<TRIPOS>BOND
     1     6     5    1
     2     5     7    2
     3     5     4    2
     4     7     8    2
     5     4     3    2
     6     8     9    2
     7     8    10    1
     8     3    10    1
     9     3     1    1
    10     2     1    1
    11    10    11    2
    12     1    13    1
    13    11    12    1
    14    13    12    2
