@<TRIPOS>MOLECULE
4pbg_BGP_A_1.pdb
 16 16 0 0 0
SMALL
GASTEIGER

@<TRIPOS>ATOM
      1  C1        22.7040   71.4310    7.6190 C.3   469  BGP469      0.3024
      2  C2        22.0470   72.0640    6.4370 C.3   469  BGP469      0.2434
      3  C3        20.5760   72.0420    6.8330 C.3   469  BGP469      0.2199
      4  C4        20.1270   70.6020    6.9950 C.3   469  BGP469      0.2143
      5  C5        21.1210   69.6370    7.7060 C.3   469  BGP469      0.1808
      6  C6        21.1430   68.2520    7.0640 C.3   469  BGP469      0.1859
      7  O1        24.0490   71.6510    7.5530 O.3   469  BGP469     -0.1869
      8  O2        22.5090   73.3990    6.2760 O.3   469  BGP469     -0.2148
      9  O3        19.7700   72.7140    5.8560 O.3   469  BGP469     -0.2174
     10  O4        19.8220   70.0850    5.7120 O.3   469  BGP469     -0.2176
     11  O5        22.4860   70.0410    7.5800 O.3   469  BGP469     -0.3237
     12  O6        20.2940   67.3570    7.7270 O.3   469  BGP469     -0.2675
     13  P         19.3230   66.7260    6.7060 P.3   469  BGP469      0.5327
     14  O1P       18.3290   67.8000    6.2060 O.3   469  BGP469     -0.1145
     15  O2P       20.0710   66.1390    5.4890 O.2   469  BGP469     -0.2224
     16  O3P       18.5350   65.6180    7.3960 O.3   469  BGP469     -0.1145
@<TRIPOS>BOND
     1    15    13    2
     2    10     4    1
     3     9     3    1
     4    14    13    1
     5     8     2    1
     6     2     3    1
     7     2     1    1
     8    13    16    1
     9    13    12    1
    10     3     4    1
    11     4     5    1
    12     6     5    1
    13     6    12    1
    14     7     1    1
    15    11     1    1
    16    11     5    1
