@<TRIPOS>MOLECULE
4pfk_F6P_A_1.pdb
 16 16 0 0 0
SMALL
GASTEIGER

@<TRIPOS>ATOM
      1  O1        13.6260   -9.2010   16.8410 O.3   323  F6P323     -0.2148
      2  C1        12.3620   -8.7030   16.4390 C.3   323  F6P323      0.2434
      3  C2        11.6180   -8.0430   17.6220 C.3   323  F6P323      0.2807
      4  O2        10.3910   -7.5370   17.0450 O.3   323  F6P323     -0.1896
      5  C3        12.2980   -6.9490   18.4750 C.3   323  F6P323      0.2409
      6  O3        12.3640   -5.6180   17.9600 O.3   323  F6P323     -0.2149
      7  C4        11.3820   -6.9190   19.7040 C.3   323  F6P323      0.2167
      8  O4        11.9510   -6.3780   20.8960 O.3   323  F6P323     -0.2175
      9  C5        11.1310   -8.4240   19.8870 C.3   323  F6P323      0.1808
     10  O5        11.2830   -9.0910   18.5900 O.3   323  F6P323     -0.3254
     11  C6         9.7520   -8.7290   20.4730 C.3   323  F6P323      0.1859
     12  O6         9.8640  -10.0530   21.0180 O.3   323  F6P323     -0.2675
     13  P          8.6100  -11.0650   20.8990 P.3   323  F6P323      0.5327
     14  O1P        8.4290  -11.2910   19.4480 O.2   323  F6P323     -0.2224
     15  O2P        9.0070  -12.3030   21.5860 O.3   323  F6P323     -0.1145
     16  O3P        7.4480  -10.4260   21.5530 O.3   323  F6P323     -0.1145
@<TRIPOS>BOND
     1     2     1    1
     2     2     3    1
     3     4     3    1
     4     3     5    1
     5     3    10    1
     6     6     5    1
     7     5     7    1
     8    10     9    1
     9    14    13    2
    10     7     9    1
    11     7     8    1
    12     9    11    1
    13    11    12    1
    14    13    12    1
    15    13    16    1
    16    13    15    1
