@<TRIPOS>MOLECULE
4pfk_ADP_A_1.pdb
 27 29 0 0 0
SMALL
GASTEIGER

@<TRIPOS>ATOM
      1  PB        17.2070  -14.3270   19.2000 P.3   324  ADP324      0.5373
      2  O1B       18.4670  -13.8790   19.8700 O.3   324  ADP324     -0.1143
      3  O2B       16.0050  -14.0600   20.0160 O.3   324  ADP324     -0.1143
      4  O3B       17.2570  -13.9020   17.7750 O.2   324  ADP324     -0.2221
      5  PA        17.4920  -16.8180   20.5030 P.3   324  ADP324      0.2231
      6  O1A       18.4650  -16.0930   21.3920 O.3   324  ADP324     -0.4370
      7  O2A       16.2250  -16.9290   21.2700 O.2   324  ADP324     -0.5169
      8  O3A       17.2370  -15.9580   19.1300 O.3   324  ADP324     -0.2261
      9  O5'       18.1250  -18.1160   19.8860 O.3   324  ADP324     -0.3111
     10  C5'       17.4270  -18.8130   18.8140 C.3   324  ADP324      0.1813
     11  C4'       17.7400  -20.2540   19.2600 C.3   324  ADP324      0.1821
     12  O4'       19.1790  -20.3390   18.8940 O.3   324  ADP324     -0.3135
     13  C3'       17.8570  -20.5210   20.7600 C.3   324  ADP324      0.2184
     14  O3'       16.6710  -20.6800   21.5140 O.3   324  ADP324     -0.2174
     15  C2'       18.7310  -21.7700   20.7440 C.3   324  ADP324      0.2570
     16  O2'       18.3120  -23.0570   20.3060 O.3   324  ADP324     -0.2130
     17  C1'       19.8240  -21.2570   19.7360 C.3   324  ADP324      0.3186
     18  N9        20.9060  -20.7300   20.5630 N.pl3 324  ADP324     -0.1439
     19  C8        21.0780  -19.5700   21.2510 C.3   324  ADP324      0.3377
     20  N7        22.2220  -19.6020   21.9420 N.2   324  ADP324     -0.2095
     21  C5        22.7660  -20.8510   21.7080 C.2   324  ADP324      0.2526
     22  C6        23.9370  -21.5020   22.1340 C.2   324  ADP324      0.4393
     23  N6        24.8280  -20.9170   22.9330 N.pl3 324  ADP324      0.2180
     24  N1        24.1610  -22.7760   21.6880 N.2   324  ADP324      0.0021
     25  C2        23.2200  -23.3240   20.8550 C.3   324  ADP324      0.5254
     26  N3        22.1060  -22.8230   20.3940 N.2   324  ADP324     -0.0055
     27  C4        21.9610  -21.5720   20.8680 C.2   324  ADP324      0.3518
@<TRIPOS>BOND
     1     4     1    2
     2    10    11    1
     3    10     9    1
     4    12    11    1
     5    12    17    1
     6     8     1    1
     7     8     5    1
     8     1     2    1
     9     1     3    1
    10    11    13    1
    11    17    18    1
    12    17    15    1
    13     9     5    1
    14    16    15    1
    15    26    25    1
    16    26    27    2
    17     5     7    2
    18     5     6    1
    19    18    27    1
    20    18    19    1
    21    15    13    1
    22    13    14    1
    23    25    24    1
    24    27    21    1
    25    19    20    1
    26    24    22    2
    27    21    20    2
    28    21    22    1
    29    22    23    1
