@<TRIPOS>MOLECULE
4pgt_GBX_A_1.pdb
 43 47 0 0 0
SMALL
GASTEIGER

@<TRIPOS>ATOM
      1  O2        24.0470   -4.1140    4.3740 O.2   211  GBX211     -0.2714
      2  C1        18.6240   -2.9420    9.6110 C.2   211  GBX211      0.3819
      3  C2        24.8710   -4.3750    5.2500 C.2   211  GBX211      0.2626
      4  C3        27.4770   -2.3850    3.9910 C.2   211  GBX211      0.3865
      5  N1        19.7710   -1.0390   10.8090 N.3   211  GBX211     -0.1208
      6  C7        25.6780   -6.9050   10.4280 C.3   211  GBX211      0.2333
      7  N2        23.1010   -4.3400    6.9390 N.am  211  GBX211     -0.1969
      8  N3        26.1770   -4.2040    5.0760 N.am  211  GBX211     -0.1917
      9  CA1       19.7940   -1.9700    9.6540 C.3   211  GBX211      0.1948
     10  O11       18.1680   -3.3280    8.5240 O.co2 211  GBX211     -0.2441
     11  O12       18.1580   -3.3240   10.7080 O.co2 211  GBX211     -0.2441
     12  CB1       21.1020   -2.7630    9.6250 C.3   211  GBX211      0.0402
     13  CG1       21.3610   -3.3520    8.2450 C.3   211  GBX211      0.0889
     14  CD1       22.7730   -3.8900    8.1410 C.2   211  GBX211      0.2418
     15  OE1       23.5200   -3.9050    9.1210 O.2   211  GBX211     -0.2733
     16  CA2       24.4020   -4.9120    6.6030 C.3   211  GBX211      0.1834
     17  CB2       24.2410   -6.4350    6.5240 C.3   211  GBX211      0.0890
     18  SG2       22.9680   -7.1310    7.6100 S.3   211  GBX211     -0.1313
     19  CA3       26.7720   -3.7200    3.8260 C.3   211  GBX211      0.2285
     20  O31       28.2820   -2.0040    3.1360 O.co2 211  GBX211     -0.2437
     21  O32       27.2120   -1.7110    5.0140 O.co2 211  GBX211     -0.2437
     22  O7        26.2450   -5.8190   10.5800 O.3   211  GBX211     -0.2101
     23  C8        24.4410   -6.8640   10.5530 C.2   211  GBX211      0.2162
     24  O8        24.0420   -6.3940   11.6200 O.2   211  GBX211     -0.2903
     25  C9        23.6280   -8.0690   10.1010 C.3   211  GBX211      0.2254
     26  O9        23.7000   -9.2330   10.9120 O.3   211  GBX211     -0.2137
     27  C10       23.8580   -8.3670    8.6160 C.3   211  GBX211      0.1073
     28  C1'       27.6000   -7.6830    9.0140 C.ar  211  GBX211     -0.0017
     29  C2'       26.2180   -7.6680    9.2400 C.ar  211  GBX211      0.0119
     30  C3'       25.3580   -8.4030    8.3810 C.ar  211  GBX211     -0.0108
     31  C4'       25.0860   -9.8900    6.4750 C.ar  211  GBX211     -0.0003
     32  C5'       25.6290  -10.6220    5.4220 C.ar  211  GBX211     -0.0000
     33  C6'       27.5530  -11.3980    4.1920 C.ar  211  GBX211     -0.0000
     34  C7'       28.9370  -11.4240    4.0030 C.ar  211  GBX211      0.0000
     35  C8'       29.7800  -10.7010    4.8500 C.ar  211  GBX211     -0.0000
     36  C9'       30.0650   -9.2270    6.7400 C.ar  211  GBX211     -0.0000
     37  C9A       29.5190   -8.4620    7.7720 C.ar  211  GBX211     -0.0000
     38  C11       28.1380   -8.4240    7.9660 C.ar  211  GBX211     -0.0002
     39  C12       27.2970   -9.1590    7.1200 C.ar  211  GBX211     -0.0003
     40  C13       25.9150   -9.1530    7.3300 C.ar  211  GBX211     -0.0033
     41  C16       27.0090  -10.6620    5.2410 C.ar  211  GBX211     -0.0000
     42  C17       27.8420   -9.9040    6.0660 C.ar  211  GBX211     -0.0000
     43  C18       29.2300   -9.9390    5.8800 C.ar  211  GBX211     -0.0000
@<TRIPOS>BOND
     1    20     4   ar
     2    19     4    1
     3    19     8    1
     4     4    21   ar
     5    34    33   ar
     6    34    35   ar
     7    33    41   ar
     8     1     3    2
     9    35    43   ar
    10     8     3   am
    11    41    32   ar
    12    41    42   ar
    13     3    16    1
    14    32    31   ar
    15    43    42   ar
    16    43    36   ar
    17    42    39   ar
    18    31    40   ar
    19    17    16    1
    20    17    18    1
    21    16     7    1
    22    36    37   ar
    23     7    14   am
    24    39    40   ar
    25    39    38   ar
    26    40    30   ar
    27    18    27    1
    28    37    38   ar
    29    38    28   ar
    30    14    13    1
    31    14    15    2
    32    13    12    1
    33    30    27    1
    34    30    29   ar
    35    10     2   ar
    36    27    25    1
    37    28    29   ar
    38    29     6    1
    39     2     9    1
    40     2    11   ar
    41    12     9    1
    42     9     5    1
    43    25    23    1
    44    25    26    1
    45     6    23    1
    46     6    22    1
    47    23    24    2
