@<TRIPOS>MOLECULE
4phv_VAC_B_1.pdb
 46 51 0 0 0
SMALL
GASTEIGER

@<TRIPOS>ATOM
      1  C1        14.2740   23.8800    4.7040 C.3   100  VAC100      0.1530
      2  O2        14.6740   25.1820    4.4070 O.3   100  VAC100     -0.2231
      3  C3        13.0630   23.3670    3.9880 C.3   100  VAC100      0.0424
      4  C4        14.0950   23.7330    6.2420 C.3   100  VAC100      0.0424
      5  C6        15.2770   22.9090    6.7150 C.3   100  VAC100      0.0851
      6  C9        11.9110   24.2230    3.6800 C.3   100  VAC100      0.0851
      7  C12       15.2590   22.8430    8.2380 C.3   100  VAC100      0.0355
      8  C13       15.2450   21.4600    6.2260 C.2   100  VAC100      0.2416
      9  O15       14.1690   20.8740    6.2710 O.2   100  VAC100     -0.2733
     10  C16       16.3550   21.9480    8.7590 C.ar  100  VAC100     -0.0217
     11  N19       16.3800   20.9810    5.7720 N.am  100  VAC100     -0.2001
     12  C20       16.6070   19.6130    5.3960 C.3   100  VAC100      0.1477
     13  C21       18.0260   19.1690    5.7690 C.3   100  VAC100      0.1802
     14  O22       19.0830   20.0530    5.4600 O.3   100  VAC100     -0.2206
     15  C23       16.4960   19.1910    3.9790 C.ar  100  VAC100     -0.0040
     16  C25       17.3700   18.1740    3.7190 C.ar  100  VAC100     -0.0218
     17  C26       18.1920   17.8580    4.9290 C.3   100  VAC100      0.0611
     18  C30       10.9560   24.3500    4.8800 C.2   100  VAC100      0.2416
     19  C31       11.0920   23.5370    2.5550 C.3   100  VAC100      0.0355
     20  C33        9.7220   24.1410    2.3520 C.ar  100  VAC100     -0.0217
     21  O36       10.7720   23.3470    5.6250 O.2   100  VAC100     -0.2733
     22  C37       17.5020   17.5510    2.4610 C.ar  100  VAC100     -0.0044
     23  C38       16.6360   18.0180    1.4850 C.ar  100  VAC100     -0.0003
     24  C39       15.7560   19.0840    1.7360 C.ar  100  VAC100     -0.0003
     25  C40       15.6460   19.6780    2.9860 C.ar  100  VAC100     -0.0029
     26  C45        8.5790   23.5260    2.8330 C.ar  100  VAC100     -0.0043
     27  C46        7.3220   24.1070    2.6460 C.ar  100  VAC100     -0.0003
     28  C47        7.1770   25.3410    1.9760 C.ar  100  VAC100     -0.0000
     29  C48        8.3370   25.9830    1.5050 C.ar  100  VAC100     -0.0003
     30  C49        9.5510   25.3390    1.6850 C.ar  100  VAC100     -0.0043
     31  C55       17.6910   22.2530    8.5280 C.ar  100  VAC100     -0.0043
     32  C56       18.6940   21.3890    9.0150 C.ar  100  VAC100     -0.0003
     33  C57       18.3210   20.2390    9.7120 C.ar  100  VAC100     -0.0000
     34  C58       16.9610   19.8950    9.9220 C.ar  100  VAC100     -0.0003
     35  C59       15.9950   20.7730    9.4240 C.ar  100  VAC100     -0.0043
     36  C68        7.4160   27.0590    6.7900 C.3   100  VAC100      0.0611
     37  C69        8.1740   26.6170    5.5020 C.3   100  VAC100      0.1802
     38  O70        8.7470   27.7300    4.7940 O.3   100  VAC100     -0.2206
     39  C71        9.3080   25.7010    6.0440 C.3   100  VAC100      0.1477
     40  C73        9.6460   26.4250    7.3170 C.ar  100  VAC100     -0.0040
     41  C76        8.5840   27.1890    7.7290 C.ar  100  VAC100     -0.0218
     42  C77       10.8630   26.3550    7.9970 C.ar  100  VAC100     -0.0029
     43  C78       10.9630   27.1200    9.1510 C.ar  100  VAC100     -0.0003
     44  C79        9.8670   27.8630    9.5950 C.ar  100  VAC100     -0.0003
     45  C80        8.6560   27.9530    8.9010 C.ar  100  VAC100     -0.0044
     46  N86       10.3560   25.4970    5.0420 N.am  100  VAC100     -0.2001
@<TRIPOS>BOND
     1    23    24   ar
     2    23    22   ar
     3    29    30   ar
     4    29    28   ar
     5    30    20   ar
     6    24    25   ar
     7    28    27   ar
     8    20    19    1
     9    20    26   ar
    10    22    16   ar
    11    19     6    1
    12    27    26   ar
    13    25    15   ar
    14     6     3    1
    15     6    18    1
    16    16    15   ar
    17    16    17    1
    18    15    12    1
    19     3     1    1
    20     2     1    1
    21     1     4    1
    22    38    37    1
    23    18    46   am
    24    18    21    2
    25    17    13    1
    26    46    39    1
    27    12    13    1
    28    12    11    1
    29    14    13    1
    30    37    39    1
    31    37    36    1
    32    11     8   am
    33    39    40    1
    34     8     9    2
    35     8     5    1
    36     4     5    1
    37     5     7    1
    38    36    41    1
    39    40    41   ar
    40    40    42   ar
    41    41    45   ar
    42    42    43   ar
    43     7    10    1
    44    31    10   ar
    45    31    32   ar
    46    10    35   ar
    47    45    44   ar
    48    32    33   ar
    49    43    44   ar
    50    35    34   ar
    51    33    34   ar
