@<TRIPOS>MOLECULE
4prg_072_A_1.pdb
 44 47 0 0 0
SMALL
GASTEIGER

@<TRIPOS>ATOM
      1  S1B       17.0450   61.3720    9.5360 S.3     1  0721       -0.1122
      2  C1A       15.7050   63.5340    9.0970 C.2     1  0721        0.2366
      3  C1B       15.4470   62.0290    9.3860 C.3     1  0721        0.1345
      4  O1A       14.7380   64.2190    8.6530 O.2     1  0721       -0.2739
      5  C1C       14.6450   61.4410   10.6070 C.3     1  0721        0.1053
      6  C1D       15.1760   61.4050   12.1560 C.2     1  0721        0.2275
      7  O1D       15.9240   62.3960   12.4020 O.2     1  0721       -0.2748
      8  C2A       18.0200   62.8370    9.5680 C.3     1  0721        0.1241
      9  C2B       19.3140   62.5280    8.6420 C.3     1  0721        0.0311
     10  C2C       20.7210   63.2050    8.9350 C.3     1  0721        0.0030
     11  C2D       21.8150   62.5170    9.9040 C.3     1  0721        0.0047
     12  C2E       23.0330   63.1800   10.7060 C.3     1  0721        0.0257
     13  C2F       23.8430   64.4340   10.1730 C.2     1  0721       -0.0307
     14  C2G       25.2850   64.9060   10.6660 C.2     1  0721       -0.0304
     15  C2H       25.7720   66.3580   10.3200 C.3     1  0721        0.0303
     16  N3A       17.0270   63.9800    9.2720 N.am    1  0721       -0.2672
     17  C3B       17.3740   65.5280    9.4060 C.3     1  0721        0.1203
     18  C3C       17.9660   66.3890    8.1850 C.2     1  0721       -0.0089
     19  C3D       16.9980   67.3490    7.3670 C.2     1  0721       -0.0243
     20  C3E       17.3930   68.2540    6.0950 C.3     1  0721        0.0520
     21  C3F       18.2610   69.6140    6.1620 C.ar    1  0721       -0.0178
     22  C3G       17.7350   70.8900    6.7010 C.ar    1  0721       -0.0037
     23  C3H       19.5480   69.6760    5.4740 C.ar    1  0721       -0.0037
     24  C3I       18.4360   72.1490    6.5090 C.ar    1  0721        0.0063
     25  C3J       20.2350   70.9100    5.2810 C.ar    1  0721        0.0063
     26  C3K       19.6840   72.1790    5.7570 C.ar    1  0721        0.0798
     27  C3L       20.3760   73.4420    5.4510 C.2     1  0721        0.3878
     28  O3M       21.0540   73.5760    4.3740 O.co2   1  0721       -0.2406
     29  O3N       20.3420   74.3690    6.2940 O.co2   1  0721       -0.2406
     30  N4A       14.9190   60.4080   13.2010 N.am    1  0721       -0.2713
     31  C4B       15.9560   60.2590   14.4260 C.3     1  0721        0.1204
     32  C4C       17.5710   60.3240   14.4840 C.ar    1  0721       -0.0023
     33  C4E       18.3010   60.3860   15.7750 C.ar    1  0721       -0.0026
     34  C4D       18.3720   60.1500   13.2690 C.ar    1  0721       -0.0026
     35  C4G       19.7280   60.1480   15.8290 C.ar    1  0721       -0.0003
     36  C4F       19.7970   60.0440   13.3440 C.ar    1  0721       -0.0003
     37  C4H       20.4600   59.9520   14.6060 C.ar    1  0721       -0.0000
     38  C5B       13.7400   59.3530   13.1910 C.3     1  0721        0.1204
     39  C5C       12.1820   59.7020   13.2590 C.ar    1  0721       -0.0023
     40  C5D       11.4090   59.8170   11.9760 C.ar    1  0721       -0.0026
     41  C5E       11.4280   59.3810   14.4740 C.ar    1  0721       -0.0026
     42  C5F       10.0020   59.4530   11.8890 C.ar    1  0721       -0.0003
     43  C5G       10.0210   59.0370   14.3800 C.ar    1  0721       -0.0003
     44  C5H        9.3160   59.0480   13.0840 C.ar    1  0721       -0.0000
@<TRIPOS>BOND
     1    28    27   ar
     2    25    23   ar
     3    25    26   ar
     4    27    26    1
     5    27    29   ar
     6    23    21   ar
     7    26    24   ar
     8    20    21    1
     9    20    19    1
    10    21    22   ar
    11    24    22   ar
    12    19    18    2
    13    18    17    1
    14     9    10    1
    15     9     8    1
    16     4     2    2
    17    10    11    1
    18     2    16   am
    19     2     3    1
    20    16    17    1
    21    16     8    1
    22     3     1    1
    23     3     5    1
    24     1     8    1
    25    11    12    1
    26    13    14    2
    27    13    12    1
    28    15    14    1
    29     5     6    1
    30    42    40   ar
    31    42    44   ar
    32    40    39   ar
    33     6     7    2
    34     6    30   am
    35    44    43   ar
    36    38    30    1
    37    38    39    1
    38    30    31    1
    39    39    41   ar
    40    34    36   ar
    41    34    32   ar
    42    36    37   ar
    43    43    41   ar
    44    31    32    1
    45    32    33   ar
    46    37    35   ar
    47    33    35   ar
