@<TRIPOS>MOLECULE
4q21_GDP_A_1.pdb
 28 30 0 0 0
SMALL
GASTEIGER

@<TRIPOS>ATOM
      1  PB        62.6670   77.7810   47.5050 P.3   274  GDP274      0.5373
      2  O1B       61.5870   77.4130   46.6260 O.2   274  GDP274     -0.2221
      3  O2B       63.2940   79.0980   47.3360 O.3   274  GDP274     -0.1143
      4  O3B       63.8040   76.7310   47.4100 O.3   274  GDP274     -0.1143
      5  O3A       62.2810   77.6440   49.0120 O.3   274  GDP274     -0.2261
      6  PA        62.7810   76.5630   50.1160 P.3   274  GDP274      0.2231
      7  O1A       64.2000   76.8580   50.4630 O.3   274  GDP274     -0.4370
      8  O2A       62.4590   75.1870   49.6710 O.2   274  GDP274     -0.5169
      9  O5'       61.9270   76.9290   51.2220 O.3   274  GDP274     -0.3111
     10  C5'       61.6900   78.2900   51.5720 C.3   274  GDP274      0.1813
     11  C4'       61.2600   78.3930   53.0020 C.3   274  GDP274      0.1799
     12  O4'       59.9890   77.7480   53.1850 O.3   274  GDP274     -0.3326
     13  C3'       62.1810   77.7470   54.0150 C.3   274  GDP274      0.2158
     14  O3'       62.2910   78.4990   55.1790 O.3   274  GDP274     -0.2175
     15  C2'       61.5480   76.4200   54.2950 C.3   274  GDP274      0.2310
     16  O2'       61.8460   76.0850   55.6430 O.3   274  GDP274     -0.2158
     17  C1'       60.0780   76.7920   54.2240 C.3   274  GDP274      0.2293
     18  N9        59.2580   75.6300   53.8440 N.pl3 274  GDP274     -0.2354
     19  C8        59.2550   75.0410   52.6120 C.3   274  GDP274      0.2246
     20  N7        58.3340   74.1580   52.4600 N.2   274  GDP274     -0.2322
     21  C5        57.5500   74.2780   53.5900 C.2   274  GDP274      0.2182
     22  C6        56.4990   73.6380   53.8770 C.1   274  GDP274      0.2372
     23  O6        56.0050   72.7340   53.2330 O.2   274  GDP274     -0.2069
     24  N1        55.9070   74.0490   55.0530 N.2   274  GDP274     -0.2485
     25  C2        56.4360   74.9390   55.9010 C.1   274  GDP274      0.2531
     26  N2        55.7470   75.1290   57.0250 N.pl3 274  GDP274     -0.0226
     27  N3        57.5740   75.5690   55.6620 N.2   274  GDP274     -0.3074
     28  C4        58.1100   75.1380   54.4930 C.2   274  GDP274      0.2300
@<TRIPOS>BOND
     1     2     1    2
     2     3     1    1
     3     4     1    1
     4     1     5    1
     5     5     6    1
     6     8     6    2
     7     6     7    1
     8     6     9    1
     9     9    10    1
    10    10    11    1
    11    20    19    1
    12    20    21    2
    13    19    18    1
    14    11    12    1
    15    11    13    1
    16    12    17    1
    17    23    22    2
    18    21    22    1
    19    21    28    1
    20    18    17    1
    21    18    28    1
    22    22    24    2
    23    13    15    1
    24    13    14    1
    25    17    15    1
    26    15    16    1
    27    28    27    2
    28    24    25    2
    29    27    25    2
    30    25    26    1
