@<TRIPOS>MOLECULE
4r1r_TTP_A_1.pdb
 29 30 0 0 0
SMALL
GASTEIGER

@<TRIPOS>ATOM
      1  PA         2.8270   82.1590   -9.2190 P.3   762  TTP762      0.2189
      2  O1A        3.5010   82.7150  -10.3830 O.2   762  TTP762     -0.5170
      3  O2A        1.4670   81.6220   -9.5050 O.3   762  TTP762     -0.4371
      4  O3A        3.5480   80.8990   -8.5450 O.3   762  TTP762     -0.2700
      5  PB         4.2480   79.6580   -9.2330 P.3   762  TTP762      0.2277
      6  O1B        3.6590   79.4360  -10.5280 O.2   762  TTP762     -0.5168
      7  O2B        4.4080   78.5350   -8.2700 O.3   762  TTP762     -0.4368
      8  O3B        5.6290   80.4290   -9.4780 O.3   762  TTP762     -0.2258
      9  PG         6.9060   80.2850  -10.4660 P.3   762  TTP762      0.5373
     10  O1G        6.7890   81.3360  -11.4920 O.2   762  TTP762     -0.2221
     11  O2G        8.2090   80.3520   -9.6880 O.3   762  TTP762     -0.1143
     12  O3G        6.8070   78.9860  -11.0540 O.3   762  TTP762     -0.1143
     13  O5'        3.0800   83.2590   -8.0910 O.3   762  TTP762     -0.3112
     14  C5'        4.4450   83.6290   -7.8370 C.3   762  TTP762      0.1812
     15  C4'        4.7530   85.0490   -7.6340 C.3   762  TTP762      0.1773
     16  O4'        4.9700   85.6400   -8.8850 O.3   762  TTP762     -0.3339
     17  C3'        3.7210   85.8300   -6.8700 C.3   762  TTP762      0.1857
     18  O3'        4.2910   86.0870   -5.5970 O.3   762  TTP762     -0.2203
     19  C2'        3.3790   86.9890   -7.7360 C.3   762  TTP762      0.0874
     20  C1'        4.1440   86.7930   -9.0510 C.3   762  TTP762      0.2090
     21  N1         3.4740   86.9620  -10.3290 N.am  762  TTP762     -0.1794
     22  C2         3.4940   88.2480  -10.8840 C.1   762  TTP762      0.2844
     23  O2         3.8870   89.2120  -10.2300 O.2   762  TTP762     -0.1918
     24  N3         3.0810   88.3690  -12.2210 N.2   762  TTP762     -0.2455
     25  C4         2.6570   87.3010  -13.0100 C.1   762  TTP762      0.2134
     26  O4         2.3170   87.5020  -14.1710 O.2   762  TTP762     -0.2088
     27  C5         2.6560   86.0130  -12.3440 C.2   762  TTP762      0.0891
     28  C5M        2.2140   84.7630  -13.0910 C.3   762  TTP762      0.0462
     29  C6         3.0380   85.8810  -11.0650 C.2   762  TTP762      0.0877
@<TRIPOS>BOND
     1    26    25    2
     2    28    27    1
     3    25    27    1
     4    25    24    2
     5    27    29    2
     6    24    22    2
     7    10     9    2
     8    29    21    1
     9    12     9    1
    10    22    21   am
    11    22    23    2
    12     6     5    2
    13     9    11    1
    14     9     8    1
    15     2     1    2
    16    21    20    1
    17     3     1    1
    18     8     5    1
    19     5     4    1
    20     5     7    1
    21     1     4    1
    22     1    13    1
    23    20    16    1
    24    20    19    1
    25    16    15    1
    26    13    14    1
    27    14    15    1
    28    19    17    1
    29    15    17    1
    30    17    18    1
