@<TRIPOS>MOLECULE
4r1r_GDP_A_1.pdb
 28 30 0 0 0
SMALL
GASTEIGER

@<TRIPOS>ATOM
      1  PB       -10.3040   96.8940   24.3550 P.3   763  GDP763      0.5373
      2  O1B       -9.8990   98.0470   25.1520 O.3   763  GDP763     -0.1143
      3  O2B      -11.1410   95.8530   24.9630 O.3   763  GDP763     -0.1143
      4  O3B      -11.0050   97.4210   23.0730 O.2   763  GDP763     -0.2221
      5  O3A       -9.0190   96.1520   23.7260 O.3   763  GDP763     -0.2261
      6  PA        -8.5880   94.6050   23.8490 P.3   763  GDP763      0.2231
      7  O1A       -8.4060   94.2550   25.2880 O.3   763  GDP763     -0.4370
      8  O2A       -9.4370   93.7670   23.0080 O.2   763  GDP763     -0.5169
      9  O5'       -7.1230   94.7430   23.1680 O.3   763  GDP763     -0.3111
     10  C5'       -6.9860   95.0020   21.7640 C.3   763  GDP763      0.1813
     11  C4'       -6.7850   93.6920   20.9930 C.3   763  GDP763      0.1799
     12  O4'       -8.0280   93.3610   20.3920 O.3   763  GDP763     -0.3326
     13  C3'       -5.7770   93.7830   19.8520 C.3   763  GDP763      0.2158
     14  O3'       -4.6040   93.1150   20.2570 O.3   763  GDP763     -0.2175
     15  C2'       -6.4210   93.1000   18.6410 C.3   763  GDP763      0.2310
     16  O2'       -5.8240   91.8470   18.2280 O.3   763  GDP763     -0.2158
     17  C1'       -7.8650   92.9400   19.0420 C.3   763  GDP763      0.2293
     18  N9        -8.7700   93.7530   18.2110 N.pl3 763  GDP763     -0.2354
     19  C8        -8.7310   94.0290   16.8770 C.3   763  GDP763      0.2246
     20  N7        -9.6780   94.7820   16.4280 N.2   763  GDP763     -0.2322
     21  C5       -10.4340   95.0420   17.5720 C.2   763  GDP763      0.2182
     22  C6       -11.6250   95.8260   17.7240 C.1   763  GDP763      0.2372
     23  O6       -12.2490   96.4500   16.8660 O.2   763  GDP763     -0.2069
     24  N1       -12.0690   95.8300   19.0510 N.2   763  GDP763     -0.2485
     25  C2       -11.4540   95.1700   20.0990 C.1   763  GDP763      0.2531
     26  N2       -12.0250   95.2910   21.2970 N.pl3 763  GDP763     -0.0226
     27  N3       -10.3400   94.4340   19.9670 N.2   763  GDP763     -0.3074
     28  C4        -9.8860   94.4150   18.6760 C.2   763  GDP763      0.2300
@<TRIPOS>BOND
     1    20    19    1
     2    20    21    2
     3    23    22    2
     4    19    18    1
     5    21    22    1
     6    21    28    1
     7    22    24    2
     8    18    28    1
     9    18    17    1
    10    16    15    1
    11    15    17    1
    12    15    13    1
    13    28    27    2
    14    17    12    1
    15    24    25    2
    16    13    14    1
    17    13    11    1
    18    27    25    2
    19    25    26    1
    20    12    11    1
    21    11    10    1
    22    10     9    1
    23     8     6    2
    24     4     1    2
    25     9     6    1
    26     5     6    1
    27     5     1    1
    28     6     7    1
    29     1     3    1
    30     1     2    1
