@<TRIPOS>MOLECULE
4r1r_III_P_1.pdb
 27 27 0 0 0
SMALL
GASTEIGER

@<TRIPOS>ATOM
      1  N         -4.3130   64.9790   31.3000 N.3     1  TYR1       -0.1227
      2  CA        -3.8340   63.8990   30.4050 C.3     1  TYR1        0.1736
      3  C         -3.3630   64.4030   29.0450 C.2     1  TYR1        0.2595
      4  O         -3.7890   65.4760   28.6240 O.2     1  TYR1       -0.2718
      5  CB        -4.8810   62.8390   30.1410 C.3     1  TYR1        0.0548
      6  CG        -6.2730   63.1590   29.7020 C.ar    1  TYR1       -0.0200
      7  CD1       -7.1410   63.8460   30.5290 C.ar    1  TYR1       -0.0009
      8  CD2       -6.7690   62.7480   28.4680 C.ar    1  TYR1       -0.0009
      9  CE1       -8.4360   64.1340   30.1580 C.ar    1  TYR1        0.0417
     10  CE2       -8.0650   63.0240   28.0760 C.ar    1  TYR1        0.0417
     11  CZ        -8.8930   63.7170   28.9280 C.ar    1  TYR1        0.1957
     12  OH       -10.1880   64.0110   28.5630 O.3     1  TYR1       -0.2866
     13  N         -2.5320   63.6200   28.3480 N.am    2  LEU2       -0.1966
     14  CA        -2.0860   64.0080   27.0280 C.3     2  LEU2        0.1728
     15  C         -2.7170   63.1550   25.9080 C.2     2  LEU2        0.2616
     16  O         -2.2700   62.0960   25.5000 O.2     2  LEU2       -0.2715
     17  CB        -0.6020   64.0030   26.7290 C.3     2  LEU2        0.0311
     18  CG         0.4420   64.6890   27.5220 C.3     2  LEU2        0.0022
     19  CD1        1.7930   64.0440   27.5340 C.3     2  LEU2        0.0001
     20  CD2        0.4920   66.1520   27.2000 C.3     2  LEU2        0.0001
     21  N         -3.7530   63.7700   25.3620 N.am    3  VAL3       -0.1977
     22  CA        -4.4700   63.3100   24.1850 C.3     3  VAL3        0.1596
     23  C         -4.4780   61.8110   23.9630 C.2     3  VAL3        0.2287
     24  O         -5.5890   61.3010   23.6660 O.2     3  VAL3       -0.2864
     25  CB        -3.8400   64.1030   23.0110 C.3     3  VAL3        0.0276
     26  CG1       -2.8780   63.3040   22.1610 C.3     3  VAL3        0.0022
     27  CG2       -4.9340   64.7450   22.1810 C.3     3  VAL3        0.0022
@<TRIPOS>BOND
     1    26    25    1
     2    27    25    1
     3    25    22    1
     4    24    23    2
     5    23    22    1
     6    22    21    1
     7    21    15   am
     8    16    15    2
     9    15    14    1
    10    17    14    1
    11    17    18    1
    12    14    13    1
    13    20    18    1
    14    18    19    1
    15    10     8   ar
    16    10    11   ar
    17    13     3   am
    18     8     6   ar
    19    12    11    1
    20     4     3    2
    21    11     9   ar
    22     3     2    1
    23     6     5    1
    24     6     7   ar
    25     5     2    1
    26     9     7   ar
    27     2     1    1
