@<TRIPOS>MOLECULE
4rcr_U10_L_1.pdb
 41 41 0 0 0
SMALL
GASTEIGER

@<TRIPOS>ATOM
      1  C1        41.9060   36.2130   71.2630 C.2   285  U10285      0.0198
      2  C2        41.4180   34.8220   71.1440 C.2   285  U10285      0.2282
      3  C3        41.0090   34.0640   72.3480 C.2   285  U10285      0.2140
      4  C4        41.0490   34.6420   73.5550 C.2   285  U10285      0.2140
      5  C5        41.5450   36.0320   73.6740 C.2   285  U10285      0.2285
      6  C6        41.9710   36.7850   72.4750 C.2   285  U10285      0.0235
      7  C1M       42.4200   36.9660   70.0330 C.3   285  U10285      0.0343
      8  C3M       39.8500   32.1960   73.3170 C.3   285  U10285      0.2528
      9  C4M       41.3080   33.7570   75.8120 C.3   285  U10285      0.2528
     10  C7        42.4620   38.2390   72.6000 C.3   285  U10285      0.0548
     11  C8        41.8790   39.0650   71.4660 C.2   285  U10285     -0.0298
     12  C9        42.0030   40.3960   71.4130 C.2   285  U10285     -0.0478
     13  C10       42.8620   41.1360   72.4190 C.3   285  U10285      0.0260
     14  C11       41.3990   41.1340   70.2080 C.3   285  U10285      0.0217
     15  C12       42.4950   41.1340   69.0690 C.3   285  U10285      0.0043
     16  C13       42.5540   42.6340   68.6390 C.3   285  U10285      0.0003
     17  C14       41.4160   43.3330   68.8670 C.3   285  U10285      0.0003
     18  C15       40.2260   42.6540   69.5680 C.3   285  U10285      0.0000
     19  C16       41.4420   44.8680   68.7520 C.3   285  U10285      0.0046
     20  C17       42.2800   45.3660   69.9850 C.3   285  U10285      0.0254
     21  C18       43.6750   45.7500   69.5050 C.2   285  U10285     -0.0346
     22  C19       44.6000   46.2310   70.3540 C.2   285  U10285     -0.0478
     23  C20       44.1930   46.4790   71.8250 C.3   285  U10285      0.0260
     24  C21       45.8540   46.8790   69.7800 C.3   285  U10285      0.0263
     25  C22       47.1510   46.2320   70.1890 C.3   285  U10285      0.0297
     26  C23       47.8990   47.0060   71.2560 C.2   285  U10285     -0.0342
     27  C24       49.1770   47.3730   71.1310 C.2   285  U10285     -0.0478
     28  C25       49.9190   47.1180   69.8200 C.3   285  U10285      0.0260
     29  C26       49.8990   48.0610   72.2930 C.3   285  U10285      0.0263
     30  C27       51.2940   48.4930   71.8240 C.3   285  U10285      0.0297
     31  C28       51.7080   49.7310   72.6670 C.2   285  U10285     -0.0342
     32  C29       51.7340   49.5700   74.0040 C.2   285  U10285     -0.0478
     33  C30       51.4780   48.1710   74.5860 C.3   285  U10285      0.0260
     34  C31       52.0260   50.7520   74.9320 C.3   285  U10285      0.0264
     35  C32       52.8190   50.2850   76.1660 C.3   285  U10285      0.0304
     36  C33       51.9410   50.2730   77.4230 C.2   285  U10285     -0.0258
     37  C34       52.4950   50.2670   78.6530 C.2   285  U10285     -0.0049
     38  O2        41.4010   34.2500   70.0480 O.2   285  U10285     -0.2836
     39  O3        40.5990   32.7900   72.2080 O.2   285  U10285     -0.4652
     40  O4        40.5500   33.9990   74.6160 O.2   285  U10285     -0.4652
     41  O5        41.6260   36.5490   74.7860 O.2   285  U10285     -0.2835
@<TRIPOS>BOND
     1    16    17    1
     2    16    15    1
     3    19    17    1
     4    19    20    1
     5    17    18    1
     6    15    14    1
     7    21    20    1
     8    21    22    2
     9    24    25    1
    10    24    22    1
    11    28    27    1
    12     7     1    1
    13    38     2    2
    14    25    26    1
    15    14    12    1
    16    22    23    1
    17    27    26    2
    18    27    29    1
    19     2     1    1
    20     2     3    1
    21     1     6    2
    22    12    11    2
    23    12    13    1
    24    11    10    1
    25    30    29    1
    26    30    31    1
    27    39     3    1
    28    39     8    1
    29     3     4    2
    30     6    10    1
    31     6     5    1
    32    31    32    2
    33     4     5    1
    34     4    40    1
    35     5    41    2
    36    32    33    1
    37    32    34    1
    38    40     9    1
    39    34    35    1
    40    35    36    1
    41    36    37    2
