@<TRIPOS>MOLECULE
4rcr_BOG_M_1.pdb
 20 20 0 0 0
SMALL
GASTEIGER

@<TRIPOS>ATOM
      1  C1        50.5280   56.1300   58.7690 C.3   308  BOG308      0.2695
      2  O1        50.9530   55.1040   57.9020 O.3   308  BOG308     -0.3286
      3  C2        50.8380   57.4670   58.0760 C.3   308  BOG308      0.2406
      4  O2        52.2590   57.5560   57.9510 O.3   308  BOG308     -0.2149
      5  C3        50.3100   58.5980   58.9580 C.3   308  BOG308      0.2198
      6  O3        48.8870   58.5880   58.9270 O.3   308  BOG308     -0.2174
      7  C4        50.8100   58.3770   60.3800 C.3   308  BOG308      0.2144
      8  O4        51.2930   59.5650   60.9770 O.3   308  BOG308     -0.2176
      9  C5        51.9510   57.3690   60.2980 C.3   308  BOG308      0.1835
     10  O5        51.4000   56.1230   59.9340 O.3   308  BOG308     -0.3256
     11  C6        52.6990   57.3410   61.6000 C.3   308  BOG308      0.2142
     12  O6        53.8100   58.2850   61.5210 O.3   308  BOG308     -0.2176
     13  C1'       52.3780   54.8690   57.7440 C.3   308  BOG308      0.1449
     14  C2'       52.6200   53.5840   56.9830 C.3   308  BOG308      0.0322
     15  C3'       51.4720   53.3390   55.9790 C.3   308  BOG308      0.0026
     16  C4'       52.0210   52.2900   54.9830 C.3   308  BOG308      0.0001
     17  C5'       53.5630   52.4090   55.0150 C.3   308  BOG308      0.0000
     18  C6'       54.1590   51.0690   54.6030 C.3   308  BOG308      0.0000
     19  C7'       55.4380   51.2770   53.7980 C.3   308  BOG308      0.0000
     20  C8'       55.9880   49.9080   53.3740 C.3   308  BOG308      0.0000
@<TRIPOS>BOND
     1    20    19    1
     2    19    18    1
     3    18    17    1
     4    16    17    1
     5    16    15    1
     6    15    14    1
     7    14    13    1
     8    13     2    1
     9     2     1    1
    10     4     3    1
    11     3     1    1
    12     3     5    1
    13     1    10    1
    14     6     5    1
    15     5     7    1
    16    10     9    1
    17     9     7    1
    18     9    11    1
    19     7     8    1
    20    12    11    1
