@<TRIPOS>MOLECULE
4rhn_RIB_A_1.pdb
 10 10 0 0 0
SMALL
GASTEIGER

@<TRIPOS>ATOM
      1  O5'       23.5020   23.9610   16.4230 O.3   201  RIB201     -0.2176
      2  C5'       22.9440   22.9040   15.6440 C.3   201  RIB201      0.2142
      3  C4'       22.4890   23.4560   14.2780 C.3   201  RIB201      0.1837
      4  O4'       21.7660   22.4380   13.6290 O.3   201  RIB201     -0.3236
      5  C3'       21.5600   24.6790   14.2810 C.3   201  RIB201      0.2169
      6  O3'       22.1940   25.6930   13.5700 O.3   201  RIB201     -0.2175
      7  C2'       20.2780   24.2510   13.5660 C.3   201  RIB201      0.2433
      8  O2'       19.7070   25.2100   12.6750 O.3   201  RIB201     -0.2148
      9  C1'       20.6940   22.9890   12.8450 C.3   201  RIB201      0.3024
     10  O1'       19.6650   21.9700   12.8070 O.3   201  RIB201     -0.1869
@<TRIPOS>BOND
     1     8     7    1
     2    10     9    1
     3     9     7    1
     4     9     4    1
     5     7     5    1
     6     6     5    1
     7     4     3    1
     8     3     5    1
     9     3     2    1
    10     2     1    1
