@<TRIPOS>MOLECULE
4rsk_U3P_A_1.pdb
 21 22 0 0 0
SMALL
GASTEIGER

@<TRIPOS>ATOM
      1  N1       -17.4780   40.5510   26.9940 N.am  125  U3P125     -0.1766
      2  C2       -16.4660   39.6670   27.3050 C.1   125  U3P125      0.2845
      3  N3       -16.4880   38.4790   26.6180 N.2   125  U3P125     -0.2452
      4  C4       -17.3880   38.1090   25.6330 C.1   125  U3P125      0.2182
      5  C5       -18.4280   39.0830   25.3800 C.2   125  U3P125      0.1242
      6  C6       -18.4400   40.2460   26.0590 C.2   125  U3P125      0.0929
      7  O2       -15.6160   39.8940   28.1380 O.2   125  U3P125     -0.1918
      8  O4       -17.2600   37.0220   25.0570 O.2   125  U3P125     -0.2085
      9  P        -15.8830   45.6620   25.8820 P.3   125  U3P125      0.5327
     10  O1P      -15.6570   44.9480   24.6010 O.2   125  U3P125     -0.2224
     11  O2P      -14.8210   45.2800   26.8370 O.3   125  U3P125     -0.1145
     12  O3P      -16.0660   47.1290   25.7420 O.3   125  U3P125     -0.1145
     13  O5'      -21.4530   43.4440   26.6720 O.3   125  U3P125     -0.2176
     14  C5'      -20.1820   43.7310   26.0890 C.3   125  U3P125      0.2141
     15  C4'      -19.0130   43.5950   27.0750 C.3   125  U3P125      0.1802
     16  O4'      -18.9560   42.2550   27.6550 O.3   125  U3P125     -0.3319
     17  C3'      -17.6480   43.7800   26.4070 C.3   125  U3P125      0.1903
     18  O3'      -17.2880   45.1610   26.4590 O.3   125  U3P125     -0.2674
     19  C2'      -16.6950   42.9200   27.2490 C.3   125  U3P125      0.2293
     20  O2'      -16.2110   43.5960   28.4060 O.3   125  U3P125     -0.2158
     21  C1'      -17.6080   41.8070   27.7310 C.3   125  U3P125      0.2400
@<TRIPOS>BOND
     1    10     9    2
     2     8     4    2
     3     5     4    1
     4     5     6    2
     5     4     3    2
     6    12     9    1
     7     9    18    1
     8     9    11    1
     9     6     1    1
    10    14    13    1
    11    14    15    1
    12    17    18    1
    13    17    15    1
    14    17    19    1
    15     3     2    2
    16     1     2   am
    17     1    21    1
    18    15    16    1
    19    19    21    1
    20    19    20    1
    21     2     7    2
    22    16    21    1
