@<TRIPOS>MOLECULE
4rub_CAP_A_1.pdb
 21 20 0 0 0
SMALL
GASTEIGER

@<TRIPOS>ATOM
      1  C1        97.2520   13.0850    4.1850 C.3   490  CAP490      0.1978
      2  C2        95.8860   12.7410    4.6200 C.3   490  CAP490      0.2763
      3  C3        95.3230   14.2200    4.5770 C.3   490  CAP490      0.2253
      4  C4        94.1540   14.5120    5.4290 C.3   490  CAP490      0.2152
      5  C5        93.5110   15.1250    4.2700 C.3   490  CAP490      0.1892
      6  C         95.1200   11.7390    3.7300 C.2   490  CAP490      0.3967
      7  O1        98.0090   12.0610    3.7470 O.3   490  CAP490     -0.2669
      8  O2        95.8850   11.7690    5.5340 O.3   490  CAP490     -0.2086
      9  O3        95.8390   15.4640    4.9210 O.3   490  CAP490     -0.2170
     10  O4        93.8030   13.2500    5.9330 O.3   490  CAP490     -0.2176
     11  O5        92.6680   16.0890    4.6630 O.3   490  CAP490     -0.2674
     12  O6        95.1910   11.8910    2.4910 O.co2 490  CAP490     -0.2428
     13  O7        94.4550   10.8710    4.2600 O.co2 490  CAP490     -0.2428
     14  P1        99.2080   12.5890    2.9390 P.3   490  CAP490      0.5327
     15  P2        92.6630   17.5820    5.0820 P.3   490  CAP490      0.5327
     16  O1P      100.0950   11.2700    2.5620 O.3   490  CAP490     -0.1145
     17  O2P      100.0300   13.3700    3.8370 O.3   490  CAP490     -0.1145
     18  O3P       98.6110   12.9770    1.6830 O.2   490  CAP490     -0.2224
     19  O4P       93.9360   18.0340    5.6450 O.3   490  CAP490     -0.1145
     20  O5P       92.5320   18.5890    3.7650 O.2   490  CAP490     -0.2224
     21  O6P       91.3860   17.6410    5.8080 O.3   490  CAP490     -0.1145
@<TRIPOS>BOND
     1    18    14    2
     2    12     6   ar
     3    16    14    1
     4    14     7    1
     5    14    17    1
     6     6    13   ar
     7     6     2    1
     8     7     1    1
     9    20    15    2
    10     1     2    1
    11     5    11    1
    12     5     4    1
    13     3     2    1
    14     3     9    1
    15     3     4    1
    16     2     8    1
    17    11    15    1
    18    15    19    1
    19    15    21    1
    20     4    10    1
