@<TRIPOS>MOLECULE
4sdh_HEM_A_1.pdb
 43 50 0 0 0
SMALL
GASTEIGER

@<TRIPOS>ATOM
      1 FE         17.6420    7.7410   20.2330 Fe    147  HEM147      0.0000
      2  CHA       16.6210    9.5990   17.5740 C.2   147  HEM147      0.0000
      3  CHB       14.6740    8.4100   21.7920 C.2   147  HEM147      0.0000
      4  CHC       18.9660    6.7590   23.2910 C.2   147  HEM147      0.0000
      5  CHD       20.8130    7.6200   18.9230 C.2   147  HEM147      0.0000
      6  NA        15.9620    8.8270   19.7890 N.2   147  HEM147      0.0000
      7  C1A       15.6640    9.3720   18.5380 C.2   147  HEM147      0.0000
      8  C2A       14.2680    9.7390   18.4600 C.2   147  HEM147      0.0000
      9  C3A       13.7070    9.4360   19.6690 C.2   147  HEM147      0.0000
     10  C4A       14.7780    8.8880   20.4890 C.2   147  HEM147      0.0000
     11  CMA       12.2390    9.5900   20.0700 C.3   147  HEM147      0.0000
     12  CAA       13.5550   10.3520   17.2510 C.3   147  HEM147      0.0000
     13  CBA       12.8890    9.2860   16.3190 C.3   147  HEM147      0.0000
     14  CGA       13.9050    8.3800   15.6640 C.2   147  HEM147      0.0000
     15  O1A       14.5100    8.9380   14.7000 O.co2 147  HEM147      0.0000
     16  O2A       14.1140    7.2000   16.0320 O.co2 147  HEM147      0.0000
     17  NB        16.9910    7.6790   22.1710 N.ar  147  HEM147      0.0000
     18  C1B       15.6800    7.8560   22.5600 C.ar  147  HEM147      0.0000
     19  C2B       15.5090    7.4250   23.9470 C.ar  147  HEM147      0.0000
     20  C3B       16.6920    6.9630   24.3500 C.ar  147  HEM147      0.0000
     21  C4B       17.6280    7.1420   23.2540 C.ar  147  HEM147      0.0000
     22  CMB       14.1530    7.4860   24.6950 C.3   147  HEM147      0.0000
     23  CAB       17.0730    6.3670   25.6990 C.2   147  HEM147      0.0000
     24  CBB       16.5690    6.7590   26.8410 C.2   147  HEM147      0.0000
     25  NC        19.4640    7.2800   20.9710 N.2   147  HEM147      0.0000
     26  C1C       19.8370    6.8790   22.2400 C.2   147  HEM147      0.0000
     27  C2C       21.2550    6.4980   22.2970 C.2   147  HEM147      0.0000
     28  C3C       21.7450    6.7310   21.1010 C.2   147  HEM147      0.0000
     29  C4C       20.6680    7.2390   20.2490 C.2   147  HEM147      0.0000
     30  CMC       21.9500    6.0090   23.5810 C.3   147  HEM147      0.0000
     31  CAC       23.1640    6.6470   20.5270 C.2   147  HEM147      0.0000
     32  CBC       24.2110    6.2230   21.2070 C.2   147  HEM147      0.0000
     33  ND        18.5310    8.4620   18.5540 N.ar  147  HEM147      0.0000
     34  C1D       19.8780    8.3640   18.2250 C.ar  147  HEM147      0.0000
     35  C2D       20.1650    9.1800   17.0490 C.ar  147  HEM147      0.0000
     36  C3D       19.0170    9.7180   16.6760 C.ar  147  HEM147      0.0000
     37  C4D       17.9900    9.2910   17.5990 C.ar  147  HEM147      0.0000
     38  CMD       21.6020    9.3270   16.4450 C.3   147  HEM147      0.0000
     39  CAD       18.7990   10.7160   15.5250 C.3   147  HEM147      0.0000
     40  CBD       19.2390   12.1510   15.9920 C.3   147  HEM147      0.0000
     41  CGD       18.9090   13.1890   14.9400 C.2   147  HEM147      0.0000
     42  O1D       19.6470   13.1280   13.9410 O.co2 147  HEM147      0.0000
     43  O2D       17.9690   13.9730   15.1000 O.co2 147  HEM147      0.0000
@<TRIPOS>BOND
     1    42    41   ar
     2    15    14   ar
     3    41    43   ar
     4    41    40    1
     5    39    40    1
     6    39    36    1
     7    14    16   ar
     8    14    13    1
     9    13    12    1
    10    38    35    1
    11    36    35   ar
    12    36    37   ar
    13    35    34   ar
    14    12     8    1
    15     2    37    2
    16     2     7    1
    17    37    33   ar
    18    34    33   ar
    19    34     5    2
    20     8     7    1
    21     8     9    2
    22     7     6    2
    23    33     1    1
    24     5    29    1
    25     9    11    1
    26     9    10    1
    27     6     1    1
    28     6    10    1
    29     1    25    1
    30     1    17    1
    31    29    25    2
    32    29    28    1
    33    10     3    2
    34    31    28    1
    35    31    32    2
    36    25    26    1
    37    28    27    2
    38     3    18    1
    39    17    18   ar
    40    17    21   ar
    41    26    27    1
    42    26     4    2
    43    27    30    1
    44    18    19   ar
    45    21     4    1
    46    21    20   ar
    47    19    20   ar
    48    19    22    1
    49    20    23    1
    50    23    24    2
