@<TRIPOS>MOLECULE
4sga_III_P_1.pdb
 34 36 0 0 0
SMALL
GASTEIGER

@<TRIPOS>ATOM
      1  C        -22.2210   28.1290   21.0250 C.2     5  ACE5        0.2264
      2  O        -22.2240   27.5230   22.1010 O.2     5  ACE5       -0.2748
      3  CH3      -23.2220   29.1970   20.6900 C.3     5  ACE5        0.0948
      4  N        -21.3130   27.9230   19.9930 N.am    4  PRO4       -0.2729
      5  CA       -20.3880   26.7870   20.2670 C.3     4  PRO4        0.1535
      6  C        -19.4680   27.2130   21.3800 C.2     4  PRO4        0.2598
      7  O        -19.2570   28.4330   21.6630 O.2     4  PRO4       -0.2715
      8  CB       -19.7440   26.5000   18.9320 C.3     4  PRO4        0.0310
      9  CG       -19.5700   27.8800   18.3390 C.3     4  PRO4        0.0237
     10  CD       -20.8530   28.6030   18.7130 C.3     4  PRO4        0.0939
     11  N        -18.9280   26.2020   22.0360 N.am    3  ALA3       -0.1964
     12  CA       -17.9930   26.3860   23.1590 C.3     3  ALA3        0.1713
     13  C        -16.9970   25.2210   23.1840 C.2     3  ALA3        0.2458
     14  O        -17.3090   24.1220   22.6980 O.2     3  ALA3       -0.2730
     15  CB       -18.7620   26.3680   24.4790 C.3     3  ALA3        0.0333
     16  N        -15.8730   25.4930   23.8010 N.am    2  PRO2       -0.2716
     17  CA       -14.8060   24.4890   23.9400 C.3     2  PRO2        0.1536
     18  C        -15.2650   23.4290   24.9180 C.2     2  PRO2        0.2599
     19  O        -15.8060   23.8240   25.9940 O.2     2  PRO2       -0.2715
     20  CB       -13.6030   25.2550   24.4800 C.3     2  PRO2        0.0310
     21  CG       -13.9880   26.7250   24.4470 C.3     2  PRO2        0.0237
     22  CD       -15.4900   26.7860   24.4130 C.3     2  PRO2        0.0939
     23  N        -15.1210   22.1650   24.5800 N.am    1  PHE1       -0.1938
     24  CA       -15.5020   21.0920   25.5050 C.3     1  PHE1        0.2021
     25  C        -14.2710   20.7260   26.3970 C.2     1  PHE1        0.3845
     26  O        -14.2590   19.5170   26.8480 O.co2   1  PHE1       -0.2437
     27  CB       -16.1200   19.9100   24.7680 C.3     1  PHE1        0.0596
     28  CG       -17.5120   20.2190   24.2200 C.ar    1  PHE1       -0.0199
     29  CD1      -18.2710   21.2290   24.8010 C.ar    1  PHE1       -0.0042
     30  CD2      -18.0220   19.4410   23.1880 C.ar    1  PHE1       -0.0042
     31  CE1      -19.5630   21.5050   24.3170 C.ar    1  PHE1       -0.0003
     32  CE2      -19.3190   19.7080   22.6900 C.ar    1  PHE1       -0.0003
     33  CZ       -20.0830   20.7480   23.2690 C.ar    1  PHE1       -0.0000
     34  OXT      -13.3260   21.5230   26.7990 O.co2   1  PHE1       -0.2437
@<TRIPOS>BOND
     1     9    10    1
     2     9     8    1
     3    10     4    1
     4     8     5    1
     5     4     5    1
     6     4     1   am
     7     5     6    1
     8     3     1    1
     9     1     2    2
    10     6     7    2
    11     6    11   am
    12    11    12    1
    13    32    30   ar
    14    32    33   ar
    15    14    13    2
    16    12    13    1
    17    12    15    1
    18    13    16   am
    19    30    28   ar
    20    33    31   ar
    21    16    17    1
    22    16    22    1
    23    17    20    1
    24    17    18    1
    25    28    27    1
    26    28    29   ar
    27    31    29   ar
    28    22    21    1
    29    21    20    1
    30    23    18   am
    31    23    24    1
    32    27    24    1
    33    18    19    2
    34    24    25    1
    35    25    34   ar
    36    25    26   ar
