@<TRIPOS>MOLECULE
4sli_CNP_A_1.pdb
 23 23 0 0 0
SMALL
GASTEIGER

@<TRIPOS>ATOM
      1  C1         1.7590    7.4960   35.9500 C.2   760  CNP760      0.3889
      2  O1A        1.7490    7.1590   34.7430 O.co2 760  CNP760     -0.2431
      3  O1B        0.7940    8.0860   36.4910 O.co2 760  CNP760     -0.2431
      4  C2         2.9690    7.1230   36.8080 C.3   760  CNP760      0.1918
      5  C12        2.6770    5.7140   37.3430 C.3   760  CNP760      0.0644
      6  C13        2.0900    4.6250   36.4200 C.2   760  CNP760     -0.0231
      7  C14        1.6410    3.4070   36.8260 C.2   760  CNP760     -0.0048
      8  C3         4.2540    7.1550   35.9340 C.3   760  CNP760      0.0734
      9  C4         5.5010    7.6610   36.6750 C.3   760  CNP760      0.1772
     10  O4         6.6660    7.0400   36.1370 O.3   760  CNP760     -0.2211
     11  C5         5.4240    7.3650   38.1710 C.3   760  CNP760      0.1552
     12  N5         6.6250    7.8840   38.8190 N.am  760  CNP760     -0.2020
     13  C10        7.1930    7.2550   39.8480 C.2   760  CNP760      0.2420
     14  O10        6.7300    6.2290   40.3540 O.2   760  CNP760     -0.2733
     15  C11        8.4510    7.8800   40.4360 C.3   760  CNP760      0.0964
     16  C6         4.1770    8.0140   38.8050 C.3   760  CNP760      0.1709
     17  O6         3.0410    8.1010   37.8800 O.3   760  CNP760     -0.3453
     18  C7         3.7840    7.3090   40.1260 C.3   760  CNP760      0.2134
     19  O7         3.9590    5.9060   40.0160 O.3   760  CNP760     -0.2176
     20  C8         2.3550    7.5810   40.6100 C.3   760  CNP760      0.2173
     21  O8         1.3990    7.0230   39.7220 O.3   760  CNP760     -0.2175
     22  C9         2.0910    9.0600   40.7760 C.3   760  CNP760      0.2175
     23  O9         1.2490    9.5060   39.7210 O.3   760  CNP760     -0.2175
@<TRIPOS>BOND
     1     2     1   ar
     2     8     9    1
     3     8     4    1
     4     1     3   ar
     5     1     4    1
     6    10     9    1
     7     6     7    2
     8     6     5    1
     9     9    11    1
    10     4     5    1
    11     4    17    1
    12    17    16    1
    13    11    16    1
    14    11    12    1
    15    16    18    1
    16    12    13   am
    17    23    22    1
    18    21    20    1
    19    13    14    2
    20    13    15    1
    21    19    18    1
    22    18    20    1
    23    20    22    1
