@<TRIPOS>MOLECULE
4tf4_GLC_A_1.pdb
 12 12 0 0 0
SMALL
GASTEIGER

@<TRIPOS>ATOM
      1  C1        58.4530   45.7370   15.3530 C.3   6004  GLC6004     0.3024
      2  C2        59.4930   46.1960   14.3350 C.3   6004  GLC6004     0.2434
      3  C3        59.3760   47.6980   14.0670 C.3   6004  GLC6004     0.2199
      4  C4        57.9300   48.0930   13.7220 C.3   6004  GLC6004     0.2144
      5  C5        56.9660   47.5440   14.7810 C.3   6004  GLC6004     0.1836
      6  C6        55.5150   47.7560   14.3920 C.3   6004  GLC6004     0.2142
      7  O1        58.7880   46.2230   16.6220 O.3   6004  GLC6004    -0.1869
      8  O2        60.7850   45.9110   14.8470 O.3   6004  GLC6004    -0.2148
      9  O3        60.2500   48.0500   13.0020 O.3   6004  GLC6004    -0.2174
     10  O4        57.8030   49.5310   13.6910 O.3   6004  GLC6004    -0.2176
     11  O5        57.1490   46.1250   14.9470 O.3   6004  GLC6004    -0.3236
     12  O6        55.2020   47.0250   13.2180 O.3   6004  GLC6004    -0.2176
@<TRIPOS>BOND
     1     9     3    1
     2    12     6    1
     3    10     4    1
     4     4     3    1
     5     4     5    1
     6     3     2    1
     7     2     8    1
     8     2     1    1
     9     6     5    1
    10     5    11    1
    11    11     1    1
    12     1     7    1
