@<TRIPOS>MOLECULE
4tf4_BGC_A_1.pdb
 11 11 0 0 0
SMALL
GASTEIGER

@<TRIPOS>ATOM
      1  C2        60.6240   60.3930    8.7260 C.3   6001  BGC6001     0.2141
      2  C3        60.1090   61.6720    8.0810 C.3   6001  BGC6001     0.2173
      3  C4        60.2070   61.5520    6.5620 C.3   6001  BGC6001     0.2142
      4  C5        59.4720   60.2900    6.0950 C.3   6001  BGC6001     0.1810
      5  C6        59.5680   60.0410    4.6000 C.3   6001  BGC6001     0.2141
      6  C1        59.8430   59.2010    8.1890 C.3   6001  BGC6001     0.1777
      7  O2        60.4840   60.4660   10.1400 O.3   6001  BGC6001    -0.2176
      8  O3        60.8730   62.7850    8.5280 O.3   6001  BGC6001    -0.2175
      9  O4        59.6280   62.7040    5.9620 O.3   6001  BGC6001    -0.2176
     10  O5        59.9920   59.1230    6.7660 O.3   6001  BGC6001    -0.3481
     11  O6        60.9090   59.8240    4.1910 O.3   6001  BGC6001    -0.2176
@<TRIPOS>BOND
     1    11     5    1
     2     5     4    1
     3     9     3    1
     4     4     3    1
     5     4    10    1
     6     3     2    1
     7    10     6    1
     8     2     8    1
     9     2     1    1
    10     6     1    1
    11     1     7    1
