@<TRIPOS>MOLECULE
4thn_III_I_1.pdb
 36 38 0 0 0
SMALL
GASTEIGER

@<TRIPOS>ATOM
      1  N         17.0440  -11.8950   20.4710 N.3     1  CHG1       -0.1231
      2  CA        17.0510  -13.3440   20.4770 C.3     1  CHG1        0.1692
      3  C         16.0880  -13.8510   21.5320 C.2     1  CHG1        0.2592
      4  O         16.1350  -13.4910   22.7090 O.2     1  CHG1       -0.2718
      5  C1        18.4530  -14.0450   20.7290 C.3     1  CHG1        0.0266
      6  C2        19.3040  -13.2890   21.7310 C.3     1  CHG1        0.0019
      7  C3        20.4890  -14.1470   22.1350 C.3     1  CHG1        0.0001
      8  C4        21.3520  -14.3510   20.9210 C.3     1  CHG1        0.0000
      9  C5        20.5180  -15.0750   19.8660 C.3     1  CHG1        0.0001
     10  C6        19.2830  -14.2620   19.4820 C.3     1  CHG1        0.0019
     11  N         15.2020  -14.7260   21.1110 N.am    2  ARG2       -0.1966
     12  CA        14.3600  -15.4640   22.0210 C.3     2  ARG2        0.1729
     13  C         15.0210  -16.8440   21.9260 C.2     2  ARG2        0.2616
     14  O         14.9110  -17.5340   20.9040 O.2     2  ARG2       -0.2715
     15  CB        12.8740  -15.4250   21.5860 C.3     2  ARG2        0.0348
     16  CG        12.2480  -14.0360   21.8410 C.3     2  ARG2        0.0492
     17  CD        12.6480  -13.5500   23.2250 C.3     2  ARG2        0.2205
     18  NE        12.1260  -12.2550   23.6690 N.pl3   2  ARG2       -0.0865
     19  CZ        11.3010  -12.0830   24.7360 C.cat   2  ARG2        0.5346
     20  NH1       10.7970  -13.0800   25.4710 N.pl3   2  ARG2        0.1354
     21  NH2       10.9460  -10.8630   25.0780 N.pl3   2  ARG2        0.1354
     22  C1        18.3760  -17.1700   24.7570 C.ar    3  ALA3       -0.0042
     23  C2        18.4710  -18.1390   23.8240 C.ar    3  ALA3       -0.0200
     24  C3        19.6080  -18.2770   23.0430 C.ar    3  ALA3       -0.0042
     25  C4        20.6870  -17.4920   23.2710 C.ar    3  ALA3       -0.0003
     26  C4A       20.6060  -16.4850   24.2090 C.ar    3  ALA3       -0.0000
     27  C5        21.7050  -15.6520   24.4160 C.ar    3  ALA3       -0.0000
     28  C6        21.6240  -14.6770   25.3760 C.ar    3  ALA3       -0.0000
     29  C7        20.4470  -14.5280   26.1450 C.ar    3  ALA3       -0.0000
     30  C8        19.3700  -15.3440   25.9470 C.ar    3  ALA3       -0.0000
     31  C8A       19.4470  -16.3330   24.9730 C.ar    3  ALA3       -0.0003
     32  C9        17.3370  -19.0470   23.6210 C.3     3  ALA3        0.0560
     33  CA        16.4430  -18.5550   22.5520 C.3     3  ALA3        0.1639
     34  C         15.3770  -19.5860   22.3390 C.2     3  ALA3        0.2290
     35  N         15.8550  -17.2720   22.8580 N.am    3  ALA3       -0.1974
     36  O         14.7480  -20.0360   23.2860 O.2     3  ALA3       -0.2864
@<TRIPOS>BOND
     1    10     9    1
     2    10     5    1
     3     9     8    1
     4     1     2    1
     5     2     5    1
     6     2     3    1
     7     5     6    1
     8    14    13    2
     9     8     7    1
    10    11     3   am
    11    11    12    1
    12     3     4    2
    13    15    16    1
    14    15    12    1
    15     6     7    1
    16    16    17    1
    17    13    12    1
    18    13    35   am
    19    34    33    1
    20    34    36    2
    21    33    35    1
    22    33    32    1
    23    24    25   ar
    24    24    23   ar
    25    17    18    1
    26    25    26   ar
    27    32    23    1
    28    18    19    2
    29    23    22   ar
    30    26    27   ar
    31    26    31   ar
    32    27    28   ar
    33    19    21    1
    34    19    20    1
    35    22    31   ar
    36    31    30   ar
    37    28    29   ar
    38    30    29   ar
