@<TRIPOS>MOLECULE
4tim_2PG_B_1.pdb
 11 10 0 0 0
SMALL
GASTEIGER

@<TRIPOS>ATOM
      1  C1        46.2150   15.5080   -8.8920 C.2   300  2PG300      0.3946
      2  C2        46.4340   15.5020  -10.4190 C.3   300  2PG300      0.2610
      3  C3        46.7110   14.0360  -10.7190 C.3   300  2PG300      0.2237
      4  P         47.6070   16.8890  -12.4740 P.3   300  2PG300      0.5331
      5  O1        45.0640   15.2040   -8.4780 O.co2 300  2PG300     -0.2428
      6  O2        47.2080   15.7070   -8.1290 O.co2 300  2PG300     -0.2428
      7  O3        46.8930   13.2930   -9.5050 O.3   300  2PG300     -0.2170
      8  O1P       47.4740   16.4110  -10.8800 O.3   300  2PG300     -0.2583
      9  O2P       46.7530   15.8980  -13.2700 O.2   300  2PG300     -0.2224
     10  O3P       49.0950   16.8860  -12.8250 O.3   300  2PG300     -0.1145
     11  O4P       47.0360   18.2980  -12.6070 O.3   300  2PG300     -0.1145
@<TRIPOS>BOND
     1     9     4    2
     2    10     4    1
     3    11     4    1
     4     4     8    1
     5     8     2    1
     6     3     2    1
     7     3     7    1
     8     2     1    1
     9     1     5   ar
    10     1     6   ar
