@<TRIPOS>MOLECULE
4tln_LNO_A_1.pdb
 10 9 0 0 0
SMALL
GASTEIGER

@<TRIPOS>ATOM
      1  N         52.9070   16.5460   -4.3540 N.3   322  LNO322     -0.1261
      2  CA        51.9980   17.6810   -4.7520 C.3   322  LNO322      0.1366
      3  C         52.5700   18.7580   -5.6730 C.2   322  LNO322      0.1042
      4  O         53.6330   18.7010   -6.3740 O.2   322  LNO322     -0.5381
      5  CB        52.0280   18.4720   -3.3480 C.3   322  LNO322      0.0255
      6  CG        52.9200   17.7210   -2.3660 C.3   322  LNO322      0.0018
      7  CD1       54.2770   17.6690   -3.1420 C.3   322  LNO322      0.0001
      8  CD2       53.0310   18.2540   -0.9470 C.3   322  LNO322      0.0001
      9  N2        51.8440   19.8300   -5.6540 N.am  322  LNO322     -0.2015
     10  ON2       52.4760   20.7250   -6.4920 O.3   322  LNO322     -0.4026
@<TRIPOS>BOND
     1    10     9    1
     2     4     3    2
     3     3     9   am
     4     3     2    1
     5     2     1    1
     6     2     5    1
     7     5     6    1
     8     7     6    1
     9     6     8    1
