@<TRIPOS>MOLECULE
4tmn_0PK_E_1.pdb
 36 37 0 0 0
SMALL
GASTEIGER

@<TRIPOS>ATOM
      1  C1        50.4290   20.3870   -8.5740 C.2   317  0PK317      0.4219
      2  O1        49.8980   21.2520   -7.7970 O.2   317  0PK317     -0.2245
      3  O2        50.7950   20.5820   -9.8890 O.3   317  0PK317     -0.4285
      4  C2        51.0060   21.9060  -10.4060 C.3   317  0PK317      0.2368
      5  C3        50.5090   21.7670  -11.8010 C.ar  317  0PK317      0.0213
      6  C4        50.4180   20.6180  -12.5940 C.ar  317  0PK317     -0.0007
      7  C5        49.8730   20.6070  -13.9050 C.ar  317  0PK317     -0.0002
      8  C6        49.3630   21.6920  -14.4780 C.ar  317  0PK317     -0.0000
      9  C7        49.5010   22.7460  -13.6670 C.ar  317  0PK317     -0.0002
     10  C8        50.0170   22.8810  -12.3620 C.ar  317  0PK317     -0.0007
     11  N         50.7810   19.1360   -8.2400 N.am  317  0PK317     -0.1586
     12  CA        50.6650   18.6430   -6.8390 C.3   317  0PK317      0.1974
     13  P         52.0320   19.1530   -6.0640 P.3   317  0PK317      0.3452
     14  O1P       53.3330   18.5400   -6.7090 O.2   317  0PK317     -0.2669
     15  O2P       52.1080   20.7320   -5.9400 O.3   317  0PK317     -0.1485
     16  CB        50.6690   17.1570   -6.9730 C.3   317  0PK317      0.0596
     17  CG        49.3730   16.7970   -7.6700 C.ar  317  0PK317     -0.0199
     18  CD1       48.2170   16.7880   -6.8790 C.ar  317  0PK317     -0.0042
     19  CD2       49.3280   16.5600   -9.0210 C.ar  317  0PK317     -0.0042
     20  CE1       46.9720   16.4870   -7.4460 C.ar  317  0PK317     -0.0003
     21  CE2       48.0930   16.2460   -9.6070 C.ar  317  0PK317     -0.0003
     22  CZ        46.9150   16.2080   -8.8060 C.ar  317  0PK317     -0.0000
     23  N1        51.7070   18.5030   -4.3100 N.3   317  0PK317     -0.1353
     24  CA1       52.9050   18.3320   -3.4760 C.3   317  0PK317      0.1594
     25  C         53.6360   16.9900   -3.6430 C.2   317  0PK317      0.2582
     26  O         54.8700   16.9190   -3.6050 O.2   317  0PK317     -0.2718
     27  CB1       52.6060   18.4710   -1.9780 C.3   317  0PK317      0.0273
     28  CG1       53.8370   18.3750   -1.1070 C.3   317  0PK317      0.0019
     29 CD11       54.6920   19.6480   -1.2450 C.3   317  0PK317      0.0001
     30 CD21       53.1860   18.1970    0.2480 C.3   317  0PK317      0.0001
     31  N2        52.8650   15.9260   -3.7510 N.am  317  0PK317     -0.1944
     32  CA2       53.3430   14.5330   -3.8630 C.3   317  0PK317      0.1979
     33  C9        52.6830   13.8220   -5.0710 C.2   317  0PK317      0.3842
     34  O3        51.6740   14.3100   -5.6210 O.co2 317  0PK317     -0.2437
     35  CB2       53.0150   13.8090   -2.5700 C.3   317  0PK317      0.0356
     36  OXT       53.1340   12.7780   -5.6680 O.co2 317  0PK317     -0.2437
@<TRIPOS>BOND
     1     8     7   ar
     2     8     9   ar
     3     7     6   ar
     4     9    10   ar
     5     6     5   ar
     6    10     5   ar
     7     5     4    1
     8     4     3    1
     9     3     1    1
    10    21    19   ar
    11    21    22   ar
    12    19    17   ar
    13    22    20   ar
    14     1    11   am
    15     1     2    2
    16    11    12    1
    17    17    16    1
    18    17    18   ar
    19    20    18   ar
    20    16    12    1
    21    12    13    1
    22    14    13    2
    23    13    15    1
    24    13    23    1
    25    36    33   ar
    26    34    33   ar
    27    33    32    1
    28    23    24    1
    29    32    31    1
    30    32    35    1
    31    31    25   am
    32    25    26    2
    33    25    24    1
    34    24    27    1
    35    27    28    1
    36    29    28    1
    37    28    30    1
