@<TRIPOS>MOLECULE
4ts1_TYR_A_1.pdb
 13 13 0 0 0
SMALL
GASTEIGER

@<TRIPOS>ATOM
      1  N         15.4720    2.5710   27.7220 N.3   320  TYR320     -0.1205
      2  CA        14.3700    2.7470   28.6720 C.3   320  TYR320      0.1986
      3  C         13.6960    1.4030   29.0050 C.2   320  TYR320      0.3822
      4  O         12.9010    1.4090   29.9760 O.co2 320  TYR320     -0.2440
      5  CB        13.2860    3.7660   28.1840 C.3   320  TYR320      0.0569
      6  CG        13.8610    5.0950   27.8010 C.ar  320  TYR320     -0.0200
      7  CD1       14.5160    5.9320   28.7800 C.ar  320  TYR320     -0.0009
      8  CD2       13.7710    5.5630   26.5260 C.ar  320  TYR320     -0.0009
      9  CE1       15.0490    7.1460   28.4030 C.ar  320  TYR320      0.0417
     10  CE2       14.2770    6.8150   26.1290 C.ar  320  TYR320      0.0417
     11  CZ        14.9270    7.5770   27.0800 C.ar  320  TYR320      0.1957
     12  OH        15.4140    8.7930   26.6570 O.3   320  TYR320     -0.2866
     13  OXT       13.9160    0.4080   28.3030 O.co2 320  TYR320     -0.2440
@<TRIPOS>BOND
     1    10     8   ar
     2    10    11   ar
     3     8     6   ar
     4    12    11    1
     5    11     9   ar
     6     1     2    1
     7     6     5    1
     8     6     7   ar
     9     5     2    1
    10    13     3   ar
    11     9     7   ar
    12     2     3    1
    13     3     4   ar
