@<TRIPOS>MOLECULE
4ukd_ADP_A_1.pdb
 27 29 0 0 0
SMALL
GASTEIGER

@<TRIPOS>ATOM
      1  PB        38.2580   65.9570  -11.5030 P.3   195  ADP195      0.5373
      2  O1B       38.5530   65.0290  -12.5560 O.2   195  ADP195     -0.2221
      3  O2B       39.3770   66.6350  -10.8960 O.3   195  ADP195     -0.1143
      4  O3B       37.2680   67.0050  -11.9870 O.3   195  ADP195     -0.1143
      5  PA        37.3290   65.1530   -8.8560 P.3   195  ADP195      0.2231
      6  O1A       38.5080   64.5500   -8.3000 O.3   195  ADP195     -0.4370
      7  O2A       37.0370   66.4740   -8.4320 O.2   195  ADP195     -0.5169
      8  O3A       37.5020   65.1540  -10.3960 O.3   195  ADP195     -0.2261
      9  O5'       36.0980   64.1690   -8.6650 O.3   195  ADP195     -0.3111
     10  C5'       34.7690   64.4320   -9.1800 C.3   195  ADP195      0.1813
     11  C4'       33.7060   63.9540   -8.1890 C.3   195  ADP195      0.1821
     12  O4'       33.7500   62.5360   -8.2100 O.3   195  ADP195     -0.3135
     13  C3'       33.9260   64.4000   -6.7660 C.3   195  ADP195      0.2184
     14  O3'       32.7070   64.5640   -6.1100 O.3   195  ADP195     -0.2174
     15  C2'       34.6540   63.2100   -6.2300 C.3   195  ADP195      0.2570
     16  O2'       34.5090   63.1210   -4.8690 O.3   195  ADP195     -0.2130
     17  C1'       34.0310   62.0160   -6.9340 C.3   195  ADP195      0.3186
     18  N9        34.9680   60.8850   -7.0730 N.pl3 195  ADP195     -0.1439
     19  C8        36.3150   60.9120   -7.3740 C.3   195  ADP195      0.3377
     20  N7        36.8290   59.7590   -7.6520 N.2   195  ADP195     -0.2095
     21  C5        35.7790   58.8990   -7.4900 C.2   195  ADP195      0.2526
     22  C6        35.7250   57.5040   -7.5880 C.2   195  ADP195      0.4393
     23  N6        36.8010   56.7450   -7.8570 N.pl3 195  ADP195      0.2180
     24  N1        34.5280   56.9120   -7.4130 N.2   195  ADP195      0.0021
     25  C2        33.4810   57.7000   -7.1190 C.3   195  ADP195      0.5254
     26  N3        33.4500   59.0110   -6.8740 N.2   195  ADP195     -0.0055
     27  C4        34.6510   59.5650   -7.1170 C.2   195  ADP195      0.3518
@<TRIPOS>BOND
     1     2     1    2
     2     4     1    1
     3     1     3    1
     4     1     8    1
     5     8     5    1
     6    10     9    1
     7    10    11    1
     8     5     9    1
     9     5     7    2
    10     5     6    1
    11    12    11    1
    12    12    17    1
    13    11    13    1
    14    23    22    1
    15    20    21    2
    16    20    19    1
    17    22    21    1
    18    22    24    2
    19    21    27    1
    20    24    25    1
    21    19    18    1
    22    25    26    1
    23    27    18    1
    24    27    26    2
    25    18    17    1
    26    17    15    1
    27    13    15    1
    28    13    14    1
    29    15    16    1
