@<TRIPOS>MOLECULE
4ukd_UDP_A_1.pdb
 25 26 0 0 0
SMALL
GASTEIGER

@<TRIPOS>ATOM
      1  N1        40.7420   75.0260  -18.0470 N.am  196  UDP196     -0.1766
      2  C2        41.5950   75.6240  -18.9470 C.1   196  UDP196      0.2845
      3  N3        42.8600   75.3110  -19.1790 N.2   196  UDP196     -0.2452
      4  C4        43.5120   74.4850  -18.3460 C.1   196  UDP196      0.2182
      5  C5        42.7940   73.9860  -17.3130 C.2   196  UDP196      0.1242
      6  C6        41.4920   74.2240  -17.0870 C.2   196  UDP196      0.0929
      7  O2        41.0510   76.4800  -19.8350 O.2   196  UDP196     -0.1918
      8  O4        44.7750   74.1730  -18.6780 O.2   196  UDP196     -0.2085
      9  C1'       39.3850   75.5810  -17.8470 C.3   196  UDP196      0.2401
     10  C2'       38.3620   74.9270  -18.7480 C.3   196  UDP196      0.2319
     11  O2'       37.2800   75.7890  -19.0140 O.3   196  UDP196     -0.2157
     12  C3'       37.9690   73.7860  -17.8450 C.3   196  UDP196      0.2158
     13  C4'       37.7880   74.5440  -16.5480 C.3   196  UDP196      0.1799
     14  O4'       38.9690   75.2840  -16.5230 O.3   196  UDP196     -0.3320
     15  O3'       36.7870   73.2000  -18.2620 O.3   196  UDP196     -0.2175
     16  C5'       37.8150   73.6660  -15.2800 C.3   196  UDP196      0.1813
     17  O5'       38.9940   72.8210  -15.2890 O.3   196  UDP196     -0.3111
     18  PA        39.2150   71.6560  -14.2430 P.3   196  UDP196      0.2231
     19  O1A       38.9970   72.2580  -12.9230 O.3   196  UDP196     -0.4370
     20  O2A       40.4630   70.9560  -14.4260 O.2   196  UDP196     -0.5169
     21  O3A       38.0120   70.6920  -14.5980 O.3   196  UDP196     -0.2261
     22  PB        37.7510   69.2800  -15.2970 P.3   196  UDP196      0.5373
     23  O1B       38.8780   68.8660  -16.0740 O.2   196  UDP196     -0.2221
     24  O2B       36.5020   69.4370  -15.9840 O.3   196  UDP196     -0.1143
     25  O3B       37.6040   68.1830  -14.2370 O.3   196  UDP196     -0.1143
@<TRIPOS>BOND
     1     7     2    2
     2     3     2    2
     3     3     4    2
     4    11    10    1
     5     2     1   am
     6    10     9    1
     7    10    12    1
     8     8     4    2
     9     4     5    1
    10    15    12    1
    11     1     9    1
    12     1     6    1
    13     9    14    1
    14    12    13    1
    15     5     6    2
    16    13    14    1
    17    13    16    1
    18    23    22    2
    19    24    22    1
    20    22    21    1
    21    22    25    1
    22    17    16    1
    23    17    18    1
    24    21    18    1
    25    20    18    2
    26    18    19    1
