@<TRIPOS>MOLECULE
4upj_U04_A_1.pdb
 33 35 0 0 0
SMALL
GASTEIGER

@<TRIPOS>ATOM
      1  CA         0.8650   19.5620   20.8380 C.ar  100  U04100      0.0964
      2  CA2        0.0520   18.3950   21.0230 C.ar  100  U04100      0.3451
      3  CA3        1.8360   17.0350   20.3450 C.ar  100  U04100      0.1517
      4  CA4        2.3550   15.7330   20.1020 C.ar  100  U04100      0.0377
      5  CA5        3.6780   15.5790   19.6710 C.ar  100  U04100      0.0031
      6  CA6        4.5010   16.7050   19.4670 C.ar  100  U04100      0.0003
      7  CA7        4.0090   18.0010   19.6990 C.ar  100  U04100      0.0062
      8  CA8        2.6670   18.1600   20.1320 C.ar  100  U04100      0.0735
      9  CA9        2.1690   19.4360   20.3910 C.ar  100  U04100      0.2011
     10  CB         0.3890   20.9390   21.2690 C.3   100  U04100      0.0542
     11  CB1        0.2930   21.0790   22.7760 C.ar  100  U04100     -0.0168
     12  CB2        1.2700   20.5090   23.6330 C.ar  100  U04100     -0.0039
     13  CB3        1.1520   20.6910   25.0410 C.ar  100  U04100      0.0010
     14  CB4        0.0810   21.4390   25.5930 C.ar  100  U04100      0.0166
     15  CB5       -0.8850   22.0060   24.7150 C.ar  100  U04100      0.0731
     16  CB6       -0.7630   21.8120   23.3350 C.ar  100  U04100      0.0126
     17  CB7       -0.8500   21.4480   20.4990 C.3   100  U04100      0.0091
     18  CB8       -0.5230   21.7570   19.0640 C.3   100  U04100      0.0007
     19  CG1       -1.6690   24.1180   24.9460 C.2   100  U04100      0.2678
     20  CG2       -2.4350   24.8150   23.8110 C.3   100  U04100      0.2052
     21  CG3       -4.6170   24.5680   22.6420 C.2   100  U04100      0.4214
     22  CG4       -6.3910   23.2020   21.5680 C.3   100  U04100      0.1379
     23  CG5       -5.4390   22.1890   20.9330 C.3   100  U04100      0.0437
     24  CG6       -7.6440   22.4190   21.9500 C.3   100  U04100      0.0437
     25  CG7       -6.8070   24.2180   20.4740 C.3   100  U04100      0.0437
     26  NB5       -1.9470   22.8330   25.0940 N.am  100  U04100     -0.1777
     27  NG2       -3.8360   24.3450   23.7130 N.am  100  U04100     -0.1587
     28  OA2       -1.0960   18.5020   21.3720 O.2   100  U04100     -0.2447
     29  OA3        0.5030   17.1370   20.7830 O.2   100  U04100     -0.4211
     30  OA9        2.9040   20.5790   20.1950 O.3   100  U04100     -0.2866
     31  OG1       -0.8740   24.7050   25.6240 O.2   100  U04100     -0.2710
     32  OG3       -4.3730   25.3070   21.7190 O.2   100  U04100     -0.2246
     33  OG4       -5.8060   23.8580   22.7210 O.3   100  U04100     -0.4408
@<TRIPOS>BOND
     1    18    17    1
     2     6     5   ar
     3     6     7   ar
     4     5     4   ar
     5     7     8   ar
     6     4     3   ar
     7     8     3   ar
     8     8     9   ar
     9    30     9    1
    10     3    29   ar
    11     9     1   ar
    12    25    22    1
    13    17    10    1
    14    29     2   ar
    15     1     2   ar
    16     1    10    1
    17    23    22    1
    18     2    28    2
    19    10    11    1
    20    22    24    1
    21    22    33    1
    22    32    21    2
    23    21    33    1
    24    21    27   am
    25    11    16   ar
    26    11    12   ar
    27    16    15   ar
    28    12    13   ar
    29    27    20    1
    30    20    19    1
    31    15    26    1
    32    15    14   ar
    33    19    26   am
    34    19    31    2
    35    13    14   ar
