@<TRIPOS>MOLECULE
4vgc_SRD_C_1.pdb
 18 19 0 0 0
SMALL
GASTEIGER

@<TRIPOS>ATOM
      1  C1        28.3640    1.8610   39.9650 C.ar  358  SRD358      0.0000
      2  C2        27.8350    2.9150   40.6900 C.ar  358  SRD358      0.0000
      3  C3        27.9210    2.9310   42.1100 C.ar  358  SRD358      0.0000
      4  C4        28.5480    1.8940   42.7830 C.ar  358  SRD358      0.0000
      5  C5        29.0860    0.8380   42.0650 C.ar  358  SRD358      0.0000
      6  C6        28.9910    0.8270   40.6610 C.ar  358  SRD358      0.0000
      7  C7        27.2310    3.9720   40.0380 C.ar  358  SRD358      0.0000
      8  C8        26.7110    5.0330   40.7660 C.ar  358  SRD358      0.0000
      9  C9        26.7910    5.0410   42.1670 C.ar  358  SRD358      0.0000
     10  C10       27.3910    4.0000   42.8350 C.ar  358  SRD358      0.0000
     11  C7'       28.2450    1.8190   38.4660 C.3   358  SRD358      0.0000
     12  C8'       29.5250    2.2060   37.7340 C.3   358  SRD358      0.0000
     13  C9'       32.8750    0.4840   38.1940 C.3   358  SRD358      0.0000
     14  C         31.8400    1.5810   38.0580 C.2   358  SRD358      0.0000
     15  N         30.6120    1.2520   37.6820 N.am  358  SRD358      0.0000
     16  O         32.1550    2.7520   38.3390 O.2   358  SRD358      0.0000
     17  O1B       29.0090    1.3050   35.4530 O.3   358  SRD358      0.0000
     18  B         29.0740    2.5460   36.2540 B     358  SRD358      0.0000
@<TRIPOS>BOND
     1    17    18    1
     2    18    12    1
     3    15    12    1
     4    15    14   am
     5    12    11    1
     6    14    13    1
     7    14    16    2
     8    11     1    1
     9     1     6   ar
    10     1     2   ar
    11     7     2   ar
    12     7     8   ar
    13     6     5   ar
    14     2     3   ar
    15     8     9   ar
    16     5     4   ar
    17     3     4   ar
    18     3    10   ar
    19     9    10   ar
