@<TRIPOS>MOLECULE
4vhb_HEM_A_1.pdb
 43 50 0 0 0
SMALL
GASTEIGER

@<TRIPOS>ATOM
      1 FE         42.5540    7.8750   59.7440 Fe    150  HEM150      0.0000
      2  CHA       45.4060    9.2910   58.4990 C.2   150  HEM150      0.0000
      3  CHB       40.9310   10.8300   59.3800 C.2   150  HEM150      0.0000
      4  CHC       39.6210    6.3060   60.6240 C.2   150  HEM150      0.0000
      5  CHD       44.3100    5.1460   60.7450 C.2   150  HEM150      0.0000
      6  NA        43.0950    9.7290   59.1230 N.ar  150  HEM150      0.0000
      7  C1A       44.3230   10.1260   58.6640 C.ar  150  HEM150      0.0000
      8  C2A       44.2560   11.5550   58.3020 C.ar  150  HEM150      0.0000
      9  C3A       43.0230   11.9850   58.5530 C.ar  150  HEM150      0.0000
     10  C4A       42.2660   10.8380   59.0480 C.ar  150  HEM150      0.0000
     11  CMA       42.4930   13.4190   58.3050 C.3   150  HEM150      0.0000
     12  CAA       45.4720   12.3360   57.7630 C.2   150  HEM150      0.0000
     13  CBA       45.6280   12.3990   56.2380 C.2   150  HEM150      0.0000
     14  CGA       46.7750   13.1940   55.6560 C.2   150  HEM150      0.0000
     15  O1A       46.8290   14.3790   56.1490 O.co2 150  HEM150      0.0000
     16  O2A       47.3290   12.6810   54.6160 O.co2 150  HEM150      0.0000
     17  NB        40.6990    8.4230   59.9120 N.2   150  HEM150      0.0000
     18  C1B       40.2090    9.7120   59.6810 C.2   150  HEM150      0.0000
     19  C2B       38.8100    9.7890   59.9710 C.2   150  HEM150      0.0000
     20  C3B       38.4450    8.5320   60.3030 C.2   150  HEM150      0.0000
     21  C4B       39.6080    7.6730   60.3240 C.2   150  HEM150      0.0000
     22  CMB       37.9610   11.0820   59.8420 C.3   150  HEM150      0.0000
     23  CAB       37.0640    8.0180   60.7620 C.2   150  HEM150      0.0000
     24  CBB       35.9760    8.2840   60.0330 C.2   150  HEM150      0.0000
     25  NC        42.0250    6.0470   60.5430 N.ar  150  HEM150      0.0000
     26  C1C       40.7680    5.5810   60.8440 C.ar  150  HEM150      0.0000
     27  C2C       40.8810    4.2060   61.2900 C.ar  150  HEM150      0.0000
     28  C3C       42.1890    3.9490   61.4040 C.ar  150  HEM150      0.0000
     29  C4C       42.9450    5.0810   60.9270 C.ar  150  HEM150      0.0000
     30  CMC       39.6220    3.3560   61.5950 C.3   150  HEM150      0.0000
     31  CAC       42.9300    2.6540   61.7840 C.2   150  HEM150      0.0000
     32  CBC       43.5530    2.5520   62.9580 C.2   150  HEM150      0.0000
     33  ND        44.4450    7.3640   59.6320 N.2   150  HEM150      0.0000
     34  C1D       44.9910    6.1200   60.0150 C.2   150  HEM150      0.0000
     35  C2D       46.4060    6.0700   59.7190 C.2   150  HEM150      0.0000
     36  C3D       46.6620    7.1730   59.0300 C.2   150  HEM150      0.0000
     37  C4D       45.4890    8.0320   59.0470 C.2   150  HEM150      0.0000
     38  CMD       47.3390    4.8530   60.0010 C.3   150  HEM150      0.0000
     39  CAD       48.0030    7.6310   58.4210 C.3   150  HEM150      0.0000
     40  CBD       48.9990    8.1350   59.4890 C.3   150  HEM150      0.0000
     41  CGD       50.3880    8.4590   59.0050 C.2   150  HEM150      0.0000
     42  O1D       50.4910    9.1530   57.9560 O.co2 150  HEM150      0.0000
     43  O2D       51.3270    7.9910   59.6950 O.co2 150  HEM150      0.0000
@<TRIPOS>BOND
     1    16    14   ar
     2    14    15   ar
     3    14    13    1
     4    13    12    2
     5    12     8    1
     6    42    41   ar
     7     8     9   ar
     8     8     7   ar
     9    11     9    1
    10    39    36    1
    11    39    40    1
    12     2     7    2
    13     2    37    1
    14     9    10   ar
    15     7     6   ar
    16    41    40    1
    17    41    43   ar
    18    36    37    1
    19    36    35    2
    20    37    33    2
    21    10     6   ar
    22    10     3    2
    23     6     1    1
    24     3    18    1
    25    33     1    1
    26    33    34    1
    27    18    17    2
    28    18    19    1
    29    35    38    1
    30    35    34    1
    31     1    17    1
    32     1    25    1
    33    22    19    1
    34    17    21    1
    35    19    20    2
    36    34     5    2
    37    24    23    2
    38    20    21    1
    39    20    23    1
    40    21     4    2
    41    25    26   ar
    42    25    29   ar
    43     4    26    1
    44     5    29    1
    45    26    27   ar
    46    29    28   ar
    47    27    28   ar
    48    27    30    1
    49    28    31    1
    50    31    32    2
