@<TRIPOS>MOLECULE
4xia_SOR_A_1.pdb
 12 11 0 0 0
SMALL
GASTEIGER

@<TRIPOS>ATOM
      1  C1        25.8260   73.1840    9.1100 C.3   400  SOR400      0.2175
      2  C2        26.8090   74.1960    9.6830 C.3   400  SOR400      0.2175
      3  C3        26.1380   75.2610   10.5750 C.3   400  SOR400      0.2175
      4  C4        27.3120   76.3360   10.5880 C.3   400  SOR400      0.2175
      5  C5        26.7040   77.6220   11.1140 C.3   400  SOR400      0.2175
      6  C6        27.7720   78.6500   11.3210 C.3   400  SOR400      0.2175
      7  O1        26.5220   72.1970    8.3170 O.3   400  SOR400     -0.2175
      8  O2        27.8270   73.3680   10.3270 O.3   400  SOR400     -0.2175
      9  O3        25.7080   74.7590   11.9550 O.3   400  SOR400     -0.2175
     10  O4        28.3440   75.9690   11.5370 O.3   400  SOR400     -0.2175
     11  O5        25.8640   78.0450   10.0830 O.3   400  SOR400     -0.2175
     12  O6        28.2330   78.7540   12.6500 O.3   400  SOR400     -0.2175
@<TRIPOS>BOND
     1     7     1    1
     2     1     2    1
     3     2     8    1
     4     2     3    1
     5    11     5    1
     6     3     4    1
     7     3     9    1
     8     4     5    1
     9     4    10    1
    10     5     6    1
    11     6    12    1
