@<TRIPOS>MOLECULE
4xis_XLS_A_1.pdb
 10 9 0 0 0
SMALL
GASTEIGER

@<TRIPOS>ATOM
      1  C1         9.9690   33.6060   47.4490 C.2   393  XLS393      0.2741
      2  C2        11.0560   33.7990   46.4180 C.2   393  XLS393      0.2477
      3  C3        11.9580   32.6940   45.9540 C.3   393  XLS393      0.2490
      4  C4        13.3910   33.1010   45.7210 C.3   393  XLS393      0.2225
      5  C5        14.2440   31.8260   45.5480 C.3   393  XLS393      0.2179
      6  O1         9.1110   34.7420   47.6770 O.2   393  XLS393     -0.2799
      7  O2        11.2390   34.9360   45.7260 O.2   393  XLS393     -0.2850
      8  O3        11.3950   32.1310   44.7460 O.3   393  XLS393     -0.2118
      9  O4        13.5790   33.8490   44.4860 O.3   393  XLS393     -0.2171
     10  O5        14.5490   31.1650   46.7770 O.3   393  XLS393     -0.2175
@<TRIPOS>BOND
     1     9     4    1
     2     8     3    1
     3     5     4    1
     4     5    10    1
     5     4     3    1
     6     7     2    1
     7     3     2    1
     8     2     1    2
     9     1     6    1
