@<TRIPOS>MOLECULE
4xis_XYS_A_1.pdb
 10 10 0 0 0
SMALL
GASTEIGER

@<TRIPOS>ATOM
      1  C1        11.3950   30.9330   46.0140 C.2   394  XYS394      0.3506
      2  C2        11.6240   32.4060   45.5000 C.3   394  XYS394      0.2823
      3  C3        12.9550   32.3870   44.7840 C.3   394  XYS394      0.2270
      4  C4        14.0470   32.1520   45.8210 C.3   394  XYS394      0.2287
      5  C5        13.5700   31.2660   46.9060 C.3   394  XYS394      0.2439
      6  O1        10.8390   29.9600   45.1890 O.2   394  XYS394     -0.2472
      7  O2        10.5020   32.7820   44.7570 O.3   394  XYS394     -0.2082
      8  O3        13.2060   33.6110   44.0960 O.3   394  XYS394     -0.2169
      9  O4        15.2930   31.8470   45.2550 O.3   394  XYS394     -0.2163
     10  O5        12.3000   30.6630   46.9830 O.3   394  XYS394     -0.4438
@<TRIPOS>BOND
     1     8     3    1
     2     7     2    1
     3     3     2    1
     4     3     4    1
     5     6     1    2
     6     9     4    1
     7     2     1    1
     8     4     5    1
     9     1    10    1
    10     5    10    1
