@<TRIPOS>MOLECULE
521p_GTP_A_1.pdb
 32 34 0 0 0
SMALL
GASTEIGER

@<TRIPOS>ATOM
      1  PG         5.1350   32.3570   21.8450 P.3   167  GTP167      0.5373
      2  O1G        5.0490   33.0270   23.1860 O.3   167  GTP167     -0.1143
      3  O2G        4.3940   32.9670   20.6950 O.2   167  GTP167     -0.2221
      4  O3G        4.5360   30.8890   22.0280 O.3   167  GTP167     -0.1143
      5  O3B        6.7530   32.1280   21.4920 O.3   167  GTP167     -0.2258
      6  PB         7.2500   32.0000   19.9630 P.3   167  GTP167      0.2277
      7  O1B        7.3700   30.5530   19.7770 O.3   167  GTP167     -0.4368
      8  O2B        6.3100   32.6470   19.0430 O.2   167  GTP167     -0.5168
      9  O3A        8.7290   32.6790   19.7790 O.3   167  GTP167     -0.2700
     10  PA         9.2530   34.2560   19.3940 P.3   167  GTP167      0.2189
     11  O1A        9.4910   34.3860   17.9170 O.2   167  GTP167     -0.5170
     12  O2A        8.6160   35.3420   20.1680 O.3   167  GTP167     -0.4371
     13  O5'       10.7250   34.2600   19.9990 O.3   167  GTP167     -0.3112
     14  C5'       11.0150   33.9020   21.3490 C.3   167  GTP167      0.1813
     15  C4'       12.4680   34.2020   21.6120 C.3   167  GTP167      0.1799
     16  O4'       13.4570   33.4460   20.8280 O.3   167  GTP167     -0.3326
     17  C3'       12.6650   35.6920   21.3010 C.3   167  GTP167      0.2158
     18  O3'       13.3970   36.1700   22.4380 O.3   167  GTP167     -0.2175
     19  C2'       13.4490   35.6980   19.9710 C.3   167  GTP167      0.2310
     20  O2'       14.3190   36.8870   19.8290 O.3   167  GTP167     -0.2158
     21  C1'       14.2370   34.3780   20.0890 C.3   167  GTP167      0.2293
     22  N9        14.3710   33.6850   18.8350 N.pl3 167  GTP167     -0.2354
     23  C8        13.4680   33.4470   17.8610 C.3   167  GTP167      0.2246
     24  N7        13.9340   32.9330   16.7520 N.2   167  GTP167     -0.2322
     25  C5        15.2540   32.6840   17.0980 C.2   167  GTP167      0.2182
     26  C6        16.3240   32.1390   16.3430 C.1   167  GTP167      0.2372
     27  O6        16.3190   31.6490   15.2420 O.2   167  GTP167     -0.2069
     28  N1        17.5240   32.2160   17.0030 N.2   167  GTP167     -0.2485
     29  C2        17.7220   32.9030   18.1970 C.1   167  GTP167      0.2531
     30  N2        18.9710   33.2570   18.5370 N.pl3 167  GTP167     -0.0226
     31  N3        16.7120   33.3420   18.9380 N.2   167  GTP167     -0.3074
     32  C4        15.5150   33.1940   18.3440 C.2   167  GTP167      0.2300
@<TRIPOS>BOND
     1    27    26    2
     2    26    28    2
     3    26    25    1
     4    24    25    2
     5    24    23    1
     6    28    29    2
     7    25    32    1
     8    23    22    1
     9    11    10    2
    10    29    30    1
    11    29    31    2
    12    32    22    1
    13    32    31    2
    14    22    21    1
    15     8     6    2
    16    10     9    1
    17    10    13    1
    18    10    12    1
    19     7     6    1
    20     9     6    1
    21    20    19    1
    22     6     5    1
    23    19    21    1
    24    19    17    1
    25    13    14    1
    26    21    16    1
    27     3     1    2
    28    16    15    1
    29    17    15    1
    30    17    18    1
    31    14    15    1
    32     5     1    1
    33     1     4    1
    34     1     2    1
