@<TRIPOS>MOLECULE
5a3h_FFC_A_1.pdb
 22 23 0 0 0
SMALL
GASTEIGER

@<TRIPOS>ATOM
      1  C1A       62.5070   41.6540   35.0240 C.3   900  FFC900      0.1801
      2  C2A       61.0930   42.0430   34.7490 C.3   900  FFC900      0.2229
      3  C3A       61.0240   43.5370   34.5370 C.3   900  FFC900      0.2163
      4  C4A       61.6800   44.2340   35.7610 C.3   900  FFC900      0.1804
      5  C5A       63.1290   43.7630   35.8750 C.3   900  FFC900      0.1778
      6  C6A       63.7780   44.3540   37.1730 C.3   900  FFC900      0.2140
      7  F2A       60.7000   41.3620   33.5910 F     900  FFC900     -0.2317
      8  O3A       59.6600   43.9120   34.4010 O.3   900  FFC900     -0.2174
      9  O4A       61.6790   45.6440   35.4850 O.3   900  FFC900     -0.3257
     10  O5A       63.1550   42.3410   36.0810 O.3   900  FFC900     -0.3480
     11  O6A       63.0180   43.8560   38.2780 O.3   900  FFC900     -0.2176
     12  C1B       61.2130   46.3670   36.6410 C.3   900  FFC900      0.2695
     13  C2B       61.4640   47.8370   36.2900 C.3   900  FFC900      0.2406
     14  C3B       60.9080   48.6850   37.4480 C.3   900  FFC900      0.2198
     15  C4B       59.4010   48.4100   37.5040 C.3   900  FFC900      0.2144
     16  C5B       59.2350   46.9030   37.8520 C.3   900  FFC900      0.1835
     17  C6B       57.7780   46.4790   37.9720 C.3   900  FFC900      0.2142
     18  O2B       62.8610   47.9710   36.2240 O.3   900  FFC900     -0.2149
     19  O3B       61.1050   50.0790   37.0540 O.3   900  FFC900     -0.2174
     20  O4B       58.9620   49.1990   38.6320 O.3   900  FFC900     -0.2176
     21  O5B       59.8420   46.1910   36.7650 O.3   900  FFC900     -0.3256
     22  O6B       57.1650   46.8180   36.7380 O.3   900  FFC900     -0.2176
@<TRIPOS>BOND
     1     7     2    1
     2     8     3    1
     3     3     2    1
     4     3     4    1
     5     2     1    1
     6     1    10    1
     7     9     4    1
     8     9    12    1
     9     4     5    1
    10     5    10    1
    11     5     6    1
    12    18    13    1
    13    13    12    1
    14    13    14    1
    15    12    21    1
    16    22    17    1
    17    21    16    1
    18    19    14    1
    19     6    11    1
    20    14    15    1
    21    15    16    1
    22    15    20    1
    23    16    17    1
