@<TRIPOS>MOLECULE
5abp_GAL_A_1.pdb
 12 12 0 0 0
SMALL
GASTEIGER

@<TRIPOS>ATOM
      1  C1        14.2040   56.4420   55.2090 C.3   308  GAL308      0.3024
      2  C2        12.8560   57.0760   54.8650 C.3   308  GAL308      0.2434
      3  C3        12.3360   56.4200   53.7620 C.3   308  GAL308      0.2199
      4  C4        13.2590   56.4780   52.4720 C.3   308  GAL308      0.2144
      5  C5        14.6400   55.9240   52.8870 C.3   308  GAL308      0.1836
      6  C6        15.7020   56.2690   51.8150 C.3   308  GAL308      0.2142
      7  O1        14.7680   57.0690   56.3040 O.3   308  GAL308     -0.1869
      8  O2        11.9720   56.7950   55.9760 O.3   308  GAL308     -0.2148
      9  O3        10.9710   56.6730   53.3480 O.3   308  GAL308     -0.2174
     10  O4        13.2700   57.8460   52.0500 O.3   308  GAL308     -0.2176
     11  O5        15.0870   56.6370   54.0910 O.3   308  GAL308     -0.3236
     12  O6        17.0390   55.9090   52.1280 O.3   308  GAL308     -0.2176
@<TRIPOS>BOND
     1     6    12    1
     2     6     5    1
     3    10     4    1
     4     4     5    1
     5     4     3    1
     6     5    11    1
     7     9     3    1
     8     3     2    1
     9    11     1    1
    10     2     1    1
    11     2     8    1
    12     1     7    1
