@<TRIPOS>MOLECULE
5abp_GLA_A_1.pdb
 12 12 0 0 0
SMALL
GASTEIGER

@<TRIPOS>ATOM
      1  C1        14.4720   56.9750   55.3190 C.3   307  GLA307      0.3024
      2  C2        13.0680   57.2990   54.9590 C.3   307  GLA307      0.2434
      3  C3        12.5200   56.4060   53.8800 C.3   307  GLA307      0.2199
      4  C4        13.4660   56.4640   52.6520 C.3   307  GLA307      0.2144
      5  C5        14.8860   56.1970   53.0820 C.3   307  GLA307      0.1836
      6  C6        15.8590   56.5790   51.9250 C.3   307  GLA307      0.2142
      7  O1        14.6450   55.7290   55.8740 O.3   307  GLA307     -0.1869
      8  O2        12.2520   57.2490   56.2020 O.3   307  GLA307     -0.2148
      9  O3        11.2010   56.7160   53.5980 O.3   307  GLA307     -0.2174
     10  O4        13.2190   57.7380   52.0030 O.3   307  GLA307     -0.2176
     11  O5        15.3160   57.1410   54.1220 O.3   307  GLA307     -0.3236
     12  O6        17.0720   56.0530   52.3160 O.3   307  GLA307     -0.2176
@<TRIPOS>BOND
     1     6    12    1
     2     6     5    1
     3    10     4    1
     4     4     5    1
     5     4     3    1
     6     5    11    1
     7     9     3    1
     8     3     2    1
     9    11     1    1
    10     2     1    1
    11     2     8    1
    12     1     7    1
