@<TRIPOS>MOLECULE
5acn_TRC_A_1.pdb
 12 11 0 0 0
SMALL
GASTEIGER

@<TRIPOS>ATOM
      1  C1        76.9620   43.1660   28.5100 C.2   899  TRC899      0.3654
      2  O1        77.9230   43.6710   29.1470 O.co2 899  TRC899     -0.2456
      3  O2        77.0390   43.0840   27.2660 O.co2 899  TRC899     -0.2456
      4  C2        75.7200   42.5190   29.1720 C.3   899  TRC899      0.1258
      5  C3        75.9700   41.8380   30.5780 C.3   899  TRC899      0.1258
      6  C4        74.8170   40.9440   31.1390 C.3   899  TRC899      0.1258
      7  C5        74.1890   39.7810   30.3080 C.2   899  TRC899      0.3654
      8  O3        74.6410   38.6470   30.4710 O.co2 899  TRC899     -0.2456
      9  O4        73.2080   39.9240   29.5290 O.co2 899  TRC899     -0.2456
     10  C6        77.2860   41.0370   30.5070 C.2   899  TRC899      0.3654
     11  O5        77.6500   40.4450   29.4560 O.co2 899  TRC899     -0.2456
     12  O6        78.0170   41.0590   31.5200 O.co2 899  TRC899     -0.2456
@<TRIPOS>BOND
     1     3     1   ar
     2     1     2   ar
     3     1     4    1
     4     4     5    1
     5    11    10   ar
     6     9     7   ar
     7     7     8   ar
     8     7     6    1
     9    10     5    1
    10    10    12   ar
    11     5     6    1
