@<TRIPOS>MOLECULE
5adh_APR_A_1.pdb
 36 39 0 0 0
SMALL
GASTEIGER

@<TRIPOS>ATOM
      1  N1        16.5900    3.4660   36.5630 N.2   377  APR377      0.0021
      2  C2        17.0630    4.6160   35.9960 C.3   377  APR377      0.5254
      3  N3        16.9440    5.0250   34.7710 N.2   377  APR377     -0.0055
      4  C4        16.2490    4.1360   34.0260 C.2   377  APR377      0.3518
      5  C5        15.7050    2.9380   34.4290 C.2   377  APR377      0.2526
      6  C6        15.8910    2.5900   35.7890 C.2   377  APR377      0.4393
      7  N6        15.4270    1.4730   36.3400 N.pl3 377  APR377      0.2180
      8  N7        15.0710    2.3060   33.3620 N.2   377  APR377     -0.2095
      9  C8        15.2450    3.1440   32.3310 C.3   377  APR377      0.3377
     10  N9        15.9380    4.2580   32.6930 N.pl3 377  APR377     -0.1439
     11  C1'       16.3230    5.4240   31.9160 C.3   377  APR377      0.3186
     12  C2'       16.8740    5.0830   30.5540 C.3   377  APR377      0.2570
     13  O2'       18.2650    4.7170   30.6370 O.3   377  APR377     -0.2130
     14  C3'       16.6610    6.3830   29.7720 C.3   377  APR377      0.2184
     15  O3'       17.6970    7.3740   29.9040 O.3   377  APR377     -0.2174
     16  O4'       15.2270    6.2500   31.6750 O.3   377  APR377     -0.3135
     17  C4'       15.3470    6.8850   30.3760 C.3   377  APR377      0.1821
     18  C5'       14.0890    6.5780   29.5960 C.3   377  APR377      0.1813
     19  O5'       13.8080    7.6390   28.6620 O.3   377  APR377     -0.3112
     20  PA        13.6580    7.2760   27.1080 P.3   377  APR377      0.2189
     21  O1A       13.5790    5.8080   26.9380 O.3   377  APR377     -0.4371
     22  O2A       14.8130    7.8010   26.3500 O.2   377  APR377     -0.5170
     23  O3A       12.3360    8.0030   26.7500 O.3   377  APR377     -0.2703
     24  PB        11.7700    9.5080   27.0910 P.3   377  APR377      0.2189
     25  O1B       11.0980   10.0770   25.9040 O.2   377  APR377     -0.5170
     26  O2B       12.8720   10.3830   27.5340 O.3   377  APR377     -0.4371
     27  O5D       10.7730    9.1840   28.2360 O.3   377  APR377     -0.3112
     28  C5D        9.6800    8.3800   27.8760 C.3   377  APR377      0.1813
     29  O4D        8.4970    9.3860   29.6780 O.3   377  APR377     -0.3237
     30  O1D        6.7330   10.9220   29.4720 O.3   377  APR377     -0.1869
     31  C1D        7.1110    9.5210   29.7120 C.3   377  APR377      0.3023
     32  O2D        5.2680    8.0990   28.8940 O.3   377  APR377     -0.2148
     33  C2D        6.6000    8.5830   28.6400 C.3   377  APR377      0.2433
     34  O3D        7.1440    6.4570   29.7580 O.3   377  APR377     -0.2175
     35  C3D        7.5600    7.3960   28.7510 C.3   377  APR377      0.2168
     36  C4D        8.8400    8.1270   29.0620 C.3   377  APR377      0.1807
@<TRIPOS>BOND
     1    25    24    2
     2    22    20    2
     3    23    24    1
     4    23    20    1
     5    21    20    1
     6    24    26    1
     7    24    27    1
     8    20    19    1
     9    28    27    1
    10    28    36    1
    11    33    35    1
    12    33    32    1
    13    33    31    1
    14    19    18    1
    15    35    36    1
    16    35    34    1
    17    36    29    1
    18    30    31    1
    19    18    17    1
    20    29    31    1
    21    14    15    1
    22    14    17    1
    23    14    12    1
    24    17    16    1
    25    12    13    1
    26    12    11    1
    27    16    11    1
    28    11    10    1
    29     9    10    1
    30     9     8    1
    31    10     4    1
    32     8     5    2
    33     4     5    1
    34     4     3    2
    35     5     6    1
    36     3     2    1
    37     6     7    1
    38     6     1    2
    39     2     1    1
