@<TRIPOS>MOLECULE
5aiy_IPH_A_1.pdb
 13 13 0 0 0
SMALL
GASTEIGER

@<TRIPOS>ATOM
      1  C1        -9.0360    8.9890    7.4300 C.ar   22  IPH22       0.1169
      2  C2        -9.8760    8.1480    6.5940 C.ar   22  IPH22      -0.0202
      3  C3        -9.2840    7.0630    5.8280 C.ar   22  IPH22      -0.0583
      4  C4        -7.8530    6.8180    5.8990 C.ar   22  IPH22      -0.0615
      5  C5        -7.0130    7.6580    6.7340 C.ar   22  IPH22      -0.0583
      6  C6        -7.6030    8.7450    7.5010 C.ar   22  IPH22      -0.0202
      7  O1        -9.5980   10.0190    8.1560 O.3    22  IPH22      -0.5068
      8  H2       -10.9390    8.3300    6.5410 H      22  IPH22       0.0654
      9  H3        -9.9090    6.4380    5.2070 H      22  IPH22       0.0619
     10  H4        -7.4150    6.0120    5.3300 H      22  IPH22       0.0618
     11  H5        -5.9500    7.4750    6.7850 H      22  IPH22       0.0619
     12  H6        -6.9780    9.3700    8.1230 H      22  IPH22       0.0654
     13  HO1      -10.0710   10.5890    7.5450 H      22  IPH22       0.2921
@<TRIPOS>BOND
     1     9     3    1
     2    10     4    1
     3     3     4   ar
     4     3     2   ar
     5     4     5   ar
     6     8     2    1
     7     2     1   ar
     8     5    11    1
     9     5     6   ar
    10     1     6   ar
    11     1     7    1
    12     6    12    1
    13    13     7    1
