@<TRIPOS>MOLECULE
5at1_CTP_B_1.pdb
 29 30 0 0 0
SMALL
GASTEIGER

@<TRIPOS>ATOM
      1  N1        15.0700   84.3720   26.1470 N.am  155  CTP155     -0.1778
      2  C2        16.3200   84.9460   26.0890 C.1   155  CTP155      0.2756
      3  N3        16.5560   86.0290   25.3500 N.2   155  CTP155     -0.3024
      4  C4        15.6030   86.5910   24.5860 C.2   155  CTP155      0.2346
      5  C5        14.2860   85.9790   24.6320 C.2   155  CTP155      0.0687
      6  C6        13.9900   84.8830   25.3710 C.2   155  CTP155      0.0836
      7  O2        17.2700   84.3920   26.8490 O.2   155  CTP155     -0.1925
      8  N4        15.9860   87.6460   23.9170 N.pl3 155  CTP155     -0.0921
      9  C1'       14.9000   83.1520   26.9740 C.3   155  CTP155      0.2400
     10  C2'       14.0930   82.9950   28.2710 C.3   155  CTP155      0.2319
     11  O2'       15.1640   83.0870   29.2130 O.3   155  CTP155     -0.2157
     12  C3'       13.7240   81.5100   27.9450 C.3   155  CTP155      0.2158
     13  C4'       13.3640   81.2640   26.6300 C.3   155  CTP155      0.1799
     14  O4'       14.2770   82.3000   25.9510 O.3   155  CTP155     -0.3320
     15  O3'       14.9240   80.5810   28.1430 O.3   155  CTP155     -0.2175
     16  C5'       11.9340   81.6860   26.2120 C.3   155  CTP155      0.1813
     17  O5'       11.6010   81.1500   24.7780 O.3   155  CTP155     -0.3112
     18  PA        10.3160   81.6980   24.2890 P.3   155  CTP155      0.2189
     19  O1A       10.2650   83.2590   24.0950 O.3   155  CTP155     -0.4371
     20  O2A        9.8770   80.7880   23.1630 O.2   155  CTP155     -0.5170
     21  O3A        9.3220   81.5230   25.4630 O.3   155  CTP155     -0.2700
     22  PB         8.2860   80.2680   25.9510 P.3   155  CTP155      0.2277
     23  O1B        9.0120   79.0380   25.5410 O.3   155  CTP155     -0.4368
     24  O2B        6.9090   80.6950   25.2610 O.2   155  CTP155     -0.5168
     25  O3B        8.2790   80.4650   27.6260 O.3   155  CTP155     -0.2258
     26  PG         7.5920   79.3790   28.4690 P.3   155  CTP155      0.5373
     27  O1G        7.4370   78.1390   27.7590 O.2   155  CTP155     -0.2221
     28  O2G        6.2050   80.0570   28.6300 O.3   155  CTP155     -0.1143
     29  O3G        8.2440   79.3500   29.7660 O.3   155  CTP155     -0.1143
@<TRIPOS>BOND
     1    20    18    2
     2     8     4    1
     3    19    18    1
     4    18    17    1
     5    18    21    1
     6     4     5    1
     7     4     3    2
     8     5     6    2
     9    17    16    1
    10    24    22    2
    11     3     2    2
    12     6     1    1
    13    21    22    1
    14    23    22    1
    15    22    25    1
    16    14    13    1
    17    14     9    1
    18     2     1   am
    19     2     7    2
    20     1     9    1
    21    16    13    1
    22    13    12    1
    23     9    10    1
    24    25    26    1
    25    27    26    2
    26    12    15    1
    27    12    10    1
    28    10    11    1
    29    26    28    1
    30    26    29    1
