@<TRIPOS>MOLECULE
5bir_2GP_A_1.pdb
 24 26 0 0 0
SMALL
GASTEIGER

@<TRIPOS>ATOM
      1  P         43.3070   29.6680   60.7590 P.3   105  2GP105      0.5327
      2  O1P       41.9170   29.8800   60.6740 O.2   105  2GP105     -0.2224
      3  O2P       43.8210   30.5730   61.7870 O.3   105  2GP105     -0.1145
      4  O3P       43.9670   28.3470   60.8130 O.3   105  2GP105     -0.1145
      5  O5'       46.9430   34.1870   57.9350 O.3   105  2GP105     -0.2176
      6  C5'       47.3810   32.8710   58.2200 C.3   105  2GP105      0.2142
      7  C4'       46.0340   32.3730   58.5500 C.3   105  2GP105      0.1827
      8  O4'       45.4070   31.8420   57.3160 O.3   105  2GP105     -0.3326
      9  C3'       46.3720   31.2390   59.5920 C.3   105  2GP105      0.2132
     10  O3'       46.3310   31.5330   61.0090 O.3   105  2GP105     -0.2176
     11  C2'       45.2230   30.3200   59.0600 C.3   105  2GP105      0.2054
     12  O2'       43.8530   30.4090   59.5940 O.3   105  2GP105     -0.2657
     13  C1'       44.8880   30.5610   57.4930 C.3   105  2GP105      0.2266
     14  N9        45.4580   29.6430   56.4990 N.pl3 105  2GP105     -0.2354
     15  C8        44.6890   29.1490   55.4870 C.3   105  2GP105      0.2246
     16  N7        45.3850   28.4110   54.7050 N.2   105  2GP105     -0.2322
     17  C5        46.6590   28.4150   55.2520 C.2   105  2GP105      0.2182
     18  C6        47.8750   27.8470   54.9980 C.1   105  2GP105      0.2372
     19  O6        48.1430   26.9710   54.2200 O.2   105  2GP105     -0.2069
     20  N1        48.9720   28.0930   55.7900 N.2   105  2GP105     -0.2485
     21  C2        48.9500   28.9120   56.9090 C.1   105  2GP105      0.2531
     22  N2        49.9620   29.0770   57.7740 N.pl3 105  2GP105     -0.0226
     23  N3        47.8090   29.4080   57.1460 N.2   105  2GP105     -0.3074
     24  C4        46.7120   29.1570   56.3350 C.2   105  2GP105      0.2300
@<TRIPOS>BOND
     1    19    18    2
     2    16    17    2
     3    16    15    1
     4    18    17    1
     5    18    20    2
     6    17    24    1
     7    15    14    1
     8    20    21    2
     9    24    14    1
    10    24    23    2
    11    14    13    1
    12    21    23    2
    13    21    22    1
    14     8    13    1
    15     8     7    1
    16    13    11    1
    17     5     6    1
    18     6     7    1
    19     7     9    1
    20    11     9    1
    21    11    12    1
    22     9    10    1
    23    12     1    1
    24     2     1    2
    25     1     4    1
    26     1     3    1
