@<TRIPOS>MOLECULE
5bj3_PLP_A_1.pdb
 15 15 0 0 0
SMALL
GASTEIGER

@<TRIPOS>ATOM
      1  N1        22.1860   -0.7410   21.7140 N.ar  413  PLP413     -0.2452
      2  C2        21.1420   -0.7760   20.8320 C.ar  413  PLP413      0.0978
      3  C2A       19.8160   -1.4040   21.2790 C.3   413  PLP413      0.0555
      4  C3        21.2710   -0.1850   19.6090 C.ar  413  PLP413      0.2049
      5  O3        20.2400   -0.2160   18.7210 O.3   413  PLP413     -0.2857
      6  C4        22.4980    0.3680   19.2430 C.ar  413  PLP413      0.0182
      7  C4A       22.6770    1.0090   17.8600 C.3   413  PLP413      0.0342
      8  C5        23.5680    0.3690   20.1790 C.ar  413  PLP413      0.0261
      9  C6        23.3840   -0.1970   21.3940 C.ar  413  PLP413      0.0965
     10  C5A       24.9260    0.9740   19.8760 C.3   413  PLP413      0.1815
     11  O4P       25.2660    1.2180   18.5250 O.3   413  PLP413     -0.2653
     12  P         26.6180    1.8410   18.0180 P.3   413  PLP413      0.5329
     13  O1P       27.7170    0.9140   18.3210 O.3   413  PLP413     -0.1145
     14  O2P       26.6820    3.2260   18.5390 O.3   413  PLP413     -0.1145
     15  O3P       26.2910    1.8020   16.4700 O.2   413  PLP413     -0.2224
@<TRIPOS>BOND
     1    15    12    2
     2     7     6    1
     3    12    13    1
     4    12    11    1
     5    12    14    1
     6    11    10    1
     7     5     4    1
     8     6     4   ar
     9     6     8   ar
    10     4     2   ar
    11    10     8    1
    12     8     9   ar
    13     2     3    1
    14     2     1   ar
    15     9     1   ar
