@<TRIPOS>MOLECULE
5bj4_PLP_A_1.pdb
 15 15 0 0 0
SMALL
GASTEIGER

@<TRIPOS>ATOM
      1  N1        31.4420   47.3690   62.2680 N.ar  1413  PLP1413    -0.2452
      2  C2        31.7260   46.9940   60.9840 C.ar  1413  PLP1413     0.0978
      3  C2A       32.4000   45.6380   60.7470 C.3   1413  PLP1413     0.0555
      4  C3        31.4400   47.8590   59.9630 C.ar  1413  PLP1413     0.2049
      5  O3        31.7270   47.4850   58.6820 O.3   1413  PLP1413    -0.2857
      6  C4        30.8290   49.1060   60.2480 C.ar  1413  PLP1413     0.0182
      7  C4A       30.5380   50.0400   59.0760 C.3   1413  PLP1413     0.0342
      8  C5        30.5600   49.4410   61.5910 C.ar  1413  PLP1413     0.0261
      9  C6        30.8600   48.5490   62.5650 C.ar  1413  PLP1413     0.0965
     10  C5A       29.9260   50.7230   62.0450 C.3   1413  PLP1413     0.1815
     11  O4P       29.8510   51.8330   61.1820 O.3   1413  PLP1413    -0.2653
     12  P         29.2390   53.1960   61.6560 P.3   1413  PLP1413     0.5329
     13  O1P       27.8500   52.9180   62.0310 O.3   1413  PLP1413    -0.1145
     14  O2P       29.3910   54.0170   60.3090 O.2   1413  PLP1413    -0.2224
     15  O3P       30.1090   53.7920   62.6770 O.3   1413  PLP1413    -0.1145
@<TRIPOS>BOND
     1     5     4    1
     2     7     6    1
     3     4     6   ar
     4     4     2   ar
     5     6     8   ar
     6    14    12    2
     7     3     2    1
     8     2     1   ar
     9    11    12    1
    10    11    10    1
    11     8    10    1
    12     8     9   ar
    13    12    13    1
    14    12    15    1
    15     1     9   ar
