@<TRIPOS>MOLECULE
5bu4_2GP_A_1.pdb
 24 26 0 0 0
SMALL
GASTEIGER

@<TRIPOS>ATOM
      1  P         18.9660   20.6860   11.5850 P.3   106  2GP106      0.5327
      2  O1P       19.7660   21.2690   12.7100 O.3   106  2GP106     -0.1145
      3  O2P       18.4430   19.3550   11.8940 O.3   106  2GP106     -0.1145
      4  O3P       17.9730   21.6390   10.9970 O.2   106  2GP106     -0.2224
      5  O5'       24.5050   19.1460    9.5900 O.3   106  2GP106     -0.2176
      6  C5'       24.1700   20.5200    9.3300 C.3   106  2GP106      0.2142
      7  C4'       22.6600   20.7650    9.5630 C.3   106  2GP106      0.1827
      8  O4'       22.3550   19.9840    8.3970 O.3   106  2GP106     -0.3326
      9  C3'       22.2240   19.7130   10.6510 C.3   106  2GP106      0.2132
     10  O3'       22.6220   20.2390   11.9690 O.3   106  2GP106     -0.2176
     11  C2'       20.8130   19.4390   10.1380 C.3   106  2GP106      0.2054
     12  O2'       19.9350   20.5490   10.3770 O.3   106  2GP106     -0.2657
     13  C1'       21.0050   19.5620    8.5650 C.3   106  2GP106      0.2266
     14  N9        20.8330   18.1490    8.0050 N.pl3 106  2GP106     -0.2354
     15  C8        20.1990   17.7240    6.9370 C.3   106  2GP106      0.2246
     16  N7        20.1750   16.5000    6.7290 N.2   106  2GP106     -0.2322
     17  C5        20.9880   15.9990    7.7190 C.2   106  2GP106      0.2182
     18  C6        21.4000   14.6880    8.0460 C.1   106  2GP106      0.2372
     19  O6        21.0750   13.6550    7.4210 O.2   106  2GP106     -0.2069
     20  N1        22.1680   14.5740    9.1610 N.2   106  2GP106     -0.2485
     21  C2        22.5150   15.6540    9.8630 C.1   106  2GP106      0.2531
     22  N2        23.3370   15.4170   10.9420 N.pl3 106  2GP106     -0.0226
     23  N3        22.1720   16.9260    9.6430 N.2   106  2GP106     -0.3074
     24  C4        21.3970   17.0340    8.5310 C.2   106  2GP106      0.2300
@<TRIPOS>BOND
     1    16    15    1
     2    16    17    2
     3    15    14    1
     4    19    18    2
     5    17    18    1
     6    17    24    1
     7    14    24    1
     8    14    13    1
     9    18    20    2
    10     8    13    1
    11     8     7    1
    12    24    23    2
    13    13    11    1
    14    20    21    2
    15     6     7    1
    16     6     5    1
    17     7     9    1
    18    23    21    2
    19    21    22    1
    20    11    12    1
    21    11     9    1
    22    12     1    1
    23     9    10    1
    24     4     1    2
    25     1     3    1
    26     1     2    1
