@<TRIPOS>MOLECULE
5ccp_HEM_A_1.pdb
 43 50 0 0 0
SMALL
GASTEIGER

@<TRIPOS>ATOM
      1  CHA       -5.4090   53.8580   22.0580 C.2   296  HEM296      0.0000
      2  CHB       -7.5300   57.9580   23.5310 C.2   296  HEM296      0.0000
      3  CHC       -5.8630   60.0770   19.5310 C.2   296  HEM296      0.0000
      4  CHD       -3.5320   56.1350   18.2450 C.2   296  HEM296      0.0000
      5  C1A       -6.1000   54.8240   22.7220 C.2   296  HEM296      0.0000
      6  C2A       -6.5430   54.6220   24.0770 C.2   296  HEM296      0.0000
      7  C3A       -7.1860   55.7320   24.4670 C.2   296  HEM296      0.0000
      8  C4A       -7.0720   56.6800   23.3860 C.2   296  HEM296      0.0000
      9  CMA       -8.0710   55.9740   25.7150 C.3   296  HEM296      0.0000
     10  CAA       -6.5900   53.1900   24.6470 C.3   296  HEM296      0.0000
     11  CBA       -5.3970   52.9070   25.5610 C.3   296  HEM296      0.0000
     12  CGA       -5.4580   51.5640   26.2740 C.2   296  HEM296      0.0000
     13  O1A       -6.2760   51.3030   27.2250 O.co2 296  HEM296      0.0000
     14  O2A       -4.4690   50.8320   26.0230 O.co2 296  HEM296      0.0000
     15  C1B       -7.4360   58.7920   22.4420 C.ar  296  HEM296      0.0000
     16  C2B       -7.8520   60.1830   22.4770 C.ar  296  HEM296      0.0000
     17  C3B       -7.3510   60.7770   21.4040 C.ar  296  HEM296      0.0000
     18  C4B       -6.5860   59.7810   20.6800 C.ar  296  HEM296      0.0000
     19  CMB       -8.7990   60.7370   23.5170 C.3   296  HEM296      0.0000
     20  CAB       -7.7050   62.1370   20.7980 C.2   296  HEM296      0.0000
     21  CBB       -8.6900   62.8610   21.3020 C.2   296  HEM296      0.0000
     22  C1C       -5.0690   59.2330   18.8040 C.2   296  HEM296      0.0000
     23  C2C       -4.1510   59.5920   17.7350 C.2   296  HEM296      0.0000
     24  C3C       -3.4460   58.4820   17.4670 C.2   296  HEM296      0.0000
     25  C4C       -3.8590   57.4560   18.4070 C.2   296  HEM296      0.0000
     26  CMC       -3.9600   60.9820   17.0570 C.3   296  HEM296      0.0000
     27  CAC       -2.4420   58.2760   16.3110 C.2   296  HEM296      0.0000
     28  CBC       -2.6110   58.8960   15.1340 C.2   296  HEM296      0.0000
     29  C1D       -4.0400   55.1530   19.0750 C.ar  296  HEM296      0.0000
     30  C2D       -3.6680   53.7560   18.9280 C.ar  296  HEM296      0.0000
     31  C3D       -4.1980   53.1020   19.9670 C.ar  296  HEM296      0.0000
     32  C4D       -4.7980   54.1100   20.8440 C.ar  296  HEM296      0.0000
     33  CMD       -2.9380   53.2380   17.6780 C.3   296  HEM296      0.0000
     34  CAD       -4.1390   51.6040   20.3080 C.3   296  HEM296      0.0000
     35  CBD       -2.9700   51.2010   21.2420 C.3   296  HEM296      0.0000
     36  CGD       -2.9440   49.7450   21.6510 C.2   296  HEM296      0.0000
     37  O1D       -2.2140   49.5190   22.6510 O.co2 296  HEM296      0.0000
     38  O2D       -3.6870   48.9300   20.9900 O.co2 296  HEM296      0.0000
     39  NA        -6.3400   56.1300   22.3480 N.2   296  HEM296      0.0000
     40  NB        -6.5910   58.5970   21.3870 N.ar  296  HEM296      0.0000
     41  NC        -5.0270   57.8620   19.0160 N.2   296  HEM296      0.0000
     42  ND        -4.5220   55.3570   20.3410 N.ar  296  HEM296      0.0000
     43 FE         -5.7750   56.9300   20.6220 Fe    296  HEM296      0.0000
@<TRIPOS>BOND
     1    28    27    2
     2    27    24    1
     3    26    23    1
     4    24    23    2
     5    24    25    1
     6    33    30    1
     7    23    22    1
     8     4    25    1
     9     4    29    2
    10    25    41    2
    11    22    41    1
    12    22     3    2
    13    30    29   ar
    14    30    31   ar
    15    41    43    1
    16    29    42   ar
    17     3    18    1
    18    31    34    1
    19    31    32   ar
    20    34    35    1
    21    42    43    1
    22    42    32   ar
    23    43    40    1
    24    43    39    1
    25    18    40   ar
    26    18    17   ar
    27    20    21    2
    28    20    17    1
    29    32     1    2
    30    38    36   ar
    31    35    36    1
    32    40    15   ar
    33    17    16   ar
    34    36    37   ar
    35     1     5    1
    36    39     5    2
    37    39     8    1
    38    15    16   ar
    39    15     2    1
    40    16    19    1
    41     5     6    1
    42     8     2    2
    43     8     7    1
    44     6     7    2
    45     6    10    1
    46     7     9    1
    47    10    11    1
    48    11    12    1
    49    14    12   ar
    50    12    13   ar
