@<TRIPOS>MOLECULE
5cel_BGC_A_1.pdb
 12 12 0 0 0
SMALL
GASTEIGER

@<TRIPOS>ATOM
      1  C2        20.2450   50.6860   95.3790 C.3   452  BGC452      0.2434
      2  C3        21.4710   51.0150   94.5220 C.3   452  BGC452      0.2199
      3  C4        22.1650   52.2710   95.0590 C.3   452  BGC452      0.2144
      4  C5        22.4540   52.1310   96.5520 C.3   452  BGC452      0.1836
      5  C6        23.0630   53.3810   97.1600 C.3   452  BGC452      0.2142
      6  C1        20.6430   50.6140   96.8550 C.3   452  BGC452      0.3024
      7  O1        19.5230   50.3930   97.6370 O.3   452  BGC452     -0.1869
      8  O2        19.6960   49.4420   94.9730 O.3   452  BGC452     -0.2148
      9  O3        21.0680   51.2300   93.1780 O.3   452  BGC452     -0.2174
     10  O4        23.4030   52.4900   94.3560 O.3   452  BGC452     -0.2176
     11  O5        21.2330   51.8530   97.2670 O.3   452  BGC452     -0.3236
     12  O6        22.2870   54.5330   96.8690 O.3   452  BGC452     -0.2176
@<TRIPOS>BOND
     1     9     2    1
     2    10     3    1
     3     2     3    1
     4     2     1    1
     5     8     1    1
     6     3     4    1
     7     1     6    1
     8     4     5    1
     9     4    11    1
    10     6    11    1
    11     6     7    1
    12    12     5    1
