@<TRIPOS>MOLECULE
5cev_LYS_A_1.pdb
 10 9 0 0 0
SMALL
GASTEIGER

@<TRIPOS>ATOM
      1  N         13.2100   81.7170   44.9690 N.3   401  LYS401     -0.1208
      2  CA        12.6410   81.6670   43.6040 C.3   401  LYS401      0.1943
      3  C         13.2150   80.4580   42.8890 C.2   401  LYS401      0.3819
      4  O         12.6430   80.1110   41.8450 O.co2 401  LYS401     -0.2441
      5  CB        12.9730   82.9520   42.8360 C.3   401  LYS401      0.0307
      6  CG        14.4490   83.1660   42.5930 C.3   401  LYS401      0.0036
      7  CD        14.7040   84.4130   41.7850 C.3   401  LYS401      0.0206
      8  CE        16.1700   84.4960   41.4260 C.3   401  LYS401      0.1093
      9  NZ        16.4760   85.6680   40.5780 N.3   401  LYS401     -0.1314
     10  OXT       14.1890   79.8640   43.4000 O.co2 401  LYS401     -0.2441
@<TRIPOS>BOND
     1     9     8    1
     2     8     7    1
     3     7     6    1
     4     4     3   ar
     5     6     5    1
     6     5     2    1
     7     3    10   ar
     8     3     2    1
     9     2     1    1
