@<TRIPOS>MOLECULE
5cgt_BGC_A_1.pdb
 12 12 0 0 0
SMALL
GASTEIGER

@<TRIPOS>ATOM
      1  C2        44.8620   55.1720   17.0720 C.3   708  BGC708      0.2434
      2  C3        45.2430   55.0070   18.5480 C.3   708  BGC708      0.2199
      3  C4        46.7570   54.9390   18.7130 C.3   708  BGC708      0.2144
      4  C5        47.3470   56.1880   18.0580 C.3   708  BGC708      0.1836
      5  C6        48.8600   56.3540   18.1480 C.3   708  BGC708      0.2142
      6  C1        45.5970   56.3770   16.4790 C.3   708  BGC708      0.3024
      7  O1        45.3610   56.4730   15.1160 O.3   708  BGC708     -0.1869
      8  O2        43.4590   55.3820   16.9660 O.3   708  BGC708     -0.2148
      9  O3        44.6590   53.8360   19.0820 O.3   708  BGC708     -0.2174
     10  O4        47.0630   54.9200   20.1250 O.3   708  BGC708     -0.2176
     11  O5        46.9930   56.2150   16.6650 O.3   708  BGC708     -0.3236
     12  O6        49.5450   55.3810   17.3680 O.3   708  BGC708     -0.2176
@<TRIPOS>BOND
     1     7     6    1
     2     6    11    1
     3     6     1    1
     4    11     4    1
     5     8     1    1
     6     1     2    1
     7    12     5    1
     8     4     5    1
     9     4     3    1
    10     2     3    1
    11     2     9    1
    12     3    10    1
