@<TRIPOS>MOLECULE
5cgt_GLC_A_1.pdb
 11 11 0 0 0
SMALL
GASTEIGER

@<TRIPOS>ATOM
      1  C1        47.5610   53.7560   20.6760 C.3   707  GLC707      0.1777
      2  C2        46.8930   53.4980   22.0320 C.3   707  GLC707      0.2141
      3  C3        47.3140   54.5060   23.1110 C.3   707  GLC707      0.2173
      4  C4        48.8400   54.6300   23.1360 C.3   707  GLC707      0.2142
      5  C5        49.3770   54.9350   21.7400 C.3   707  GLC707      0.1810
      6  C6        50.9040   55.0080   21.7310 C.3   707  GLC707      0.2141
      7  O2        45.4940   53.5550   21.8700 O.3   707  GLC707     -0.2176
      8  O3        46.8430   54.0570   24.3810 O.3   707  GLC707     -0.2175
      9  O4        49.2370   55.6610   24.0240 O.3   707  GLC707     -0.2176
     10  O5        48.9830   53.8950   20.8060 O.3   707  GLC707     -0.3481
     11  O6        51.4260   54.8180   20.4200 O.3   707  GLC707     -0.2176
@<TRIPOS>BOND
     1    11     6    1
     2     1    10    1
     3     1     2    1
     4    10     5    1
     5     6     5    1
     6     5     4    1
     7     7     2    1
     8     2     3    1
     9     3     4    1
    10     3     8    1
    11     4     9    1
