@<TRIPOS>MOLECULE
5cox_HEM_A_1.pdb
 43 50 0 0 0
SMALL
GASTEIGER

@<TRIPOS>ATOM
      1  CHA       23.4320   34.4600   -0.2940 C.2   682  HEM682      0.0000
      2  CHB       20.2530   37.9990    0.2010 C.2   682  HEM682      0.0000
      3  CHC       20.0500   37.1320    4.8960 C.2   682  HEM682      0.0000
      4  CHD       22.8810   33.3170    4.3370 C.2   682  HEM682      0.0000
      5  C1A       22.5450   35.4570   -0.5790 C.ar  682  HEM682      0.0000
      6  C2A       22.4550   36.0910   -1.8700 C.ar  682  HEM682      0.0000
      7  C3A       21.5650   37.0890   -1.7260 C.ar  682  HEM682      0.0000
      8  C4A       21.0920   37.0500   -0.3540 C.ar  682  HEM682      0.0000
      9  CMA       21.1920   38.1200   -2.7710 C.3   682  HEM682      0.0000
     10  CAA       23.1560   35.6780   -3.1530 C.3   682  HEM682      0.0000
     11  CBA       22.5820   34.3410   -3.6800 C.3   682  HEM682      0.0000
     12  CGA       23.0810   33.9250   -5.0960 C.2   682  HEM682      0.0000
     13  O1A       23.5170   32.7450   -5.2470 O.co2 682  HEM682      0.0000
     14  O2A       23.0280   34.7560   -6.0500 O.co2 682  HEM682      0.0000
     15  C1B       19.9500   38.1040    1.5320 C.2   682  HEM682      0.0000
     16  C2B       19.1390   39.1460    2.0910 C.2   682  HEM682      0.0000
     17  C3B       19.1350   38.9820    3.4150 C.2   682  HEM682      0.0000
     18  C4B       19.9290   37.7750    3.6740 C.2   682  HEM682      0.0000
     19  CMB       18.3700   40.2100    1.3520 C.3   682  HEM682      0.0000
     20  CAB       18.4570   39.8170    4.2920 C.3   682  HEM682      0.0000
     21  CBB       18.8640   40.0280    5.6770 C.3   682  HEM682      0.0000
     22  C1C       20.7040   35.9500    5.1290 C.ar  682  HEM682      0.0000
     23  C2C       20.8370   35.3420    6.4230 C.ar  682  HEM682      0.0000
     24  C3C       21.6330   34.2870    6.2910 C.ar  682  HEM682      0.0000
     25  C4C       21.9740   34.2180    4.8840 C.ar  682  HEM682      0.0000
     26  CMC       20.2050   35.7610    7.7340 C.3   682  HEM682      0.0000
     27  CAC       22.0850   33.5240    7.3600 C.3   682  HEM682      0.0000
     28  CBC       22.4030   32.1270    7.2730 C.3   682  HEM682      0.0000
     29  C1D       23.3200   33.3290    3.0140 C.2   682  HEM682      0.0000
     30  C2D       24.3750   32.4930    2.4710 C.2   682  HEM682      0.0000
     31  C3D       24.5670   32.8830    1.2040 C.2   682  HEM682      0.0000
     32  C4D       23.6050   33.8960    0.9390 C.2   682  HEM682      0.0000
     33  CMD       25.0850   31.3520    3.1770 C.3   682  HEM682      0.0000
     34  CAD       25.6800   32.4960    0.2630 C.3   682  HEM682      0.0000
     35  CBD       26.8800   33.4220    0.3850 C.3   682  HEM682      0.0000
     36  CGD       27.8120   33.3510   -0.8060 C.2   682  HEM682      0.0000
     37  O1D       28.2090   32.2340   -1.1800 O.co2 682  HEM682      0.0000
     38  O2D       28.1350   34.4050   -1.3860 O.co2 682  HEM682      0.0000
     39  NA        21.7090   36.0430    0.3570 N.ar  682  HEM682      0.0000
     40  NB        20.4350   37.2620    2.5040 N.2   682  HEM682      0.0000
     41  NC        21.3830   35.2550    4.1820 N.ar  682  HEM682      0.0000
     42  ND        22.8590   34.2140    2.0540 N.2   682  HEM682      0.0000
     43 FE         21.5670   35.6860    2.2840 Fe    682  HEM682      0.0000
@<TRIPOS>BOND
     1    14    12   ar
     2    13    12   ar
     3    12    11    1
     4    11    10    1
     5    10     6    1
     6     9     7    1
     7     6     7   ar
     8     6     5   ar
     9     7     8   ar
    10    38    36   ar
    11    37    36   ar
    12    36    35    1
    13     5     1    2
    14     5    39   ar
    15     8     2    2
    16     8    39   ar
    17     1    32    1
    18     2    15    1
    19    34    35    1
    20    34    31    1
    21    39    43    1
    22    32    31    1
    23    32    42    2
    24    31    30    2
    25    19    16    1
    26    15    16    1
    27    15    40    2
    28    42    43    1
    29    42    29    1
    30    16    17    2
    31    43    40    1
    32    43    41    1
    33    30    29    1
    34    30    33    1
    35    40    18    1
    36    29     4    2
    37    17    18    1
    38    17    20    1
    39    18     3    2
    40    41    25   ar
    41    41    22   ar
    42    20    21    1
    43     4    25    1
    44    25    24   ar
    45     3    22    1
    46    22    23   ar
    47    24    23   ar
    48    24    27    1
    49    23    26    1
    50    28    27    1
