@<TRIPOS>MOLECULE
5cp4_HEM_A_1.pdb
 47 54 0 0 0
SMALL
GASTEIGER

@<TRIPOS>ATOM
      1  CHA        9.0730    7.2420    8.8980 C.2   417  HEM417      0.0000
      2  CHB        4.6100    9.0430    9.3550 C.2   417  HEM417      0.0000
      3  CHC        2.7860    4.5740    9.5200 C.2   417  HEM417      0.0000
      4  CHD        7.2580    2.8060    9.7210 C.2   417  HEM417      0.0000
      5  C1A        8.0200    8.1250    9.0120 C.2   417  HEM417      0.0000
      6  C2A        8.1770    9.5760    9.0100 C.2   417  HEM417      0.0000
      7  C3A        6.8950   10.0660    9.1550 C.2   417  HEM417      0.0000
      8  C4A        5.9820    8.9320    9.2290 C.2   417  HEM417      0.0000
      9  CMA        6.5030   11.5450    9.2210 C.3   417  HEM417      0.0000
     10  CAA        9.4900   10.3620    8.8680 C.3   417  HEM417      0.0000
     11  CBA       10.0540   10.8320   10.1880 C.3   417  HEM417      0.0000
     12  CGA       11.3610   11.6070   10.0230 C.2   417  HEM417      0.0000
     13  O1A       11.6670   12.0600    8.9030 O.co2 417  HEM417      0.0000
     14  O2A       12.0950   11.7550   11.0220 O.co2 417  HEM417      0.0000
     15  C1B        3.7070    8.0050    9.4110 C.ar  417  HEM417      0.0000
     16  C2B        2.2640    8.1600    9.4110 C.ar  417  HEM417      0.0000
     17  C3B        1.7140    6.8830    9.3850 C.ar  417  HEM417      0.0000
     18  C4B        2.8710    5.9790    9.4140 C.ar  417  HEM417      0.0000
     19  CMB        1.4990    9.4810    9.3780 C.3   417  HEM417      0.0000
     20  CAB        0.3750    6.4550    9.3010 C.2   417  HEM417      0.0000
     21  CBB       -0.7770    7.1280    9.0350 C.2   417  HEM417      0.0000
     22  C1C        3.8510    3.6850    9.5840 C.2   417  HEM417      0.0000
     23  C2C        3.7270    2.2280    9.6280 C.2   417  HEM417      0.0000
     24  C3C        4.9690    1.7370    9.8390 C.2   417  HEM417      0.0000
     25  C4C        5.8770    2.8900    9.8600 C.2   417  HEM417      0.0000
     26  CMC        2.4620    1.4220    9.3680 C.3   417  HEM417      0.0000
     27  CAC        5.2650    0.3720    9.9100 C.2   417  HEM417      0.0000
     28  CBC        5.5730   -0.2540   11.0770 C.2   417  HEM417      0.0000
     29  C1D        8.1040    3.8400    9.2480 C.ar  417  HEM417      0.0000
     30  C2D        9.5470    3.7110    9.0980 C.ar  417  HEM417      0.0000
     31  C3D       10.0590    4.9490    8.9340 C.ar  417  HEM417      0.0000
     32  C4D        8.9320    5.8600    8.8990 C.ar  417  HEM417      0.0000
     33  CMD       10.3900    2.4310    9.0660 C.3   417  HEM417      0.0000
     34  CAD       11.5310    5.3000    8.8960 C.3   417  HEM417      0.0000
     35  CBD       12.1220    5.4360    7.4930 C.3   417  HEM417      0.0000
     36  CGD       13.5570    5.9370    7.5120 C.2   417  HEM417      0.0000
     37  O1D       14.2400    5.8660    6.4760 O.co2 417  HEM417      0.0000
     38  O2D       14.0110    6.4160    8.5680 O.co2 417  HEM417      0.0000
     39  NA         6.6850    7.7420    9.1220 N.2   417  HEM417      0.0000
     40  NB         4.0710    6.6550    9.3610 N.ar  417  HEM417      0.0000
     41  NC         5.1670    4.0750    9.6180 N.2   417  HEM417      0.0000
     42  ND         7.7190    5.1680    9.0440 N.ar  417  HEM417      0.0000
     43 FE          5.8850    5.8760    9.0710 Fe    417  HEM417      0.0000
     44  HHB        4.4530    9.6110   10.2810 H     417  HEM417      0.0000
     45  HHC        1.9340    4.1800    8.9670 H     417  HEM417      0.0000
     46  HHD        7.6110    2.4380   10.6780 H     417  HEM417      0.0000
     47  HHA       10.0680    7.6670    8.8040 H     417  HEM417      0.0000
@<TRIPOS>BOND
     1    37    36   ar
     2    35    36    1
     3    35    34    1
     4    36    38   ar
     5    47     1    1
     6    10     6    1
     7    10    11    1
     8    34    31    1
     9     1    32    2
    10     1     5    1
    11    32    31   ar
    12    32    42   ar
    13    13    12   ar
    14    31    30   ar
    15    45     3    1
    16     6     5    1
    17     6     7    2
    18     5    39    2
    19    21    20    2
    20    42    43    1
    21    42    29   ar
    22    33    30    1
    23    43    39    1
    24    43    40    1
    25    43    41    1
    26    30    29   ar
    27    39     8    1
    28     7     9    1
    29     7     8    1
    30     8     2    2
    31    29     4    2
    32    20    17    1
    33     2    15    1
    34     2    44    1
    35    40    15   ar
    36    40    18   ar
    37    26    23    1
    38    19    16    1
    39    17    16   ar
    40    17    18   ar
    41    15    16   ar
    42    18     3    1
    43     3    22    2
    44    22    41    1
    45    22    23    1
    46    41    25    2
    47    23    24    2
    48     4    25    1
    49     4    46    1
    50    24    25    1
    51    24    27    1
    52    27    28    2
    53    12    11    1
    54    12    14   ar
