@<TRIPOS>MOLECULE
5cp4_CAM_A_1.pdb
 11 12 0 0 0
SMALL
GASTEIGER

@<TRIPOS>ATOM
      1  C1         7.4280    7.5740   14.6450 C.3   422  CAM422      0.0515
      2  C2         8.9390    7.5280   14.5490 C.2   422  CAM422      0.1498
      3  O          9.6700    7.4150   15.5320 O.2   422  CAM422     -0.2961
      4  C3         9.4430    7.6860   13.1420 C.3   422  CAM422      0.0645
      5  C4         8.0570    7.7690   12.4670 C.3   422  CAM422      0.0077
      6  C5         7.4080    6.3410   12.6160 C.3   422  CAM422      0.0009
      7  C6         6.9030    6.2360   14.0900 C.3   422  CAM422      0.0069
      8  C7         7.2380    8.5500   13.4830 C.3   422  CAM422      0.0066
      9  C8         7.8730    9.9320   13.7780 C.3   422  CAM422      0.0004
     10  C9         5.7740    8.6280   13.0570 C.3   422  CAM422      0.0004
     11  C10        6.9380    8.1020   15.9880 C.3   422  CAM422      0.0073
@<TRIPOS>BOND
     1     5     6    1
     2     5     4    1
     3     5     8    1
     4     6     7    1
     5    10     8    1
     6     4     2    1
     7     8     9    1
     8     8     1    1
     9     7     1    1
    10     2     1    1
    11     2     3    2
    12     1    11    1
