@<TRIPOS>MOLECULE
5cpp_ADO_A_1.pdb
 11 13 0 0 0
SMALL
GASTEIGER

@<TRIPOS>ATOM
      1  C1        46.4610   44.9700   15.3710 C.3   422  ADO422      0.0576
      2  C2        45.0150   44.7760   14.8050 C.2   422  ADO422      0.1498
      3  C3        45.0250   44.2900   13.3020 C.3   422  ADO422      0.0576
      4  C4        45.8530   45.3610   12.4280 C.3   422  ADO422      0.0073
      5  C5        47.2870   45.5450   12.9900 C.3   422  ADO422      0.0008
      6  C6        48.0410   44.1310   12.8760 C.3   422  ADO422      0.0000
      7  C7        47.2400   43.0910   13.7520 C.3   422  ADO422      0.0008
      8  C8        47.2190   43.5230   15.2620 C.3   422  ADO422      0.0073
      9  C9        47.2030   45.9790   14.5080 C.3   422  ADO422      0.0073
     10  C10       45.7160   42.9290   13.3000 C.3   422  ADO422      0.0073
     11  O2        43.9840   44.8270   15.4210 O.2   422  ADO422     -0.2961
@<TRIPOS>BOND
     1     4     5    1
     2     4     3    1
     3     6     5    1
     4     6     7    1
     5     5     9    1
     6    10     3    1
     7    10     7    1
     8     3     2    1
     9     7     8    1
    10     9     1    1
    11     2     1    1
    12     2    11    2
    13     8     1    1
