@<TRIPOS>MOLECULE
5cpp_HEM_A_1.pdb
 43 50 0 0 0
SMALL
GASTEIGER

@<TRIPOS>ATOM
      1 FE         48.3760   46.2920    8.7890 Fe    417  HEM417      0.0000
      2  CHA       45.1940   44.9600    8.6510 C.2   417  HEM417      0.0000
      3  CHB       49.6710   43.1380    9.2130 C.2   417  HEM417      0.0000
      4  CHC       51.5320   47.6170    9.4120 C.2   417  HEM417      0.0000
      5  CHD       47.0600   49.3620    9.3300 C.2   417  HEM417      0.0000
      6  NA        47.5670   44.3560    9.0260 N.2   417  HEM417      0.0000
      7  C1A       46.2650   44.0620    8.8600 C.2   417  HEM417      0.0000
      8  C2A       46.1320   42.5980    8.8700 C.2   417  HEM417      0.0000
      9  C3A       47.3490   42.0730    9.0230 C.2   417  HEM417      0.0000
     10  C4A       48.3000   43.2780    9.0900 C.2   417  HEM417      0.0000
     11  CMA       47.9240   40.7080    9.1040 C.3   417  HEM417      0.0000
     12  CAA       44.7730   41.9140    8.7780 C.3   417  HEM417      0.0000
     13  CBA       44.4260   41.0370   10.0380 C.3   417  HEM417      0.0000
     14  CGA       43.1180   40.3510    9.9670 C.2   417  HEM417      0.0000
     15  O1A       42.7420   39.9860    8.8090 O.co2 417  HEM417      0.0000
     16  O2A       42.4870   40.2920   11.0440 O.co2 417  HEM417      0.0000
     17  NB        50.1640   45.5620    9.3900 N.ar  417  HEM417      0.0000
     18  C1B       50.5530   44.1950    9.2220 C.ar  417  HEM417      0.0000
     19  C2B       51.9820   44.1140    9.1860 C.ar  417  HEM417      0.0000
     20  C3B       52.4930   45.3110    9.2770 C.ar  417  HEM417      0.0000
     21  C4B       51.3870   46.2260    9.3610 C.ar  417  HEM417      0.0000
     22  CMB       52.7780   42.7400    9.0110 C.3   417  HEM417      0.0000
     23  CAB       53.9520   45.7630    9.1680 C.2   417  HEM417      0.0000
     24  CBB       55.0250   45.1990    8.9060 C.2   417  HEM417      0.0000
     25  NC        49.1480   48.1890    9.3870 N.2   417  HEM417      0.0000
     26  C1C       50.4530   48.5000    9.3950 C.2   417  HEM417      0.0000
     27  C2C       50.5910   49.9600    9.3910 C.2   417  HEM417      0.0000
     28  C3C       49.3360   50.4440    9.5120 C.2   417  HEM417      0.0000
     29  C4C       48.4190   49.2670    9.3790 C.2   417  HEM417      0.0000
     30  CMC       51.9220   50.6990    9.5280 C.3   417  HEM417      0.0000
     31  CAC       48.8200   51.8970    9.4900 C.2   417  HEM417      0.0000
     32  CBC       48.7600   52.5560   10.6260 C.2   417  HEM417      0.0000
     33  ND        46.5470   46.9700    9.0180 N.ar  417  HEM417      0.0000
     34  C1D       46.1890   48.3750    9.1050 C.ar  417  HEM417      0.0000
     35  C2D       44.7910   48.4810    8.9690 C.ar  417  HEM417      0.0000
     36  C3D       44.2630   47.3010    8.7410 C.ar  417  HEM417      0.0000
     37  C4D       45.3180   46.3400    8.8080 C.ar  417  HEM417      0.0000
     38  CMD       44.0170   49.8820    8.9800 C.3   417  HEM417      0.0000
     39  CAD       42.7760   46.9700    8.5510 C.3   417  HEM417      0.0000
     40  CBD       42.1800   46.7900    7.1780 C.3   417  HEM417      0.0000
     41  CGD       40.7430   46.2450    7.2040 C.2   417  HEM417      0.0000
     42  O1D       40.0740   46.3160    6.1990 O.co2 417  HEM417      0.0000
     43  O2D       40.3450   45.7390    8.2790 O.co2 417  HEM417      0.0000
@<TRIPOS>BOND
     1    42    41   ar
     2    40    41    1
     3    40    39    1
     4    41    43   ar
     5    39    36    1
     6     2    37    2
     7     2     7    1
     8    36    37   ar
     9    36    35   ar
    10    12     8    1
    11    12    13    1
    12     1    33    1
    13     1     6    1
    14     1    25    1
    15     1    17    1
    16    37    33   ar
    17    15    14   ar
    18     7     8    1
    19     7     6    2
    20     8     9    2
    21    24    23    2
    22    35    38    1
    23    35    34   ar
    24    22    19    1
    25    33    34   ar
    26     9    10    1
    27     9    11    1
    28     6    10    1
    29    10     3    2
    30    34     5    2
    31    23    20    1
    32    19    18   ar
    33    19    20   ar
    34     3    18    1
    35    18    17   ar
    36    20    21   ar
    37     5    29    1
    38    21    17   ar
    39    21     4    1
    40    29    25    2
    41    29    28    1
    42    25    26    1
    43    27    26    1
    44    27    28    2
    45    27    30    1
    46    26     4    2
    47    31    28    1
    48    31    32    2
    49    14    13    1
    50    14    16   ar
