@<TRIPOS>MOLECULE
5csm_TRP_A_1.pdb
 15 16 0 0 0
SMALL
GASTEIGER

@<TRIPOS>ATOM
      1  N         37.7460    4.9040   16.7050 N.3   300  TRP300     -0.1205
      2  CA        37.7730    6.3670   16.4850 C.3   300  TRP300      0.1984
      3  C         38.9750    6.9840   17.1840 C.2   300  TRP300      0.3822
      4  O         39.3430    8.1280   16.8600 O.co2 300  TRP300     -0.2440
      5  CB        36.4720    7.0050   16.9610 C.3   300  TRP300      0.0549
      6  CG        36.1390    6.8300   18.4110 C.2   300  TRP300     -0.0138
      7  CD1       35.4670    5.7990   18.9710 C.2   300  TRP300      0.0907
      8  CD2       36.3690    7.7750   19.4730 C.3   300  TRP300      0.0819
      9  NE1       35.2540    6.0350   20.3030 N.2   300  TRP300     -0.2482
     10  CE2       35.8000    7.2350   20.6400 C.2   300  TRP300      0.0665
     11  CE3       36.9900    9.0310   19.5450 C.2   300  TRP300     -0.0164
     12  CZ2       35.8250    7.9010   21.8620 C.2   300  TRP300      0.0153
     13  CZ3       37.0080    9.6960   20.7690 C.2   300  TRP300     -0.0038
     14  CH2       36.4320    9.1240   21.9040 C.2   300  TRP300      0.0009
     15  OXT       39.5580    6.2980   18.0370 O.co2 300  TRP300     -0.2440
@<TRIPOS>BOND
     1     2     1    1
     2     2     5    1
     3     2     3    1
     4     4     3   ar
     5     5     6    1
     6     3    15   ar
     7     6     7    2
     8     6     8    1
     9     7     9    1
    10     8    11    1
    11     8    10    1
    12    11    13    2
    13     9    10    2
    14    10    12    1
    15    13    14    1
    16    12    14    2
