@<TRIPOS>MOLECULE
5cyt_HEM_R_1.pdb
 43 50 0 0 0
SMALL
GASTEIGER

@<TRIPOS>ATOM
      1 FE         10.8480  -15.9450   15.5330 Fe    105  HEM105      0.0000
      2  CHA       13.6960  -14.6080   16.7440 C.2   105  HEM105      0.0000
      3  CHB        9.2490  -12.9510   15.8150 C.2   105  HEM105      0.0000
      4  CHC        8.0900  -17.2580   13.9850 C.2   105  HEM105      0.0000
      5  CHD       12.2480  -19.0920   15.6790 C.2   105  HEM105      0.0000
      6  NA        11.3890  -14.1010   16.1300 N.ar  105  HEM105      0.0000
      7  C1A       12.6290  -13.7430   16.5420 C.ar  105  HEM105      0.0000
      8  C2A       12.6510  -12.3630   16.7950 C.ar  105  HEM105      0.0000
      9  C3A       11.3500  -11.8950   16.5820 C.ar  105  HEM105      0.0000
     10  C4A       10.5870  -12.9960   16.1690 C.ar  105  HEM105      0.0000
     11  CMA       10.8590  -10.4580   16.6960 C.3   105  HEM105      0.0000
     12  CAA       13.8280  -11.5470   17.3020 C.3   105  HEM105      0.0000
     13  CBA       13.7970  -11.5260   18.8190 C.3   105  HEM105      0.0000
     14  CGA       14.8280  -10.6150   19.4750 C.2   105  HEM105      0.0000
     15  O1A       14.9670  -10.6560   20.7040 O.co2 105  HEM105      0.0000
     16  O2A       15.7950  -10.1580   18.7410 O.co2 105  HEM105      0.0000
     17  NB         8.9690  -15.2540   15.0460 N.2   105  HEM105      0.0000
     18  C1B        8.5020  -14.0050   15.3040 C.2   105  HEM105      0.0000
     19  C2B        7.1510  -13.9520   14.9550 C.2   105  HEM105      0.0000
     20  C3B        6.8530  -15.1630   14.2990 C.2   105  HEM105      0.0000
     21  C4B        7.9990  -15.9480   14.3970 C.2   105  HEM105      0.0000
     22  CMB        6.2060  -12.7890   15.2240 C.3   105  HEM105      0.0000
     23  CAB        5.5520  -15.5730   13.6050 C.3   105  HEM105      0.0000
     24  CBB        5.2710  -14.7290   12.3660 C.3   105  HEM105      0.0000
     25  NC        10.3050  -17.8050   14.8890 N.ar  105  HEM105      0.0000
     26  C1C        9.1510  -18.1080   14.2280 C.ar  105  HEM105      0.0000
     27  C2C        9.1330  -19.4570   13.9370 C.ar  105  HEM105      0.0000
     28  C3C       10.2130  -20.0290   14.5970 C.ar  105  HEM105      0.0000
     29  C4C       10.9960  -18.9700   15.0920 C.ar  105  HEM105      0.0000
     30  CMC        8.0210  -20.1720   13.2010 C.3   105  HEM105      0.0000
     31  CAC       10.4560  -21.5170   14.8170 C.3   105  HEM105      0.0000
     32  CBC       10.5540  -22.3390   13.5430 C.3   105  HEM105      0.0000
     33  ND        12.6370  -16.7030   16.1520 N.2   105  HEM105      0.0000
     34  C1D       13.0210  -18.0400   16.1290 C.2   105  HEM105      0.0000
     35  C2D       14.3470  -18.1510   16.5690 C.2   105  HEM105      0.0000
     36  C3D       14.7920  -16.8550   16.8320 C.2   105  HEM105      0.0000
     37  C4D       13.6930  -15.9820   16.5910 C.2   105  HEM105      0.0000
     38  CMD       15.1420  -19.4480   16.6410 C.3   105  HEM105      0.0000
     39  CAD       16.2190  -16.4500   17.1890 C.3   105  HEM105      0.0000
     40  CBD       16.8950  -15.9200   15.9250 C.3   105  HEM105      0.0000
     41  CGD       18.4250  -15.7610   15.9880 C.2   105  HEM105      0.0000
     42  O1D       19.0730  -15.7840   17.0330 O.co2 105  HEM105      0.0000
     43  O2D       19.0370  -15.5270   14.8660 O.co2 105  HEM105      0.0000
@<TRIPOS>BOND
     1    24    23    1
     2    30    27    1
     3    32    31    1
     4    23    20    1
     5    27    26   ar
     6    27    28   ar
     7     4    26    1
     8     4    21    2
     9    26    25   ar
    10    20    21    1
    11    20    19    2
    12    21    17    1
    13    28    31    1
    14    28    29   ar
    15    43    41   ar
    16    25    29   ar
    17    25     1    1
    18    19    22    1
    19    19    18    1
    20    17    18    2
    21    17     1    1
    22    29     5    1
    23    18     3    1
    24     1     6    1
    25     1    33    1
    26     5    34    2
    27     3    10    2
    28    40    41    1
    29    40    39    1
    30    41    42   ar
    31    34    33    1
    32    34    35    1
    33     6    10   ar
    34     6     7   ar
    35    33    37    2
    36    10     9   ar
    37     7     2    2
    38     7     8   ar
    39    35    38    1
    40    35    36    2
    41     9    11    1
    42     9     8   ar
    43    37     2    1
    44    37    36    1
    45     8    12    1
    46    36    39    1
    47    12    13    1
    48    16    14   ar
    49    13    14    1
    50    14    15   ar
