@<TRIPOS>MOLECULE
5daa_PLP_A_1.pdb
 15 15 0 0 0
SMALL
GASTEIGER

@<TRIPOS>ATOM
      1  N1        22.8030   35.4540   15.2940 N.ar  285  PLP285     -0.2452
      2  C2        24.0850   35.1610   15.5510 C.ar  285  PLP285      0.0978
      3  C2A       24.3910   34.4680   16.8680 C.3   285  PLP285      0.0555
      4  C3        25.0440   35.5360   14.5640 C.ar  285  PLP285      0.2049
      5  O3        26.3370   35.2180   14.8620 O.3   285  PLP285     -0.2857
      6  C4        24.6550   36.1720   13.3710 C.ar  285  PLP285      0.0182
      7  C4A       25.6460   36.5470   12.3730 C.3   285  PLP285      0.0342
      8  C5        23.2470   36.4160   13.2350 C.ar  285  PLP285      0.0261
      9  C6        22.3570   36.0620   14.1850 C.ar  285  PLP285      0.0965
     10  C5A       22.6150   37.0930   12.0060 C.3   285  PLP285      0.1815
     11  O4P       22.9160   38.4360   11.7940 O.3   285  PLP285     -0.2653
     12  P         22.5730   38.9120   10.3470 P.3   285  PLP285      0.5329
     13  O1P       23.1080   40.2850   10.1960 O.3   285  PLP285     -0.1145
     14  O2P       23.2470   37.9590    9.3230 O.2   285  PLP285     -0.2224
     15  O3P       21.0990   38.8430   10.2260 O.3   285  PLP285     -0.1145
@<TRIPOS>BOND
     1    14    12    2
     2    13    12    1
     3    15    12    1
     4    12    11    1
     5    11    10    1
     6    10     8    1
     7     7     6    1
     8     8     6   ar
     9     8     9   ar
    10     6     4   ar
    11     9     1   ar
    12     4     5    1
    13     4     2   ar
    14     1     2   ar
    15     2     3    1
