@<TRIPOS>MOLECULE
5eaa_PLP_A_1.pdb
 15 15 0 0 0
SMALL
GASTEIGER

@<TRIPOS>ATOM
      1  N1       129.6600   38.5780   25.8110 N.ar  458  PLP458     -0.2452
      2  C2       130.1590   37.7040   24.9220 C.ar  458  PLP458      0.0978
      3  C2A      129.5200   37.5910   23.5540 C.3   458  PLP458      0.0555
      4  C3       131.2880   36.9490   25.3180 C.ar  458  PLP458      0.2049
      5  O3       131.7810   36.1170   24.3930 O.3   458  PLP458     -0.2857
      6  C4       131.8570   37.0880   26.5650 C.ar  458  PLP458      0.0182
      7  C4A      133.0440   36.3520   26.9050 C.3   458  PLP458      0.0342
      8  C5       131.2690   38.0390   27.4120 C.ar  458  PLP458      0.0261
      9  C6       130.1510   38.7360   27.0460 C.ar  458  PLP458      0.0965
     10  C5A      131.7330   38.1530   28.8780 C.3   458  PLP458      0.1815
     11  O4P      132.7580   38.6910   28.9640 O.3   458  PLP458     -0.2653
     12  P        133.4980   38.7480   30.2460 P.3   458  PLP458      0.5329
     13  O1P      134.3290   39.8120   29.7630 O.2   458  PLP458     -0.2224
     14  O2P      134.1890   37.5090   30.6540 O.3   458  PLP458     -0.1145
     15  O3P      132.4830   39.1650   31.1470 O.3   458  PLP458     -0.1145
@<TRIPOS>BOND
     1     3     2    1
     2     5     4    1
     3     2     4   ar
     4     2     1   ar
     5     4     6   ar
     6     1     9   ar
     7     6     7    1
     8     6     8   ar
     9     9     8   ar
    10     8    10    1
    11    10    11    1
    12    11    12    1
    13    13    12    2
    14    12    14    1
    15    12    15    1
