@<TRIPOS>MOLECULE
5eat_FHP_A_1.pdb
 20 19 0 0 0
SMALL
GASTEIGER

@<TRIPOS>ATOM
      1  C1       108.0250   40.3150   49.7690 C.3   900  FHP900      0.2242
      2  C2       108.6900   38.9300   49.5230 C.2   900  FHP900      0.0051
      3  C3       109.0690   38.5620   48.2850 C.2   900  FHP900     -0.0453
      4  C4       109.4430   37.1230   48.0110 C.3   900  FHP900      0.0218
      5  C5       110.8700   36.5930   48.3490 C.3   900  FHP900      0.0043
      6  C6       112.0490   37.5660   48.0690 C.3   900  FHP900      0.0003
      7  C7       112.3200   38.0190   46.8290 C.3   900  FHP900      0.0003
      8  C8       113.4760   38.9690   46.6230 C.3   900  FHP900      0.0046
      9  C9       113.2270   40.3330   47.2470 C.3   900  FHP900      0.0254
     10  C10      113.0890   40.2750   48.7760 C.2   900  FHP900     -0.0346
     11  C11      112.1570   41.0100   49.3920 C.2   900  FHP900     -0.0478
     12  C12      112.0370   40.9340   50.8930 C.3   900  FHP900      0.0260
     13  C13      111.4210   42.0670   48.6410 C.3   900  FHP900      0.0260
     14  C14      111.7530   37.2990   45.6560 C.3   900  FHP900      0.0000
     15  C15      108.8530   39.5000   47.1370 C.3   900  FHP900      0.0261
     16  O1       108.9520   41.3350   50.1860 O.3   900  FHP900     -0.2104
     17  O1A      106.4670   39.0790   51.6570 O.3   900  FHP900     -0.3553
     18  O2A      106.7380   41.5600   51.4670 O.3   900  FHP900     -0.3553
     19  O3A      105.5060   40.2920   49.6740 O.2   900  FHP900     -0.4573
     20  PA       106.5140   40.2690   50.7690 P.3   900  FHP900      0.1516
@<TRIPOS>BOND
     1    14     7    1
     2     8     7    1
     3     8     9    1
     4     7     6    1
     5    15     3    1
     6     9    10    1
     7     4     3    1
     8     4     5    1
     9     6     5    1
    10     3     2    2
    11    13    11    1
    12    10    11    2
    13    11    12    1
    14     2     1    1
    15    19    20    2
    16     1    16    1
    17     1    20    1
    18    20    18    1
    19    20    17    1
