@<TRIPOS>MOLECULE
5eau_FFF_A_1.pdb
 27 26 0 0 0
SMALL
GASTEIGER

@<TRIPOS>ATOM
      1  PA        20.9060   79.3400   10.2500 P.3   800  FFF800      0.2233
      2  O1A       19.4890   79.7600   10.3140 O.3   800  FFF800     -0.4370
      3  O2A       21.4870   78.8790    8.9710 O.2   800  FFF800     -0.5169
      4  O5A       21.1700   78.2110   11.3690 O.3   800  FFF800     -0.3089
      5  PB        21.8630   82.0230   10.1730 P.3   800  FFF800      0.5373
      6  O1B       20.4310   82.3470   10.0250 O.3   800  FFF800     -0.1143
      7  O2B       22.5920   81.8170    8.9040 O.2   800  FFF800     -0.2221
      8  O3A       21.8090   80.5510   10.7950 O.3   800  FFF800     -0.2261
      9  O3B       22.5910   82.7970   11.2020 O.3   800  FFF800     -0.1143
     10  C1        20.8560   78.5430   12.6960 C.3   800  FFF800      0.1750
     11  C2        21.2130   77.3930   13.6460 C.2   800  FFF800      0.0057
     12  C3        20.9580   77.4840   14.9710 C.2   800  FFF800      0.0473
     13  C4        21.1030   76.2600   15.8310 C.3   800  FFF800      0.0300
     14  C5        22.2320   76.2790   16.8580 C.3   800  FFF800      0.0046
     15  C6        23.3230   75.2270   16.6190 C.3   800  FFF800      0.0003
     16  C7        24.3630   75.5020   15.8260 C.3   800  FFF800      0.0000
     17  C8        25.4160   74.4470   15.6030 C.3   800  FFF800      0.0000
     18  C9        25.9000   74.1600   14.1730 C.3   800  FFF800      0.0000
     19  C10       26.6640   75.3160   13.5220 C.3   800  FFF800      0.0000
     20  C11       26.0490   76.1320   12.6470 C.3   800  FFF800      0.0000
     21  C12       26.8100   77.2670   12.0410 C.3   800  FFF800      0.0000
     22  C15       24.7420   75.7180   12.0420 C.3   800  FFF800      0.0000
     23  C13       24.6660   76.9270   15.4890 C.3   800  FFF800      0.0000
     24  C14       20.3200   78.7200   15.5470 C.3   800  FFF800      0.4147
     25  F1        20.1220   78.6030   16.8510 F     800  FFF800     -0.1662
     26  F2        19.1450   78.9360   14.9800 F     800  FFF800     -0.1662
     27  F3        21.1130   79.7520   15.3490 F     800  FFF800     -0.1662
@<TRIPOS>BOND
     1     7     5    2
     2     3     1    2
     3     6     5    1
     4     5     8    1
     5     5     9    1
     6     1     2    1
     7     1     8    1
     8     1     4    1
     9     4    10    1
    10    21    20    1
    11    22    20    1
    12    20    19    1
    13    10    11    1
    14    19    18    1
    15    11    12    2
    16    18    17    1
    17    12    24    1
    18    12    13    1
    19    26    24    1
    20    27    24    1
    21    23    16    1
    22    24    25    1
    23    17    16    1
    24    16    15    1
    25    13    14    1
    26    15    14    1
