@<TRIPOS>MOLECULE
5enl_2PG_A_1.pdb
 11 10 0 0 0
SMALL
GASTEIGER

@<TRIPOS>ATOM
      1  C1        96.1970   46.2320   26.7160 C.2   442  2PG442      0.3946
      2  C2        95.2760   46.8320   25.6560 C.3   442  2PG442      0.2610
      3  C3        95.1030   48.3150   26.0070 C.3   442  2PG442      0.2237
      4  P         95.0450   45.6890   23.2740 P.3   442  2PG442      0.5331
      5  O1        95.7470   45.0990   27.1410 O.co2 442  2PG442     -0.2428
      6  O2        97.2630   46.8510   27.0750 O.co2 442  2PG442     -0.2428
      7  O3        96.0300   48.8880   26.9070 O.3   442  2PG442     -0.2170
      8  O1P       95.8330   46.5820   24.3330 O.3   442  2PG442     -0.2583
      9  O2P       95.4430   44.2810   23.5690 O.3   442  2PG442     -0.1145
     10  O3P       93.5780   45.9070   23.5320 O.3   442  2PG442     -0.1145
     11  O4P       95.4270   46.0670   21.9120 O.2   442  2PG442     -0.2224
@<TRIPOS>BOND
     1    11     4    2
     2     4    10    1
     3     4     9    1
     4     4     8    1
     5     8     2    1
     6     2     3    1
     7     2     1    1
     8     3     7    1
     9     1     6   ar
    10     1     5   ar
