@<TRIPOS>MOLECULE
5er1_0HT_E_1.pdb
 37 37 0 0 0
SMALL
GASTEIGER

@<TRIPOS>ATOM
      1  O         34.8400   -8.2350    4.7810 O.3   327  0HT327     -0.2200
      2  C         36.0700   -8.6090    4.1960 C.3   327  0HT327      0.1867
      3  CZ        36.4000  -10.0830    4.4700 C.3   327  0HT327      0.1235
      4  CA        36.0430   -8.2750    2.7100 C.3   327  0HT327      0.1235
      5  N         34.8830   -8.9140    2.0700 N.3   327  0HT327     -0.1302
      6  CB        35.9240   -6.7550    2.6110 C.3   327  0HT327      0.0217
      7  CG        36.9420   -6.1370    1.6530 C.3   327  0HT327      0.0015
      8  CD2       38.3870   -6.4960    2.0040 C.3   327  0HT327      0.0000
      9  CD1       36.8870   -4.6090    1.6280 C.3   327  0HT327      0.0000
     10  N1        35.3670  -10.8190    4.8460 N.3   327  0HT327     -0.2075
     11  CA1       35.5180  -12.0550    5.6330 C.3   327  0HT327      0.1504
     12  C1        36.9810  -12.4800    5.6680 C.2   327  0HT327      0.2576
     13  O1        37.5530  -12.8830    4.6450 O.2   327  0HT327     -0.2718
     14  CB1       34.8040  -13.2220    4.9470 C.3   327  0HT327      0.0249
     15  CG1       35.1140  -14.5740    5.5950 C.3   327  0HT327      0.0019
     16  CG2       33.2810  -13.0900    4.9680 C.3   327  0HT327      0.0019
     17  N2        37.5410  -12.3800    6.8530 N.am  327  0HT327     -0.1966
     18  CA2       38.9210  -12.7960    7.1110 C.3   327  0HT327      0.1727
     19  C2        39.0550  -14.3010    6.8730 C.2   327  0HT327      0.2617
     20  O2        38.2960  -15.1060    7.4340 O.2   327  0HT327     -0.2715
     21  CB2       39.3040  -12.4700    8.5540 C.3   327  0HT327      0.0290
     22 CG11       40.6630  -13.0470    8.9550 C.3   327  0HT327      0.0022
     23 CG21       38.3010  -13.0100    9.5750 C.3   327  0HT327      0.0023
     24 CD11       41.4910  -12.0850    9.8090 C.3   327  0HT327      0.0001
     25  N3        40.0140  -14.6280    6.0300 N.am  327  0HT327     -0.1940
     26  CA3       40.3100  -16.0180    5.6550 C.3   327  0HT327      0.1978
     27  C3        41.6600  -16.4400    6.2390 C.2   327  0HT327      0.3374
     28  CB3       40.3720  -16.1470    4.1310 C.3   327  0HT327      0.0594
     29  CG3       39.0240  -16.5060    3.5020 C.ar  327  0HT327     -0.0199
     30 CD12       37.8320  -16.1110    4.1230 C.ar  327  0HT327     -0.0042
     31 CD21       38.9810  -17.2280    2.3030 C.ar  327  0HT327     -0.0042
     32  CE1       36.5990  -16.4360    3.5440 C.ar  327  0HT327     -0.0003
     33  CE2       37.7480  -17.5520    1.7240 C.ar  327  0HT327     -0.0003
     34  CZ1       36.5570  -17.1560    2.3440 C.ar  327  0HT327     -0.0000
     35  O3        42.3860  -17.2510    5.6460 O.2   327  0HT327     -0.2482
     36  CM        43.1450  -14.9660    7.2560 C.3   327  0HT327      0.2557
     37  OXT       42.0980  -15.9000    7.4770 O.3   327  0HT327     -0.4432
@<TRIPOS>BOND
     1     9     7    1
     2     7     8    1
     3     7     6    1
     4    33    31   ar
     5    33    34   ar
     6     5     4    1
     7    31    29   ar
     8    34    32   ar
     9     6     4    1
    10     4     2    1
    11    29    30   ar
    12    29    28    1
    13    32    30   ar
    14    28    26    1
    15     2     3    1
    16     2     1    1
    17     3    10    1
    18    13    12    2
    19    10    11    1
    20    14    16    1
    21    14    15    1
    22    14    11    1
    23    11    12    1
    24    35    27    2
    25    26    25    1
    26    26    27    1
    27    12    17   am
    28    25    19   am
    29    27    37    1
    30    17    18    1
    31    19    18    1
    32    19    20    2
    33    18    21    1
    34    36    37    1
    35    21    22    1
    36    21    23    1
    37    22    24    1
