@<TRIPOS>MOLECULE
5est_0P2_E_1.pdb
 23 23 0 0 0
SMALL
GASTEIGER

@<TRIPOS>ATOM
      1  C1       -13.6270   18.8730   38.6290 C.2     1  0P21        0.0000
      2  O1       -13.8270   20.0880   38.5980 O.2     1  0P21        0.0000
      3  O2       -14.5860   17.8880   38.4970 O.3     1  0P21        0.0000
      4  C2       -16.0030   18.2440   38.3930 C.3     1  0P21        0.0000
      5  C3       -16.7080   17.5960   39.5740 C.ar    1  0P21        0.0000
      6  C4       -17.3610   18.3920   40.5330 C.ar    1  0P21        0.0000
      7  C5       -17.8650   17.8010   41.6970 C.ar    1  0P21        0.0000
      8  C6       -17.6930   16.4270   41.9410 C.ar    1  0P21        0.0000
      9  C7       -17.0680   15.6290   40.9570 C.ar    1  0P21        0.0000
     10  C8       -16.5810   16.2120   39.7760 C.ar    1  0P21        0.0000
     11  N        -12.4690   18.3000   38.9440 N.am    1  0P21        0.0000
     12  CA       -11.2450   18.9620   39.2740 C.3     1  0P21        0.0000
     13  C        -10.7370   19.7630   38.0910 C.2     1  0P21        0.0000
     14  O        -10.8110   19.3050   36.9360 O.2     1  0P21        0.0000
     15  CB       -10.2080   17.9170   39.6480 C.3     1  0P21        0.0000
     16  N1       -10.3250   20.9870   38.4350 N.am    1  0P21        0.0000
     17  CA1       -9.8070   21.9460   37.4270 C.3     1  0P21        0.0000
     18  CB1      -10.6290   23.1970   37.3160 C.3     1  0P21        0.0000
     19  CG1      -10.8690   23.9670   38.6770 C.3     1  0P21        0.0000
     20  CG2      -11.9280   22.8270   36.6370 C.3     1  0P21        0.0000
     21  CD1      -11.0660   25.4860   38.4970 C.3     1  0P21        0.0000
     22  B         -8.1610   22.3650   37.6310 B       1  0P21        0.0000
     23  O11       -7.2190   21.8470   36.8020 O.3     1  0P21        0.0000
@<TRIPOS>BOND
     1    20    18    1
     2    23    22    1
     3    14    13    2
     4    18    17    1
     5    18    19    1
     6    17    22    1
     7    17    16    1
     8    13    16   am
     9    13    12    1
    10     4     3    1
    11     4     5    1
    12     3     1    1
    13    21    19    1
    14     2     1    2
    15     1    11   am
    16    11    12    1
    17    12    15    1
    18     5    10   ar
    19     5     6   ar
    20    10     9   ar
    21     6     7   ar
    22     9     8   ar
    23     7     8   ar
