@<TRIPOS>MOLECULE
5fbp_F6P_A_1.pdb
 16 16 0 0 0
SMALL
GASTEIGER

@<TRIPOS>ATOM
      1  O1        38.6270   91.1630   26.0790 O.3   336  F6P336     -0.2148
      2  C1        38.5010   89.7890   25.8250 C.3   336  F6P336      0.2434
      3  C2        37.0070   89.4690   25.6450 C.3   336  F6P336      0.2807
      4  O2        36.7570   88.0740   25.4450 O.3   336  F6P336     -0.1896
      5  C3        36.4660   90.3670   24.5240 C.3   336  F6P336      0.2409
      6  O3        36.7430   89.8550   23.2480 O.3   336  F6P336     -0.2149
      7  C4        34.9710   90.4970   24.8550 C.3   336  F6P336      0.2167
      8  O4        34.3380   91.6920   24.3760 O.3   336  F6P336     -0.2175
      9  C5        34.9460   90.3030   26.3720 C.3   336  F6P336      0.1808
     10  O5        36.2630   89.8600   26.7610 O.3   336  F6P336     -0.3254
     11  C6        33.9460   89.3420   26.8220 C.3   336  F6P336      0.1859
     12  O6        33.8910   89.4770   28.3010 O.3   336  F6P336     -0.2675
     13  P         32.7270   88.8520   29.2080 P.3   336  F6P336      0.5327
     14  O1P       32.9330   89.3290   30.6170 O.3   336  F6P336     -0.1145
     15  O2P       31.3740   89.2500   28.6950 O.2   336  F6P336     -0.2224
     16  O3P       32.8340   87.3490   29.2960 O.3   336  F6P336     -0.1145
@<TRIPOS>BOND
     1     6     5    1
     2     8     7    1
     3     5     7    1
     4     5     3    1
     5     7     9    1
     6     4     3    1
     7     3     2    1
     8     3    10    1
     9     2     1    1
    10     9    10    1
    11     9    11    1
    12    11    12    1
    13    12    13    1
    14    15    13    2
    15    13    16    1
    16    13    14    1
