@<TRIPOS>MOLECULE
5fit_AP2_A_1.pdb
 23 25 0 0 0
SMALL
GASTEIGER

@<TRIPOS>ATOM
      1  C3A        8.4300   17.3740   20.5440 C.3   200  AP2200      0.1309
      2  PA         9.7020   18.1170   20.6010 P.3   200  AP2200      0.3704
      3  O1A       10.8700   17.2240   20.5310 O.3   200  AP2200     -0.1398
      4  O2A        9.9400   19.4280   19.9650 O.2   200  AP2200     -0.2555
      5  O5'        9.8240   18.6250   22.1140 O.3   200  AP2200     -0.2900
      6  C5'        8.8270   19.4800   22.6980 C.3   200  AP2200      0.1836
      7  C4'        8.9560   19.7290   24.2130 C.3   200  AP2200      0.1822
      8  O4'        9.0920   21.1610   24.3450 O.3   200  AP2200     -0.3135
      9  C3'        7.8230   19.0620   25.0210 C.3   200  AP2200      0.2184
     10  O3'        8.3830   18.2880   26.1090 O.3   200  AP2200     -0.2174
     11  C2'        7.1630   20.3670   25.5320 C.3   200  AP2200      0.2570
     12  O2'        6.6530   20.2370   26.8860 O.3   200  AP2200     -0.2130
     13  C1'        8.3280   21.3810   25.5510 C.3   200  AP2200      0.3186
     14  N9         7.8540   22.7970   25.5470 N.pl3 200  AP2200     -0.1439
     15  C8         7.1580   23.4660   24.5560 C.3   200  AP2200      0.3377
     16  N7         6.8890   24.7190   24.8330 N.2   200  AP2200     -0.2095
     17  C5         7.4480   24.8720   26.1040 C.2   200  AP2200      0.2526
     18  C6         7.4860   25.9840   26.9760 C.2   200  AP2200      0.4393
     19  N6         6.9050   27.1160   26.5760 N.pl3 200  AP2200      0.2180
     20  N1         8.1050   25.8240   28.1650 N.2   200  AP2200      0.0021
     21  C2         8.6560   24.6730   28.5410 C.3   200  AP2200      0.5254
     22  N3         8.6570   23.5760   27.7830 N.2   200  AP2200     -0.0055
     23  C4         8.0380   23.7160   26.5710 C.2   200  AP2200      0.3518
@<TRIPOS>BOND
     1     4     2    2
     2     3     2    1
     3     1     2    1
     4     2     5    1
     5     5     6    1
     6     6     7    1
     7     7     8    1
     8     7     9    1
     9     8    13    1
    10    15    16    1
    11    15    14    1
    12    16    17    2
    13     9    11    1
    14     9    10    1
    15    11    13    1
    16    11    12    1
    17    14    13    1
    18    14    23    1
    19    17    23    1
    20    17    18    1
    21    23    22    2
    22    19    18    1
    23    18    20    2
    24    22    21    1
    25    20    21    1
