@<TRIPOS>MOLECULE
5fwg_GPR_A_1.pdb
 35 37 0 0 0
SMALL
GASTEIGER

@<TRIPOS>ATOM
      1  N1        14.3180   14.6610   25.0810 N.3   218  GPR218     -0.1208
      2  CA1       13.8440   15.3410   26.2860 C.3   218  GPR218      0.1948
      3  C1        12.8800   16.4410   25.9020 C.2   218  GPR218      0.3819
      4  O11       12.0080   16.7320   26.7430 O.co2 218  GPR218     -0.2441
      5  O12       13.0140   16.9340   24.7520 O.co2 218  GPR218     -0.2441
      6  CB1       14.9760   16.0080   27.0950 C.3   218  GPR218      0.0402
      7  CG1       15.6510   15.0970   28.0960 C.3   218  GPR218      0.0889
      8  CD1       16.7850   15.7920   28.7200 C.2   218  GPR218      0.2418
      9  OE1       17.9520   15.4490   28.6620 O.2   218  GPR218     -0.2733
     10  N2        16.4380   16.2920   29.8870 N.am  218  GPR218     -0.1969
     11  CA2       17.5010   16.8170   30.7190 C.3   218  GPR218      0.1834
     12  C2        17.3790   16.2100   32.1160 C.2   218  GPR218      0.2626
     13  O2        18.0980   16.6100   33.0470 O.2   218  GPR218     -0.2714
     14  CB2       16.7190   18.1990   30.8250 C.3   218  GPR218      0.0890
     15  SG2       17.1620   18.9910   29.3910 S.3   218  GPR218     -0.1314
     16  N3        16.4460   15.2490   32.2190 N.am  218  GPR218     -0.1917
     17  CA3       16.1470   14.5780   33.4720 C.3   218  GPR218      0.2285
     18  C3        17.0470   13.4030   33.7930 C.2   218  GPR218      0.3865
     19  O31       18.0480   13.2090   33.0650 O.co2 218  GPR218     -0.2437
     20  O32       16.7250   12.7190   34.7850 O.co2 218  GPR218     -0.2437
     21  CA4       18.8650   18.6760   29.6080 C.3   218  GPR218      0.1044
     22  CB4       19.4940   19.8050   30.3770 C.ar  218  GPR218     -0.0097
     23  CG4       19.7950   19.5090   31.7290 C.ar  218  GPR218     -0.0034
     24  CD4       20.3790   20.5490   32.5010 C.ar  218  GPR218     -0.0003
     25  CE4       20.6580   21.8290   31.9850 C.ar  218  GPR218     -0.0000
     26  CZ4       20.3610   22.0730   30.6030 C.ar  218  GPR218     -0.0003
     27  CH4       19.7830   21.0580   29.8250 C.ar  218  GPR218     -0.0033
     28  CH5       19.4740   21.2290   28.4890 C.ar  218  GPR218     -0.0018
     29  CZ5       19.2100   22.5400   27.9820 C.ar  218  GPR218     -0.0002
     30  CE5       18.8770   22.7030   26.6540 C.ar  218  GPR218     -0.0000
     31  CD5       18.8600   21.4920   25.7890 C.ar  218  GPR218     -0.0002
     32  CG5       19.1340   20.1550   26.2510 C.ar  218  GPR218     -0.0018
     33  CB5       19.4580   20.0750   27.6990 C.ar  218  GPR218      0.0089
     34  CA5       19.7540   18.7240   28.4080 C.3   218  GPR218      0.1881
     35  O5        21.1050   18.5790   28.9880 O.3   218  GPR218     -0.2170
@<TRIPOS>BOND
     1     5     3   ar
     2     1     2    1
     3    31    32   ar
     4    31    30   ar
     5     3     2    1
     6     3     4   ar
     7    32    33   ar
     8     2     6    1
     9    30    29   ar
    10     6     7    1
    11    33    34    1
    12    33    28   ar
    13    29    28   ar
    14     7     8    1
    15    34    35    1
    16    34    21    1
    17    28    27    1
    18     9     8    2
    19     8    10   am
    20    15    21    1
    21    15    14    1
    22    21    22    1
    23    27    22   ar
    24    27    26   ar
    25    10    11    1
    26    22    23   ar
    27    26    25   ar
    28    11    14    1
    29    11    12    1
    30    23    24   ar
    31    25    24   ar
    32    12    16   am
    33    12    13    2
    34    16    17    1
    35    19    18   ar
    36    17    18    1
    37    18    20   ar
