@<TRIPOS>MOLECULE
5fx2_FMN_A_1.pdb
 31 33 0 0 0
SMALL
GASTEIGER

@<TRIPOS>ATOM
      1  N1        26.1860   13.6690   83.6690 N.2   149  FMN149     -0.2890
      2  C2        25.3330   14.6430   84.1190 C.1   149  FMN149      0.3669
      3  O2        25.2370   14.8250   85.3120 O.2   149  FMN149     -0.1744
      4  N3        24.1170   14.7110   83.4330 N.2   149  FMN149     -0.2300
      5  C4        23.9470   14.4560   82.0760 C.1   149  FMN149      0.2513
      6  O4        22.8200   14.5310   81.5970 O.2   149  FMN149     -0.2057
      7  C4A       24.8970   13.7100   81.4050 C.2   149  FMN149      0.2697
      8  N5        24.7480   12.8880   80.3560 N.2   149  FMN149     -0.3926
      9  C5A       25.8890   12.5350   79.7490 C.2   149  FMN149      0.1057
     10  C6        25.8310   12.1610   78.4240 C.3   149  FMN149      0.0561
     11  C7        26.8010   11.2930   77.9450 C.3   149  FMN149      0.0068
     12  C7M       26.5450   10.4980   76.6630 C.3   149  FMN149      0.0004
     13  C8        28.1560   11.3940   78.3470 C.3   149  FMN149      0.0025
     14  C8M       29.0570   10.2750   77.9410 C.3   149  FMN149      0.0001
     15  C9        28.3320   12.1010   79.5890 C.3   149  FMN149      0.0267
     16  C9A       27.2140   12.6800   80.1970 C.3   149  FMN149      0.1233
     17  N10       27.1340   12.8650   81.6700 N.pl3 149  FMN149     -0.2730
     18  C10       26.1180   13.4360   82.3130 C.2   149  FMN149      0.2413
     19  C1'       28.4030   12.1510   82.0850 C.3   149  FMN149      0.1291
     20  C2'       28.3310   11.3200   83.4590 C.3   149  FMN149      0.2044
     21  O2'       27.0940   10.6580   83.5280 O.3   149  FMN149     -0.2185
     22  C3'       29.3620   10.1490   83.2470 C.3   149  FMN149      0.2164
     23  O3'       30.6390   10.7110   82.7600 O.3   149  FMN149     -0.2175
     24  C4'       29.5760    9.5280   84.5950 C.3   149  FMN149      0.2147
     25  O4'       30.8340    9.7200   85.1490 O.3   149  FMN149     -0.2176
     26  C5'       28.9710    8.2320   84.9760 C.3   149  FMN149      0.1892
     27  O5'       30.0700    7.4540   85.5800 O.3   149  FMN149     -0.2674
     28  P         29.6750    5.9170   85.5660 P.3   149  FMN149      0.5327
     29  O1P       28.1070    5.8910   85.0740 O.3   149  FMN149     -0.1145
     30  O2P       29.6280    5.3960   87.0190 O.3   149  FMN149     -0.1145
     31  O3P       30.4830    5.1980   84.6930 O.2   149  FMN149     -0.2224
@<TRIPOS>BOND
     1    12    11    1
     2    14    13    1
     3    11    13    1
     4    11    10    1
     5    13    15    1
     6    10     9    1
     7    15    16    1
     8     9    16    1
     9     9     8    2
    10    16    17    1
    11     8     7    2
    12     7     5    1
    13     7    18    1
    14     6     5    2
    15    17    19    1
    16    17    18    1
    17     5     4    2
    18    19    20    1
    19    18     1    2
    20    23    22    1
    21    22    20    1
    22    22    24    1
    23     4     2    2
    24    20    21    1
    25     1     2    2
    26     2     3    2
    27    24    26    1
    28    24    25    1
    29    31    28    2
    30    26    27    1
    31    29    28    1
    32    28    27    1
    33    28    30    1
