@<TRIPOS>MOLECULE
5gal_GAL_B_1.pdb
 11 11 0 0 0
SMALL
GASTEIGER

@<TRIPOS>ATOM
      1  C1         3.7100   40.8440   36.0010 C.3   999  GAL999      0.1777
      2  C2         3.4900   42.3290   36.3520 C.3   999  GAL999      0.2141
      3  C3         4.7790   43.1670   36.2080 C.3   999  GAL999      0.2173
      4  C4         5.9430   42.4860   36.9250 C.3   999  GAL999      0.2142
      5  C5         6.0420   40.9990   36.4840 C.3   999  GAL999      0.1810
      6  C6         7.1360   40.1880   37.1580 C.3   999  GAL999      0.2141
      7  O2         2.4790   42.8820   35.5220 O.3   999  GAL999     -0.2176
      8  O3         4.5700   44.4460   36.7960 O.3   999  GAL999     -0.2175
      9  O4         5.7210   42.5700   38.3350 O.3   999  GAL999     -0.2176
     10  O5         4.8010   40.3120   36.7520 O.3   999  GAL999     -0.3481
     11  O6         6.9370   38.7930   36.9610 O.3   999  GAL999     -0.2176
@<TRIPOS>BOND
     1     7     2    1
     2     1     2    1
     3     1    10    1
     4     3     2    1
     5     3     8    1
     6     3     4    1
     7     5    10    1
     8     5     4    1
     9     5     6    1
    10     4     9    1
    11    11     6    1
