@<TRIPOS>MOLECULE
5gds_III_I_1.pdb
 39 41 0 0 0
SMALL
GASTEIGER

@<TRIPOS>ATOM
      1  N         16.7330  -11.6100   20.4880 N.3     1  CHG1       -0.1231
      2  CA        16.7900  -13.0710   20.3760 C.3     1  CHG1        0.1692
      3  C         15.8650  -13.7310   21.3510 C.2     1  CHG1        0.2592
      4  O         15.7540  -13.3130   22.5530 O.2     1  CHG1       -0.2718
      5  C1        18.1760  -13.7450   20.5230 C.3     1  CHG1        0.0266
      6  C2        18.8610  -13.5190   21.8580 C.3     1  CHG1        0.0019
      7  C3        20.0290  -14.4810   21.9590 C.3     1  CHG1        0.0001
      8  C4        21.0010  -14.2170   20.8210 C.3     1  CHG1        0.0000
      9  C5        20.2710  -14.3770   19.5130 C.3     1  CHG1        0.0001
     10  C6        19.1320  -13.3820   19.4440 C.3     1  CHG1        0.0019
     11  N         15.2000  -14.7570   20.7990 N.am    2  VAL2       -0.1966
     12  CA        14.3510  -15.6710   21.5790 C.3     2  VAL2        0.1727
     13  C         15.1860  -16.9570   21.8550 C.2     2  VAL2        0.2616
     14  O         15.5930  -17.6640   20.9120 O.2     2  VAL2       -0.2715
     15  CB        12.9440  -15.9770   20.9410 C.3     2  VAL2        0.0290
     16  CG1       12.1080  -16.8770   21.9100 C.3     2  VAL2        0.0023
     17  CG2       12.1890  -14.6550   20.6940 C.3     2  VAL2        0.0023
     18  C1        18.2820  -16.5360   25.3220 C.ar    3  ALA3       -0.0042
     19  C2        18.0710  -17.7090   24.6830 C.ar    3  ALA3       -0.0200
     20  C3        18.9060  -18.1200   23.6900 C.ar    3  ALA3       -0.0042
     21  C4        20.1080  -17.5050   23.5110 C.ar    3  ALA3       -0.0003
     22  C4A       20.4790  -16.4380   24.3300 C.ar    3  ALA3       -0.0000
     23  C5        21.7400  -15.8020   24.1620 C.ar    3  ALA3       -0.0000
     24  C6        22.1080  -14.7970   25.0020 C.ar    3  ALA3       -0.0000
     25  C7        21.1980  -14.3710   25.9980 C.ar    3  ALA3       -0.0000
     26  C8        19.9230  -14.9230   26.0990 C.ar    3  ALA3       -0.0000
     27  C8A       19.5720  -15.9840   25.2870 C.ar    3  ALA3       -0.0003
     28  C9        16.8150  -18.4130   24.7940 C.3     3  ALA3        0.0574
     29  CA        16.2770  -18.5020   23.3890 C.3     3  ALA3        0.1771
     30  C         15.1950  -19.5780   23.4620 C.2     3  ALA3        0.2620
     31  N         15.5810  -17.2450   23.0980 N.am    3  ALA3       -0.1960
     32  O         14.3030  -19.5020   24.3710 O.2     3  ALA3       -0.2715
     33  N         15.1980  -20.5020   22.4910 N.am    4  THR4       -0.1951
     34  CA        14.1700  -21.5550   22.4550 C.3     4  THR4        0.1897
     35  C         14.6450  -22.7340   23.2570 C.2     4  THR4        0.2313
     36  O         15.7620  -23.1690   23.0390 O.2     4  THR4       -0.2863
     37  CB        13.9500  -22.0460   21.0440 C.3     4  THR4        0.1794
     38  OG1       15.2060  -22.0080   20.3860 O.3     4  THR4       -0.2208
     39  CG2       12.8890  -21.1820   20.3540 C.3     4  THR4        0.0378
@<TRIPOS>BOND
     1    10     9    1
     2    10     5    1
     3     9     8    1
     4    39    37    1
     5     2     1    1
     6     2     5    1
     7     2     3    1
     8    38    37    1
     9     5     6    1
    10    17    15    1
    11    11     3   am
    12    11    12    1
    13     8     7    1
    14    14    13    2
    15    15    12    1
    16    15    16    1
    17    37    34    1
    18     3     4    2
    19    12    13    1
    20    13    31   am
    21     6     7    1
    22    34    33    1
    23    34    35    1
    24    33    30   am
    25    36    35    2
    26    31    29    1
    27    29    30    1
    28    29    28    1
    29    30    32    2
    30    21    20   ar
    31    21    22   ar
    32    20    19   ar
    33    23    22   ar
    34    23    24   ar
    35    22    27   ar
    36    19    28    1
    37    19    18   ar
    38    24    25   ar
    39    27    18   ar
    40    27    26   ar
    41    25    26   ar
