@<TRIPOS>MOLECULE
5gpb_GLC_A_1.pdb
 12 12 0 0 0
SMALL
GASTEIGER

@<TRIPOS>ATOM
      1  C1        67.4670   25.2510   27.9710 C.3   903  GLC903      0.3024
      2  C2        67.3980   23.7480   27.6810 C.3   903  GLC903      0.2434
      3  C3        66.3070   23.0330   28.4550 C.3   903  GLC903      0.2199
      4  C4        66.4260   23.2440   30.0310 C.3   903  GLC903      0.2144
      5  C5        67.2070   24.5870   30.4260 C.3   903  GLC903      0.1836
      6  C6        68.6690   24.3870   30.8320 C.3   903  GLC903      0.2142
      7  O1        66.5220   25.9250   27.0970 O.3   903  GLC903     -0.1869
      8  O2        67.0800   23.5480   26.2840 O.3   903  GLC903     -0.2148
      9  O3        66.4630   21.6310   28.1030 O.3   903  GLC903     -0.2174
     10  O4        65.0900   23.3000   30.6660 O.3   903  GLC903     -0.2176
     11  O5        67.2150   25.6010   29.3430 O.3   903  GLC903     -0.3236
     12  O6        69.2090   23.2060   30.2440 O.3   903  GLC903     -0.2176
@<TRIPOS>BOND
     1     8     2    1
     2     7     1    1
     3     2     1    1
     4     2     3    1
     5     1    11    1
     6     9     3    1
     7     3     4    1
     8    11     5    1
     9     4     5    1
    10     4    10    1
    11    12     6    1
    12     5     6    1
