@<TRIPOS>MOLECULE
5gpb_GPM_A_1.pdb
 16 16 0 0 0
SMALL
GASTEIGER

@<TRIPOS>ATOM
      1  C1        33.4650   22.9760   27.6840 C.3   901  GPM901      0.1554
      2  C2        33.8250   23.0650   26.1310 C.3   901  GPM901      0.2120
      3  C3        32.6240   22.4360   25.3520 C.3   901  GPM901      0.2172
      4  C4        32.5120   20.9650   25.7810 C.3   901  GPM901      0.2142
      5  C5        32.2680   20.8300   27.3200 C.3   901  GPM901      0.1809
      6  C6        32.2130   19.4260   27.8600 C.3   901  GPM901      0.2141
      7  C7        32.1470   23.5860   28.2920 C.3   901  GPM901      0.0911
      8  O2        34.0870   24.3630   25.5730 O.3   901  GPM901     -0.2177
      9  O3        32.8650   22.5480   23.9610 O.3   901  GPM901     -0.2175
     10  O4        31.4510   20.2990   25.1050 O.3   901  GPM901     -0.2176
     11  O5        33.3270   21.5450   28.0200 O.3   901  GPM901     -0.3502
     12  O6        33.4490   18.7530   27.5490 O.3   901  GPM901     -0.2176
     13  P         31.6210   25.2950   28.2550 P.3   901  GPM901      0.1197
     14  O1P       31.3010   25.5420   26.7830 O.2   901  GPM901     -0.4600
     15  O2P       30.3380   25.4290   29.0630 O.3   901  GPM901     -0.3571
     16  O3P       32.8240   26.0280   28.8230 O.3   901  GPM901     -0.3571
@<TRIPOS>BOND
     1     9     3    1
     2    10     4    1
     3     3     4    1
     4     3     2    1
     5     8     2    1
     6     4     5    1
     7     2     1    1
     8    14    13    2
     9     5     6    1
    10     5    11    1
    11    12     6    1
    12     1    11    1
    13     1     7    1
    14    13     7    1
    15    13    16    1
    16    13    15    1
