@<TRIPOS>MOLECULE
5gpb_PLP_A_1.pdb
 15 15 0 0 0
SMALL
GASTEIGER

@<TRIPOS>ATOM
      1  N1        24.7000   25.5090   30.2540 N.2   999  PLP999     -0.2505
      2  C2        23.5970   24.7560   30.5230 C.2   999  PLP999      0.0675
      3  C2A       22.5680   25.3310   31.3950 C.3   999  PLP999      0.0499
      4  C3        23.3640   23.5830   29.8550 C.3   999  PLP999      0.1913
      5  O3        22.0860   23.0040   29.9170 O.3   999  PLP999     -0.2167
      6  C4        24.2860   23.1760   28.9040 C.3   999  PLP999      0.0581
      7  C4A       24.1100   21.8240   28.2050 C.3   999  PLP999      0.0075
      8  C5        25.3900   23.9730   28.6170 C.2   999  PLP999      0.0073
      9  C6        25.5870   25.1240   29.3040 C.2   999  PLP999      0.0921
     10  C5A       26.3020   23.6950   27.4150 C.3   999  PLP999      0.1776
     11  O4P       26.1340   24.6330   26.2970 O.3   999  PLP999     -0.2656
     12  P         27.1490   24.6450   25.0460 P.3   999  PLP999      0.5329
     13  O1P       27.7420   23.3210   24.8940 O.3   999  PLP999     -0.1145
     14  O2P       26.3770   25.2370   23.9670 O.2   999  PLP999     -0.2224
     15  O3P       28.2930   25.6640   25.3480 O.3   999  PLP999     -0.1145
@<TRIPOS>BOND
     1    14    12    2
     2    13    12    1
     3    12    15    1
     4    12    11    1
     5    11    10    1
     6    10     8    1
     7     7     6    1
     8     8     6    1
     9     8     9    2
    10     6     4    1
    11     9     1    1
    12     4     5    1
    13     4     2    1
    14     1     2    2
    15     2     3    1
