@<TRIPOS>MOLECULE
5gsp_3GP_A_1.pdb
 24 26 0 0 0
SMALL
GASTEIGER

@<TRIPOS>ATOM
      1  P         21.0560   37.9470   19.4560 P.3   105  3GP105      0.5327
      2  O1P       22.1560   37.7680   18.5230 O.2   105  3GP105     -0.2224
      3  O2P       21.2750   39.0060   20.4650 O.3   105  3GP105     -0.1145
      4  O3P       19.7200   37.9190   18.8380 O.3   105  3GP105     -0.1145
      5  O5'       20.0860   37.2680   23.1890 O.3   105  3GP105     -0.2176
      6  C5'       20.1050   35.8480   23.3750 C.3   105  3GP105      0.2141
      7  C4'       20.6200   35.1370   22.1340 C.3   105  3GP105      0.1802
      8  O4'       20.1550   33.7750   22.1230 O.3   105  3GP105     -0.3326
      9  C3'       20.0850   35.8420   20.8990 C.3   105  3GP105      0.1903
     10  O3'       21.1630   36.5720   20.2940 O.3   105  3GP105     -0.2674
     11  C2'       19.5890   34.7330   20.0280 C.3   105  3GP105      0.2283
     12  O2'       20.4450   34.4860   18.9420 O.3   105  3GP105     -0.2159
     13  C1'       19.5510   33.4770   20.8570 C.3   105  3GP105      0.2292
     14  N9        18.1210   33.0890   20.9040 N.pl3 105  3GP105     -0.2354
     15  C8        17.5450   31.9850   20.3280 C.3   105  3GP105      0.2246
     16  N7        16.2580   31.9210   20.4680 N.2   105  3GP105     -0.2322
     17  C5        15.9510   33.0680   21.1940 C.2   105  3GP105      0.2182
     18  C6        14.7000   33.5450   21.6470 C.1   105  3GP105      0.2372
     19  O6        13.6320   32.9910   21.4500 O.2   105  3GP105     -0.2069
     20  N1        14.7860   34.7380   22.3430 N.2   105  3GP105     -0.2485
     21  C2        15.9670   35.4090   22.5780 C.1   105  3GP105      0.2531
     22  N2        15.8700   36.5510   23.2610 N.pl3 105  3GP105     -0.0226
     23  N3        17.1620   34.9680   22.1550 N.2   105  3GP105     -0.3074
     24  C4        17.0790   33.7930   21.4710 C.2   105  3GP105      0.2300
@<TRIPOS>BOND
     1     2     1    2
     2     4     1    1
     3    12    11    1
     4     1    10    1
     5     1     3    1
     6    11    13    1
     7    11     9    1
     8    10     9    1
     9    15    16    1
    10    15    14    1
    11    16    17    2
    12    13    14    1
    13    13     8    1
    14     9     7    1
    15    14    24    1
    16    17    24    1
    17    17    18    1
    18    19    18    2
    19    24    23    2
    20    18    20    2
    21     8     7    1
    22     7     6    1
    23    23    21    2
    24    20    21    2
    25    21    22    1
    26     5     6    1
