@<TRIPOS>MOLECULE
5gss_GSH_A_1.pdb
 20 19 0 0 0
SMALL
GASTEIGER

@<TRIPOS>ATOM
      1  N1        14.7940   10.8270   23.1920 N.3   210  GSH210     -0.1208
      2  CA1       14.7140   10.0690   24.4660 C.3   210  GSH210      0.1948
      3  C1        15.8360    9.0490   24.5000 C.2   210  GSH210      0.3819
      4  O11       16.3470    8.7420   23.4050 O.co2 210  GSH210     -0.2441
      5  O12       16.2120    8.5970   25.5990 O.co2 210  GSH210     -0.2441
      6  CB1       13.3600    9.3740   24.5770 C.3   210  GSH210      0.0402
      7  CG1       13.1090    8.7870   25.9470 C.3   210  GSH210      0.0889
      8  CD1       11.7490    8.1380   26.0970 C.2   210  GSH210      0.2418
      9  OE1       10.9320    8.1220   25.1760 O.2   210  GSH210     -0.2733
     10  N2        11.4930    7.6390   27.2960 N.am  210  GSH210     -0.1968
     11  CA2       10.2430    6.9720   27.6060 C.3   210  GSH210      0.1843
     12  C2         9.7330    7.5140   28.9290 C.2   210  GSH210      0.2627
     13  O2        10.5170    7.9270   29.7740 O.2   210  GSH210     -0.2714
     14  CB2       10.4870    5.4670   27.7210 C.3   210  GSH210      0.0997
     15  SG2       11.5130    4.7710   26.3820 S.3   210  GSH210     -0.0797
     16  N3         8.4200    7.4770   29.1130 N.am  210  GSH210     -0.1917
     17  CA3        7.8380    7.9730   30.3430 C.3   210  GSH210      0.2285
     18  C3         7.2860    9.3800   30.2010 C.2   210  GSH210      0.3865
     19  O31        7.4650   10.0020   29.1310 O.co2 210  GSH210     -0.2437
     20  O32        6.6460    9.8560   31.1550 O.co2 210  GSH210     -0.2437
@<TRIPOS>BOND
     1     1     2    1
     2     4     3   ar
     3     2     3    1
     4     2     6    1
     5     3     5   ar
     6     6     7    1
     7     9     8    2
     8     7     8    1
     9     8    10   am
    10    15    14    1
    11    10    11    1
    12    11    14    1
    13    11    12    1
    14    12    16   am
    15    12    13    2
    16    16    17    1
    17    19    18   ar
    18    18    17    1
    19    18    20   ar
