@<TRIPOS>MOLECULE
5gst_GDN_A_1.pdb
 32 32 0 0 0
SMALL
GASTEIGER

@<TRIPOS>ATOM
      1  N1        14.5810   14.8040   25.0430 N.3   219  GDN219     -0.1208
      2  CA1       14.4530   15.4530   26.3920 C.3   219  GDN219      0.1948
      3  C1        13.4300   16.5150   26.4560 C.2   219  GDN219      0.3819
      4  O11       12.7210   16.8560   27.3720 O.co2 219  GDN219     -0.2441
      5  O12       13.2770   16.9960   25.1610 O.co2 219  GDN219     -0.2441
      6  CB1       15.7550   15.7350   27.0730 C.3   219  GDN219      0.0402
      7  CG1       15.4290   15.8730   28.6070 C.3   219  GDN219      0.0889
      8  CD1       16.7510   16.0750   29.3450 C.2   219  GDN219      0.2418
      9  OE1       17.7500   15.4490   28.9270 O.2   219  GDN219     -0.2733
     10  N2        16.6170   16.8670   30.4180 N.am  219  GDN219     -0.1968
     11  CA2       17.6950   17.2950   31.2940 C.3   219  GDN219      0.1838
     12  C2        17.4040   16.8250   32.7180 C.2   219  GDN219      0.2626
     13  O2        17.9050   17.4870   33.5970 O.2   219  GDN219     -0.2714
     14  CB2       17.9630   18.7980   31.1940 C.3   219  GDN219      0.0932
     15  SG2       18.3920   19.1740   29.5380 S.3   219  GDN219     -0.1097
     16  N3        16.7870   15.6920   32.9540 N.am  219  GDN219     -0.1917
     17  CA3       16.6840   15.2530   34.3610 C.3   219  GDN219      0.2285
     18  C3        16.8180   13.7710   34.5110 C.2   219  GDN219      0.3865
     19  O31       17.2380   13.0270   33.5880 O.co2 219  GDN219     -0.2437
     20  O32       16.5060   13.1010   35.6480 O.co2 219  GDN219     -0.2437
     21  C1'       19.7040   18.2100   29.0650 C.ar  219  GDN219      0.0478
     22  C2'       19.9280   18.0080   27.7370 C.ar  219  GDN219      0.1501
     23  C3'       20.9510   17.1600   27.3620 C.ar  219  GDN219      0.0486
     24  C4'       21.7290   16.5450   28.3570 C.ar  219  GDN219      0.1446
     25  C5'       21.5010   16.7460   29.7050 C.ar  219  GDN219      0.0247
     26  C6'       20.4940   17.5960   30.0650 C.ar  219  GDN219      0.0095
     27  N2'       19.2010   18.5840   26.6370 N.pl3 219  GDN219      0.0582
     28  O2A       18.4490   19.5450   26.7740 O.2   219  GDN219     -0.1261
     29  O2B       19.4500   18.0150   25.5390 O.2   219  GDN219     -0.1261
     30  N4'       22.7830   15.6990   27.9850 N.pl3 219  GDN219      0.0577
     31  O4A       23.0160   15.4480   26.6680 O.2   219  GDN219     -0.1261
     32  O4B       23.5740   15.0550   28.9140 O.2   219  GDN219     -0.1261
@<TRIPOS>BOND
     1     1     2    1
     2     5     3   ar
     3    29    27    2
     4     2     3    1
     5     2     6    1
     6     3     4   ar
     7    27    28    2
     8    27    22    1
     9    31    30    2
    10     6     7    1
    11    23    22   ar
    12    23    24   ar
    13    22    21   ar
    14    30    24    1
    15    30    32    2
    16    24    25   ar
    17     7     8    1
    18     9     8    2
    19    21    15    1
    20    21    26   ar
    21     8    10   am
    22    15    14    1
    23    25    26   ar
    24    10    11    1
    25    14    11    1
    26    11    12    1
    27    12    16   am
    28    12    13    2
    29    16    17    1
    30    19    18   ar
    31    17    18    1
    32    18    20   ar
