@<TRIPOS>MOLECULE
5hbi_HEM_A_1.pdb
 43 50 0 0 0
SMALL
GASTEIGER

@<TRIPOS>ATOM
      1 FE         42.8600   -2.2310   20.3090 Fe    153  HEM153      0.0000
      2  CHA       41.9660   -0.5820   17.4990 C.2   153  HEM153      0.0000
      3  CHB       39.6270   -2.1580   21.3780 C.2   153  HEM153      0.0000
      4  CHC       43.8530   -3.4470   23.3050 C.2   153  HEM153      0.0000
      5  CHD       45.9990   -2.6570   19.0850 C.2   153  HEM153      0.0000
      6  NA        41.1650   -1.4830   19.6100 N.2   153  HEM153      0.0000
      7  C1A       40.9590   -0.8410   18.4140 C.2   153  HEM153      0.0000
      8  C2A       39.5480   -0.5670   18.1880 C.2   153  HEM153      0.0000
      9  C3A       38.8910   -1.0050   19.2910 C.2   153  HEM153      0.0000
     10  C4A       39.8940   -1.5790   20.1610 C.2   153  HEM153      0.0000
     11  CMA       37.3970   -0.9030   19.5690 C.3   153  HEM153      0.0000
     12  CAA       38.9510    0.0460   16.9300 C.3   153  HEM153      0.0000
     13  CBA       38.8580   -0.9750   15.8010 C.3   153  HEM153      0.0000
     14  CGA       38.5990   -0.3950   14.4000 C.2   153  HEM153      0.0000
     15  O1A       37.8920    0.5910   14.2780 O.co2 153  HEM153      0.0000
     16  O2A       39.1610   -0.9200   13.4420 O.co2 153  HEM153      0.0000
     17  NB        41.9400   -2.7190   21.9810 N.ar  153  HEM153      0.0000
     18  C1B       40.5780   -2.6760   22.2450 C.ar  153  HEM153      0.0000
     19  C2B       40.2720   -3.1520   23.5790 C.ar  153  HEM153      0.0000
     20  C3B       41.4660   -3.4530   24.1600 C.ar  153  HEM153      0.0000
     21  C4B       42.4930   -3.1850   23.1520 C.ar  153  HEM153      0.0000
     22  CMB       38.8610   -3.3430   24.1440 C.3   153  HEM153      0.0000
     23  CAB       41.7130   -4.0020   25.4180 C.3   153  HEM153      0.0000
     24  CBB       41.0990   -3.6100   26.6740 C.3   153  HEM153      0.0000
     25  NC        44.5520   -2.9330   21.0340 N.2   153  HEM153      0.0000
     26  C1C       44.8150   -3.3310   22.3220 C.2   153  HEM153      0.0000
     27  C2C       46.2230   -3.6290   22.5050 C.2   153  HEM153      0.0000
     28  C3C       46.8350   -3.4480   21.2900 C.2   153  HEM153      0.0000
     29  C4C       45.7770   -3.0400   20.3900 C.2   153  HEM153      0.0000
     30  CMC       46.8460   -3.9980   23.8450 C.3   153  HEM153      0.0000
     31  CAC       48.1840   -3.4870   20.9220 C.3   153  HEM153      0.0000
     32  CBC       49.2230   -4.3340   21.4800 C.3   153  HEM153      0.0000
     33  ND        43.7790   -1.7300   18.6500 N.ar  153  HEM153      0.0000
     34  C1D       45.0790   -2.0190   18.2790 C.ar  153  HEM153      0.0000
     35  C2D       45.4070   -1.4190   17.0080 C.ar  153  HEM153      0.0000
     36  C3D       44.2790   -0.7910   16.5910 C.ar  153  HEM153      0.0000
     37  C4D       43.2780   -0.9970   17.6070 C.ar  153  HEM153      0.0000
     38  CMD       46.7740   -1.4280   16.3270 C.3   153  HEM153      0.0000
     39  CAD       44.0840   -0.0020   15.3110 C.3   153  HEM153      0.0000
     40  CBD       44.3370    1.4720   15.5210 C.3   153  HEM153      0.0000
     41  CGD       44.0180    2.2980   14.2990 C.2   153  HEM153      0.0000
     42  O1D       44.6390    2.1030   13.2570 O.co2 153  HEM153      0.0000
     43  O2D       43.1420    3.1460   14.4030 O.co2 153  HEM153      0.0000
@<TRIPOS>BOND
     1    42    41   ar
     2    16    14   ar
     3    15    14   ar
     4    41    43   ar
     5    41    40    1
     6    14    13    1
     7    39    40    1
     8    39    36    1
     9    13    12    1
    10    38    35    1
    11    36    35   ar
    12    36    37   ar
    13    12     8    1
    14    35    34   ar
    15     2    37    2
    16     2     7    1
    17    37    33   ar
    18     8     7    1
    19     8     9    2
    20    34    33   ar
    21    34     5    2
    22     7     6    2
    23    33     1    1
    24     5    29    1
    25     9    11    1
    26     9    10    1
    27     6    10    1
    28     6     1    1
    29    10     3    2
    30     1    25    1
    31     1    17    1
    32    29    25    2
    33    29    28    1
    34    31    28    1
    35    31    32    1
    36    25    26    1
    37    28    27    2
    38     3    18    1
    39    17    18   ar
    40    17    21   ar
    41    18    19   ar
    42    26    27    1
    43    26     4    2
    44    27    30    1
    45    21     4    1
    46    21    20   ar
    47    19    22    1
    48    19    20   ar
    49    20    23    1
    50    23    24    1
