@<TRIPOS>MOLECULE
5hmg_SIA_A_1.pdb
 21 21 0 0 0
SMALL
GASTEIGER

@<TRIPOS>ATOM
      1  C1        -7.4950   71.8060   28.2890 C.2   329  SIA329      0.4179
      2  C2        -8.1920   73.0970   27.8090 C.3   329  SIA329      0.3155
      3  C3        -7.9110   74.2890   28.7830 C.3   329  SIA329      0.1056
      4  C4        -6.5300   74.9190   28.6260 C.3   329  SIA329      0.1798
      5  C5        -6.2820   75.2450   27.1640 C.3   329  SIA329      0.1554
      6  C6        -6.4290   73.9970   26.3020 C.3   329  SIA329      0.1734
      7  C7        -6.2490   74.1670   24.7930 C.3   329  SIA329      0.2135
      8  C8        -6.3270   72.7710   24.1210 C.3   329  SIA329      0.2173
      9  C9        -5.9680   72.8120   22.6770 C.3   329  SIA329      0.2175
     10  C10       -4.5570   76.8900   26.5860 C.2   329  SIA329      0.2420
     11  C11       -3.0990   77.2430   26.4490 C.3   329  SIA329      0.0964
     12  N5        -4.9010   75.7010   27.0570 N.am  329  SIA329     -0.2020
     13  O1A       -6.3130   71.6300   28.1570 O.co2 329  SIA329     -0.2401
     14  O1B       -8.1500   70.9350   28.8430 O.co2 329  SIA329     -0.2401
     15  O2        -9.5600   72.8200   27.7150 O.3   329  SIA329     -0.1830
     16  O4        -6.3440   76.0970   29.4060 O.3   329  SIA329     -0.2210
     17  O6        -7.7530   73.4330   26.4960 O.3   329  SIA329     -0.3220
     18  O7        -7.2780   75.0170   24.3380 O.3   329  SIA329     -0.2176
     19  O8        -5.5010   71.8070   24.7290 O.3   329  SIA329     -0.2175
     20  O9        -6.0500   71.5000   22.1510 O.3   329  SIA329     -0.2175
     21  O10       -5.4150   77.7040   26.2520 O.2   329  SIA329     -0.2733
@<TRIPOS>BOND
     1    20     9    1
     2     9     8    1
     3     8    19    1
     4     8     7    1
     5    18     7    1
     6     7     6    1
     7    21    10    2
     8     6    17    1
     9     6     5    1
    10    11    10    1
    11    17     2    1
    12    10    12   am
    13    12     5    1
    14     5     4    1
    15    15     2    1
    16     2     1    1
    17     2     3    1
    18    13     1   ar
    19     1    14   ar
    20     4     3    1
    21     4    16    1
