@<TRIPOS>MOLECULE
5hoh_2GP_A_1.pdb
 24 26 0 0 0
SMALL
GASTEIGER

@<TRIPOS>ATOM
      1  P         17.8600   30.2020   52.6310 P.3   307  2GP307      0.5327
      2  O1P       16.4120   29.8980   52.8200 O.3   307  2GP307     -0.1145
      3  O2P       18.6130   29.1750   51.8850 O.2   307  2GP307     -0.2224
      4  O3P       18.5600   30.7150   53.8510 O.3   307  2GP307     -0.1145
      5  O5'       22.2020   32.6050   51.5200 O.3   307  2GP307     -0.2176
      6  C5'       21.7930   33.9680   51.6480 C.3   307  2GP307      0.2142
      7  C4'       20.3090   34.1970   51.3800 C.3   307  2GP307      0.1827
      8  O4'       20.0030   33.8300   50.0120 O.3   307  2GP307     -0.3326
      9  C3'       19.4000   33.3130   52.2700 C.3   307  2GP307      0.2132
     10  O3'       18.1800   34.0180   52.5280 O.3   307  2GP307     -0.2176
     11  C2'       19.1330   32.1070   51.3370 C.3   307  2GP307      0.2054
     12  O2'       17.8840   31.4430   51.5800 O.3   307  2GP307     -0.2657
     13  C1'       19.0260   32.7530   50.0010 C.3   307  2GP307      0.2266
     14  N9        19.3770   31.8840   48.8760 N.pl3 307  2GP307     -0.2354
     15  C8        18.7600   31.8930   47.6570 C.3   307  2GP307      0.2246
     16  N7        19.3750   31.2040   46.7460 N.2   307  2GP307     -0.2322
     17  C5        20.4850   30.6860   47.4140 C.2   307  2GP307      0.2182
     18  C6        21.5340   29.8780   46.9240 C.1   307  2GP307      0.2372
     19  O6        21.6560   29.5110   45.7630 O.2   307  2GP307     -0.2069
     20  N1        22.4750   29.5700   47.8880 N.2   307  2GP307     -0.2485
     21  C2        22.4160   30.0050   49.1960 C.1   307  2GP307      0.2531
     22  N2        23.4350   29.6460   49.9610 N.pl3 307  2GP307     -0.0226
     23  N3        21.4240   30.7760   49.6710 N.2   307  2GP307     -0.3074
     24  C4        20.4940   31.0820   48.7270 C.2   307  2GP307      0.2300
@<TRIPOS>BOND
     1    19    18    2
     2    16    17    2
     3    16    15    1
     4    18    17    1
     5    18    20    2
     6    17    24    1
     7    15    14    1
     8    20    21    2
     9    24    14    1
    10    24    23    2
    11    14    13    1
    12    21    23    2
    13    21    22    1
    14    13     8    1
    15    13    11    1
    16     8     7    1
    17    11    12    1
    18    11     9    1
    19     7     6    1
    20     7     9    1
    21     5     6    1
    22    12     1    1
    23     3     1    2
    24     9    10    1
    25     1     2    1
    26     1     4    1
