@<TRIPOS>MOLECULE
5hvp_III_C_1.pdb
 45 44 0 0 0
SMALL
GASTEIGER

@<TRIPOS>ATOM
      1  C          4.9490   27.7580    6.7930 C.2     1  ACE1        0.2423
      2  O          4.8000   26.6780    7.3930 O.2     1  ACE1       -0.2733
      3  CH3        4.1710   29.0120    7.1160 C.3     1  ACE1        0.0964
      4  N          5.9300   27.8410    5.8690 N.am    2  VAL2       -0.1978
      5  CA         6.6880   26.5740    5.6270 C.3     2  VAL2        0.1726
      6  C          8.1830   26.7930    5.8600 C.2     2  VAL2        0.2616
      7  O          8.6900   27.9100    5.6750 O.2     2  VAL2       -0.2715
      8  CB         6.5290   26.1780    4.1390 C.3     2  VAL2        0.0290
      9  CG1        7.6860   25.2560    3.6850 C.3     2  VAL2        0.0023
     10  CG2        5.1660   25.5630    3.8050 C.3     2  VAL2        0.0023
     11  N          8.8380   25.6700    6.1850 N.am    3  VAL3       -0.1963
     12  CA        10.3010   25.6890    6.4340 C.3     3  VAL3        0.1727
     13  C         10.9780   24.5530    5.7000 C.2     3  VAL3        0.2612
     14  O         10.5690   23.3860    5.7170 O.2     3  VAL3       -0.2715
     15  CB        10.4180   25.5900    7.9830 C.3     3  VAL3        0.0290
     16  CG1       11.7990   25.1850    8.4800 C.3     3  VAL3        0.0023
     17  CG2        9.8950   26.9110    8.6210 C.3     3  VAL3        0.0023
     18  N         12.1260   24.8780    5.0080 N.am    4  STA4       -0.2031
     19  CA        12.8460   23.6430    4.4970 C.3     4  STA4        0.1261
     20  CB        12.2280   23.4170    3.0920 C.3     4  STA4        0.0243
     21  CG        10.7750   23.8680    2.8430 C.3     4  STA4        0.0018
     22  CD1       10.4850   24.2640    1.3860 C.3     4  STA4        0.0001
     23  CD2        9.7060   22.8460    3.3260 C.3     4  STA4        0.0001
     24  CH        14.3770   23.7830    4.6590 C.3     4  STA4        0.1809
     25  OH        14.6900   25.0860    5.2140 O.3     4  STA4       -0.2208
     26  CM        15.0730   22.7550    5.6340 C.3     4  STA4        0.1214
     27  C         14.7670   21.2860    5.3040 C.2     4  STA4        0.2444
     28  O         13.6660   20.7390    5.5240 O.2     4  STA4       -0.2732
     29  N         15.8270   20.6740    4.7660 N.am    5  ALA5       -0.1977
     30  CA        16.2270   19.2820    5.0450 C.3     5  ALA5        0.1728
     31  C         17.7040   19.1620    5.3970 C.2     5  ALA5        0.2612
     32  O         18.6570   19.7380    4.8550 O.2     5  ALA5       -0.2715
     33  CB        15.8550   18.4330    3.7970 C.3     5  ALA5        0.0334
     34  N         17.9130   18.3890    6.4650 N.am    6  STA6       -0.2031
     35  CA        19.2160   17.9340    6.9520 C.3     6  STA6        0.1262
     36  CB        19.4160   18.4410    8.4250 C.3     6  STA6        0.0243
     37  CG        19.4920   19.9880    8.5850 C.3     6  STA6        0.0018
     38  CD1       18.0690   20.5930    8.5530 C.3     6  STA6        0.0001
     39  CD2       20.2460   20.4040    9.8540 C.3     6  STA6        0.0001
     40  CH        19.2480   16.4000    6.7170 C.3     6  STA6        0.1830
     41  OH        18.0830   15.7450    7.2880 O.3     6  STA6       -0.2207
     42  CM        19.3170   15.9940    5.2110 C.3     6  STA6        0.1486
     43  C         20.3470   14.8580    5.0010 C.2     6  STA6        0.3675
     44  O         20.9360   14.3020    5.9360 O.co2   6  STA6       -0.2456
     45  OXT       20.5730   14.5520    3.7030 O.co2   6  STA6       -0.2456
@<TRIPOS>BOND
     1    22    21    1
     2    21    20    1
     3    21    23    1
     4    20    19    1
     5     9     8    1
     6    45    43   ar
     7    33    30    1
     8    10     8    1
     9     8     5    1
    10    19    24    1
    11    19    18    1
    12    24    25    1
    13    24    26    1
    14    29    30    1
    15    29    27   am
    16    32    31    2
    17    43    42    1
    18    43    44   ar
    19    18    13   am
    20    30    31    1
    21    42    40    1
    22    27    28    2
    23    27    26    1
    24    31    34   am
    25     5     6    1
    26     5     4    1
    27     7     6    2
    28    13    14    2
    29    13    12    1
    30     6    11   am
    31     4     1   am
    32    11    12    1
    33    12    15    1
    34    34    35    1
    35    40    35    1
    36    40    41    1
    37     1     3    1
    38     1     2    2
    39    35    36    1
    40    15    16    1
    41    15    17    1
    42    36    37    1
    43    38    37    1
    44    37    39    1
