@<TRIPOS>MOLECULE
5icd_ICT_A_1.pdb
 13 12 0 0 0
SMALL
GASTEIGER

@<TRIPOS>ATOM
      1  C1        85.5280   67.4300    3.1660 C.2   418  ICT418      0.3952
      2  O1        86.3690   66.7290    3.7690 O.co2 418  ICT418     -0.2428
      3  O2        84.8610   68.3280    3.6820 O.co2 418  ICT418     -0.2428
      4  C2        85.2770   67.1100    1.7230 C.3   418  ICT418      0.2651
      5  O7        84.6730   68.2070    1.0120 O.3   418  ICT418     -0.2103
      6  C3        84.4640   65.9050    1.6490 C.3   418  ICT418      0.1561
      7  C4        84.5720   65.4510    0.2280 C.3   418  ICT418      0.1285
      8  C5        85.4450   64.2250    0.1840 C.2   418  ICT418      0.3655
      9  O3        86.5330   64.2730   -0.4110 O.co2 418  ICT418     -0.2456
     10  O4        85.1090   63.2140    0.7690 O.co2 418  ICT418     -0.2456
     11  C6        82.9770   66.2000    2.0730 C.2   418  ICT418      0.3680
     12  O5        82.6970   66.1530    3.2830 O.co2 418  ICT418     -0.2455
     13  O6        82.1400   66.3840    1.1380 O.co2 418  ICT418     -0.2455
@<TRIPOS>BOND
     1     9     8   ar
     2     8     7    1
     3     8    10   ar
     4     7     6    1
     5     5     4    1
     6    13    11   ar
     7     6     4    1
     8     6    11    1
     9     4     1    1
    10    11    12   ar
    11     1     3   ar
    12     1     2   ar
