@<TRIPOS>MOLECULE
5ktq_DCP_A_1.pdb
 28 29 0 0 0
SMALL
GASTEIGER

@<TRIPOS>ATOM
      1  N1        43.5230   27.3260   21.1150 N.am  901  DCP901     -0.1802
      2  C2        42.4790   27.8460   20.3030 C.1   901  DCP901      0.2756
      3  N3        42.0010   27.0740   19.2830 N.2   901  DCP901     -0.3024
      4  C4        42.4700   25.8340   19.0730 C.2   901  DCP901      0.2346
      5  C5        43.5480   25.3040   19.8720 C.2   901  DCP901      0.0687
      6  C6        44.0250   26.0790   20.8730 C.2   901  DCP901      0.0835
      7  O2        41.9770   28.9580   20.4670 O.2   901  DCP901     -0.1925
      8  N4        41.9390   25.0800   18.1030 N.pl3 901  DCP901     -0.0921
      9  C1'       44.0600   28.0180   22.3320 C.3   901  DCP901      0.2090
     10  C2'       44.1870   29.5610   22.3600 C.3   901  DCP901      0.0874
     11  C3'       43.9390   29.9090   23.8370 C.3   901  DCP901      0.1857
     12  C4'       43.9880   28.5290   24.4770 C.3   901  DCP901      0.1773
     13  O4'       43.3650   27.6530   23.5310 O.3   901  DCP901     -0.3339
     14  O3'       44.9270   30.7990   24.4040 O.3   901  DCP901     -0.2203
     15  C5'       43.3360   28.4590   25.8480 C.3   901  DCP901      0.1812
     16  O5'       43.1480   27.1050   26.2580 O.3   901  DCP901     -0.3112
     17  PA        44.2820   25.9260   26.2020 P.3   901  DCP901      0.2189
     18  O1A       44.2520   25.2710   24.8640 O.2   901  DCP901     -0.5170
     19  O2A       45.5860   26.4180   26.7290 O.3   901  DCP901     -0.4371
     20  O3A       43.6060   24.9120   27.2410 O.3   901  DCP901     -0.2700
     21  PB        43.7130   24.9660   28.8620 P.3   901  DCP901      0.2277
     22  O1B       44.2670   26.2710   29.3460 O.2   901  DCP901     -0.5168
     23  O2B       42.4230   24.4410   29.3880 O.3   901  DCP901     -0.4368
     24  O3B       44.8770   23.8420   28.9450 O.3   901  DCP901     -0.2258
     25  PG        45.0130   22.5760   29.9220 P.3   901  DCP901      0.5373
     26  O1G       46.2220   22.9440   30.7150 O.3   901  DCP901     -0.1143
     27  O2G       43.7550   22.4790   30.7160 O.3   901  DCP901     -0.1143
     28  O3G       45.2150   21.4810   28.9410 O.2   901  DCP901     -0.2221
@<TRIPOS>BOND
     1     8     4    1
     2     4     3    2
     3     4     5    1
     4     3     2    2
     5     5     6    2
     6     2     7    2
     7     2     1   am
     8     6     1    1
     9     1     9    1
    10     9    10    1
    11     9    13    1
    12    10    11    1
    13    13    12    1
    14    11    14    1
    15    11    12    1
    16    12    15    1
    17    18    17    2
    18    15    16    1
    19    17    16    1
    20    17    19    1
    21    17    20    1
    22    20    21    1
    23    21    24    1
    24    21    22    2
    25    21    23    1
    26    28    25    2
    27    24    25    1
    28    25    26    1
    29    25    27    1
