@<TRIPOS>MOLECULE
5lip_OCP_A_1.pdb
 38 37 0 0 0
SMALL
GASTEIGER

@<TRIPOS>ATOM
      1  P1        12.5480    2.1130   14.4680 P.3   400  OCP400      0.2201
      2  O1        12.3470    1.0400   13.3380 O.3   400  OCP400     -0.3133
      3  O4        11.2090    2.5550   14.8800 O.3   400  OCP400     -0.1774
      4  O5        11.2100   -1.1650   11.2770 O.3   400  OCP400     -0.4307
      5  O6         9.4520   -0.6210    9.7730 O.2   400  OCP400     -0.2246
      6  O3        12.4160    0.7610    8.8600 O.3   400  OCP400     -0.4295
      7  O7        14.6570    1.8110    8.3340 O.2   400  OCP400     -0.2246
      8  C1        11.1220    0.9700   12.5020 C.3   400  OCP400      0.1960
      9  C2        11.2400    0.3980   11.0980 C.3   400  OCP400      0.2437
     10  C3        12.5690    0.7570   10.3160 C.3   400  OCP400      0.2561
     11  C4        13.2060    3.6690   14.3650 C.3   400  OCP400      0.0809
     12  C5        14.6770    3.3170   13.9840 C.3   400  OCP400      0.0095
     13  C6        15.3750    4.7730   13.6720 C.3   400  OCP400      0.0005
     14  C7        15.2240    5.0840   12.1700 C.3   400  OCP400      0.0000
     15  C8        14.9310    6.4020   11.4950 C.3   400  OCP400      0.0000
     16  C9        14.8420    6.3280    9.8970 C.3   400  OCP400      0.0000
     17  C10       14.5200    7.8690    9.7280 C.3   400  OCP400      0.0000
     18  C11       13.0140    8.2580    9.0260 C.3   400  OCP400      0.0000
     19  C12       13.5600    1.0870    8.1580 C.2   400  OCP400      0.4212
     20  N1        13.4780    0.3690    6.7470 N.am  400  OCP400     -0.1687
     21  C13       14.8600    0.6340    5.8640 C.3   400  OCP400      0.1187
     22  C14       14.4620    1.9240    5.0850 C.3   400  OCP400      0.0235
     23  C15       15.5250    1.8120    4.1000 C.3   400  OCP400      0.0018
     24  C16       16.1890    2.2950    2.9850 C.3   400  OCP400      0.0001
     25  C17       17.5730    2.6260    2.4960 C.3   400  OCP400      0.0000
     26  C18       17.6750    2.7580    0.9820 C.3   400  OCP400      0.0000
     27  C19       19.1700    3.0590    1.0830 C.3   400  OCP400      0.0000
     28  C20       19.8470    3.2860   -0.3100 C.3   400  OCP400      0.0000
     29  C22       10.2920   -1.4430   10.2230 C.2   400  OCP400      0.4212
     30  N2         9.8080   -2.7130    9.8230 N.am  400  OCP400     -0.1687
     31  C23        8.7640   -3.4540    8.5730 C.3   400  OCP400      0.1187
     32  C24        8.9830   -3.9380    7.2100 C.3   400  OCP400      0.0235
     33  C25        7.8460   -3.2620    6.7010 C.3   400  OCP400      0.0018
     34  C26        7.7340   -3.5400    5.1600 C.3   400  OCP400      0.0001
     35  C27        6.4430   -2.7460    4.8000 C.3   400  OCP400      0.0000
     36  C28        6.0960   -2.8560    3.3320 C.3   400  OCP400      0.0000
     37  C29        4.7900   -2.0100    3.2120 C.3   400  OCP400      0.0000
     38  C30        4.4280   -2.0800    1.5520 C.3   400  OCP400      0.0000
@<TRIPOS>BOND
     1    28    27    1
     2    26    27    1
     3    26    25    1
     4    38    37    1
     5    25    24    1
     6    24    23    1
     7    37    36    1
     8    36    35    1
     9    23    22    1
    10    35    34    1
    11    22    21    1
    12    34    33    1
    13    21    20    1
    14    33    32    1
    15    20    19   am
    16    32    31    1
    17    19     7    2
    18    19     6    1
    19    31    30    1
    20     6    10    1
    21    18    17    1
    22    17    16    1
    23     5    29    2
    24    30    29   am
    25    16    15    1
    26    29     4    1
    27    10     9    1
    28     9     4    1
    29     9     8    1
    30    15    14    1
    31    14    13    1
    32     8     2    1
    33     2     1    1
    34    13    12    1
    35    12    11    1
    36    11     1    1
    37     1     3    1
