@<TRIPOS>MOLECULE
5lpr_III_P_1.pdb
 23 23 0 0 0
SMALL
GASTEIGER

@<TRIPOS>ATOM
      1  N         13.9020   42.0570   18.2560 N.3     4  ALA4        0.0000
      2  CA        14.4150   40.6780   18.0700 C.3     4  ALA4        0.0000
      3  C         13.5250   39.4980   18.4480 C.2     4  ALA4        0.0000
      4  O         12.8230   39.5030   19.4780 O.2     4  ALA4        0.0000
      5  CB        15.7280   40.4580   18.8120 C.3     4  ALA4        0.0000
      6  N         13.5630   38.4850   17.5990 N.am    3  ALA3        0.0000
      7  CA        12.7270   37.2850   17.8560 C.3     3  ALA3        0.0000
      8  C         13.6010   36.0760   17.4920 C.2     3  ALA3        0.0000
      9  O         14.4650   36.3430   16.6620 O.2     3  ALA3        0.0000
     10  CB        11.4930   37.3440   16.9870 C.3     3  ALA3        0.0000
     11  N         13.3030   34.9450   18.1060 N.am    2  PRO2        0.0000
     12  CA        14.0870   33.7280   17.7800 C.3     2  PRO2        0.0000
     13  C         13.8220   33.3140   16.3330 C.2     2  PRO2        0.0000
     14  O         12.6300   33.4940   15.9170 O.2     2  PRO2        0.0000
     15  CB        13.4620   32.7120   18.7410 C.3     2  PRO2        0.0000
     16  CG        12.6230   33.4770   19.7270 C.3     2  PRO2        0.0000
     17  CD        12.1690   34.7540   19.0330 C.3     2  PRO2        0.0000
     18  N         14.7600   32.7510   15.5990 N.am    1  ALA1        0.0000
     19  CA        14.5530   32.3020   14.1920 C.3     1  ALA1        0.0000
     20  CB        15.4040   33.2070   13.2610 C.3     1  ALA1        0.0000
     21  B         14.8050   30.7660   14.0360 B       1  ALA1        0.0000
     22  O1        14.8240   30.2030   12.6530 O.3     1  ALA1        0.0000
     23  O2        13.9120   29.9530   14.9440 O.3     1  ALA1        0.0000
@<TRIPOS>BOND
     1    22    21    1
     2    20    19    1
     3    21    19    1
     4    21    23    1
     5    19    18    1
     6    18    13   am
     7    14    13    2
     8    13    12    1
     9     9     8    2
    10    10     7    1
    11     8     7    1
    12     8    11   am
    13     6     7    1
    14     6     3   am
    15    12    11    1
    16    12    15    1
    17     2     1    1
    18     2     3    1
    19     2     5    1
    20    11    17    1
    21     3     4    2
    22    15    16    1
    23    17    16    1
