@<TRIPOS>MOLECULE
5mba_HEM_A_1.pdb
 43 50 0 0 0
SMALL
GASTEIGER

@<TRIPOS>ATOM
      1 FE        -58.4530  -37.7460  -32.4340 Fe    148  HEM148      0.0000
      2  CHA      -59.4200  -34.3850  -32.5770 C.2   148  HEM148      0.0000
      3  CHB      -59.1980  -37.8680  -29.2080 C.2   148  HEM148      0.0000
      4  CHC      -57.3260  -40.9960  -32.2990 C.2   148  HEM148      0.0000
      5  CHD      -57.5700  -37.5210  -35.6300 C.2   148  HEM148      0.0000
      6  NA       -59.1550  -36.4260  -31.2650 N.2   148  HEM148      0.0000
      7  C1A      -59.5810  -35.1240  -31.4300 C.2   148  HEM148      0.0000
      8  C2A      -60.1620  -34.5700  -30.2230 C.2   148  HEM148      0.0000
      9  C3A      -60.0280  -35.5030  -29.2470 C.2   148  HEM148      0.0000
     10  C4A      -59.4930  -36.7000  -29.9200 C.2   148  HEM148      0.0000
     11  CMA      -60.4710  -35.4680  -27.7490 C.3   148  HEM148      0.0000
     12  CAA      -60.4970  -33.0640  -30.0930 C.3   148  HEM148      0.0000
     13  CBA      -61.9820  -32.9070  -30.4210 C.3   148  HEM148      0.0000
     14  CGA      -62.4020  -31.4690  -30.4720 C.2   148  HEM148      0.0000
     15  O1A      -61.6600  -30.6770  -29.8700 O.co2 148  HEM148      0.0000
     16  O2A      -63.4620  -31.1700  -31.0880 O.co2 148  HEM148      0.0000
     17  NB       -58.2770  -39.2010  -31.0210 N.ar  148  HEM148      0.0000
     18  C1B      -58.6450  -39.0490  -29.7010 C.ar  148  HEM148      0.0000
     19  C2B      -58.4780  -40.2800  -28.9860 C.ar  148  HEM148      0.0000
     20  C3B      -57.9290  -41.1600  -29.8410 C.ar  148  HEM148      0.0000
     21  C4B      -57.9820  -40.5280  -31.1640 C.ar  148  HEM148      0.0000
     22  CMB      -58.8060  -40.5570  -27.5110 C.3   148  HEM148      0.0000
     23  CAB      -57.6140  -42.6740  -29.6010 C.2   148  HEM148      0.0000
     24  CBB      -56.4080  -43.2080  -29.6340 C.2   148  HEM148      0.0000
     25  NC       -57.7190  -38.9910  -33.6380 N.2   148  HEM148      0.0000
     26  C1C      -57.2890  -40.3090  -33.5020 C.2   148  HEM148      0.0000
     27  C2C      -56.7470  -40.8610  -34.7470 C.2   148  HEM148      0.0000
     28  C3C      -56.7150  -39.8170  -35.6200 C.2   148  HEM148      0.0000
     29  C4C      -57.3600  -38.6930  -34.9540 C.2   148  HEM148      0.0000
     30  CMC      -56.2500  -42.3170  -34.8870 C.3   148  HEM148      0.0000
     31  CAC      -56.2340  -39.8000  -37.0850 C.2   148  HEM148      0.0000
     32  CBC      -55.7270  -40.9220  -37.5650 C.2   148  HEM148      0.0000
     33  ND       -58.3830  -36.2190  -33.8040 N.ar  148  HEM148      0.0000
     34  C1D      -58.0600  -36.3550  -35.1220 C.ar  148  HEM148      0.0000
     35  C2D      -58.1430  -35.0760  -35.8500 C.ar  148  HEM148      0.0000
     36  C3D      -58.6480  -34.1830  -34.9730 C.ar  148  HEM148      0.0000
     37  C4D      -58.9730  -34.9480  -33.7610 C.ar  148  HEM148      0.0000
     38  CMD      -57.7410  -34.9340  -37.3390 C.3   148  HEM148      0.0000
     39  CAD      -58.9350  -32.6750  -35.2080 C.3   148  HEM148      0.0000
     40  CBD      -58.1310  -31.7870  -34.2710 C.3   148  HEM148      0.0000
     41  CGD      -57.1030  -31.0070  -35.0110 C.2   148  HEM148      0.0000
     42  O1D      -56.1600  -31.6390  -35.5390 O.co2 148  HEM148      0.0000
     43  O2D      -57.2810  -29.7800  -35.0380 O.co2 148  HEM148      0.0000
@<TRIPOS>BOND
     1    32    31    2
     2    38    35    1
     3    31    28    1
     4    35    34   ar
     5    35    36   ar
     6     5    34    2
     7     5    29    1
     8    28    29    1
     9    28    27    2
    10    42    41   ar
    11    39    36    1
    12    39    40    1
    13    34    33   ar
    14    43    41   ar
    15    41    40    1
    16    36    37   ar
    17    29    25    2
    18    30    27    1
    19    27    26    1
    20    33    37   ar
    21    33     1    1
    22    37     2    2
    23    25    26    1
    24    25     1    1
    25    26     4    2
    26     2     7    1
    27     1     6    1
    28     1    17    1
    29     4    21    1
    30     7     6    2
    31     7     8    1
    32     6    10    1
    33    21    17   ar
    34    21    20   ar
    35    16    14   ar
    36    17    18   ar
    37    14    13    1
    38    14    15   ar
    39    13    12    1
    40     8    12    1
    41     8     9    2
    42    10     9    1
    43    10     3    2
    44    20    23    1
    45    20    19   ar
    46    18     3    1
    47    18    19   ar
    48    24    23    2
    49     9    11    1
    50    19    22    1
