@<TRIPOS>MOLECULE
5mbn_HEM_A_1.pdb
 43 50 0 0 0
SMALL
GASTEIGER

@<TRIPOS>ATOM
      1  CHA       16.9680   31.1160    0.5960 C.2   217  HEM217      0.0000
      2  CHB       15.6100   28.0070    4.0720 C.2   217  HEM217      0.0000
      3  CHC       14.3680   24.7820    0.6250 C.2   217  HEM217      0.0000
      4  CHD       15.7430   27.9100   -2.7750 C.2   217  HEM217      0.0000
      5  C1A       16.6870   30.5600    1.8380 C.2   217  HEM217      0.0000
      6  C2A       16.9450   31.1950    3.0620 C.2   217  HEM217      0.0000
      7  C3A       16.5740   30.3070    4.0720 C.2   217  HEM217      0.0000
      8  C4A       16.0480   29.1550    3.4360 C.2   217  HEM217      0.0000
      9  CMA       16.6860   30.5490    5.5590 C.3   217  HEM217      0.0000
     10  CAA       17.4550   32.6110    3.2300 C.3   217  HEM217      0.0000
     11  CBA       16.4040   33.6460    3.6640 C.3   217  HEM217      0.0000
     12  CGA       15.2080   33.6260    2.6910 C.2   217  HEM217      0.0000
     13  O1A       14.0730   33.8460    3.0950 O.co2 217  HEM217      0.0000
     14  O2A       15.3820   33.7740    1.4140 O.co2 217  HEM217      0.0000
     15  C1B       15.1880   26.8540    3.4390 C.ar  217  HEM217      0.0000
     16  C2B       14.8250   25.6680    4.0760 C.ar  217  HEM217      0.0000
     17  C3B       14.4860   24.7380    3.0470 C.ar  217  HEM217      0.0000
     18  C4B       14.6160   25.3880    1.8430 C.ar  217  HEM217      0.0000
     19  CMB       14.8630   25.4870    5.5910 C.3   217  HEM217      0.0000
     20  CAB       14.1770   23.3810    3.1120 C.3   217  HEM217      0.0000
     21  CBB       14.2050   22.6170    4.2760 C.3   217  HEM217      0.0000
     22  C1C       14.5670   25.3440   -0.6150 C.2   217  HEM217      0.0000
     23  C2C       14.4730   24.6680   -1.8470 C.2   217  HEM217      0.0000
     24  C3C       14.9050   25.5980   -2.8430 C.2   217  HEM217      0.0000
     25  C4C       15.2210   26.7800   -2.1640 C.2   217  HEM217      0.0000
     26  CMC       14.0380   23.2080   -1.9780 C.3   217  HEM217      0.0000
     27  CAC       15.0740   25.4380   -4.2220 C.3   217  HEM217      0.0000
     28  CBC       14.7950   24.2300   -4.8960 C.3   217  HEM217      0.0000
     29  C1D       16.1900   29.0520   -2.1530 C.ar  217  HEM217      0.0000
     30  C2D       16.7100   30.1850   -2.8310 C.ar  217  HEM217      0.0000
     31  C3D       17.1220   31.0720   -1.8390 C.ar  217  HEM217      0.0000
     32  C4D       16.7430   30.5240   -0.6270 C.ar  217  HEM217      0.0000
     33  CMD       16.7390   30.4010   -4.3510 C.3   217  HEM217      0.0000
     34  CAD       17.9130   32.3550   -2.0310 C.3   217  HEM217      0.0000
     35  CBD       19.3620   32.0290   -2.4010 C.3   217  HEM217      0.0000
     36  CGD       20.0960   33.3070   -2.7590 C.2   217  HEM217      0.0000
     37  O1D       20.0790   33.7260   -3.9180 O.co2 217  HEM217      0.0000
     38  O2D       20.5440   34.0840   -1.8080 O.co2 217  HEM217      0.0000
     39  NA        16.0930   29.3450    2.0830 N.2   217  HEM217      0.0000
     40  NB        15.0690   26.6880    2.0860 N.ar  217  HEM217      0.0000
     41  NC        15.0070   26.6080   -0.8160 N.2   217  HEM217      0.0000
     42  ND        16.1700   29.3160   -0.8190 N.ar  217  HEM217      0.0000
     43 FE         15.3250   28.0950    0.7180 Fe    217  HEM217      0.0000
@<TRIPOS>BOND
     1    28    27    1
     2    33    30    1
     3    27    24    1
     4    37    36   ar
     5    24    25    1
     6    24    23    2
     7    30    29   ar
     8    30    31   ar
     9     4    25    1
    10     4    29    2
    11    36    35    1
    12    36    38   ar
    13    35    34    1
    14    25    41    2
    15    29    42   ar
    16    34    31    1
    17    26    23    1
    18    23    22    1
    19    31    32   ar
    20    42    32   ar
    21    42    43    1
    22    41    22    1
    23    41    43    1
    24    32     1    2
    25    22     3    2
    26     1     5    1
    27     3    18    1
    28    43    39    1
    29    43    40    1
    30    14    12   ar
    31     5    39    2
    32     5     6    1
    33    18    40   ar
    34    18    17   ar
    35    39     8    1
    36    40    15   ar
    37    12    13   ar
    38    12    11    1
    39    17    20    1
    40    17    16   ar
    41     6    10    1
    42     6     7    2
    43    20    21    1
    44    10    11    1
    45     8     7    1
    46     8     2    2
    47    15     2    1
    48    15    16   ar
    49     7     9    1
    50    16    19    1
