@<TRIPOS>MOLECULE
5mdh_NAD_A_1.pdb
 44 48 0 0 0
SMALL
GASTEIGER

@<TRIPOS>ATOM
      1  PA        34.4790   25.7090   17.4710 P.3   334  NAD334      0.2189
      2  O1A       34.1500   27.0750   17.9470 O.3   334  NAD334     -0.4371
      3  O2A       35.9310   25.4540   17.6440 O.2   334  NAD334     -0.5170
      4  O5B       33.5930   24.6750   18.3040 O.3   334  NAD334     -0.3112
      5  C5B       34.1340   23.3870   18.7060 C.3   334  NAD334      0.1813
      6  C4B       33.8560   23.0650   20.1470 C.3   334  NAD334      0.1821
      7  O4B       34.2730   21.6700   20.3500 O.3   334  NAD334     -0.3135
      8  C3B       34.5750   23.8860   21.2200 C.3   334  NAD334      0.2184
      9  O3B       33.7600   24.3670   22.2680 O.3   334  NAD334     -0.2174
     10  C2B       35.5770   22.8890   21.8150 C.3   334  NAD334      0.2570
     11  O2B       36.0380   23.2060   23.1050 O.3   334  NAD334     -0.2130
     12  C1B       34.7440   21.6060   21.7010 C.3   334  NAD334      0.3186
     13  N9A       35.4970   20.3620   21.8260 N.pl3 334  NAD334     -0.1439
     14  C8A       36.7410   20.0790   21.3400 C.3   334  NAD334      0.3377
     15  N7A       37.1310   18.8350   21.6160 N.2   334  NAD334     -0.2095
     16  C5A       36.0730   18.3010   22.3170 C.2   334  NAD334      0.2526
     17  C6A       35.8770   17.0280   22.8820 C.2   334  NAD334      0.4393
     18  N6A       36.7860   16.0640   22.8150 N.pl3 334  NAD334      0.2180
     19  N1A       34.6900   16.8240   23.5190 N.2   334  NAD334      0.0021
     20  C2A       33.7630   17.8330   23.5650 C.3   334  NAD334      0.5254
     21  N3A       33.8610   19.0270   23.0690 N.2   334  NAD334     -0.0055
     22  C4A       35.0500   19.2220   22.4560 C.2   334  NAD334      0.3518
     23  O3        34.1010   25.4220   15.9460 O.3   334  NAD334     -0.2703
     24  PN        33.0530   24.4410   15.2350 P.3   334  NAD334      0.2189
     25  O1N       32.8410   24.8610   13.8390 O.2   334  NAD334     -0.5170
     26  O2N       31.8230   24.5550   16.0660 O.3   334  NAD334     -0.4371
     27  O5D       33.7810   23.0170   15.3710 O.3   334  NAD334     -0.3112
     28  C5D       32.9520   21.8480   15.2660 C.3   334  NAD334      0.1813
     29  C4D       33.3180   20.9870   14.0930 C.3   334  NAD334      0.1799
     30  O4D       32.2270   20.9500   13.1240 O.3   334  NAD334     -0.3327
     31  C3D       34.5860   21.3430   13.3110 C.3   334  NAD334      0.2158
     32  O3D       35.2980   20.1540   12.9740 O.3   334  NAD334     -0.2175
     33  C2D       34.0000   21.9550   12.0270 C.3   334  NAD334      0.2309
     34  O2D       34.9360   21.8920   10.9490 O.3   334  NAD334     -0.2158
     35  C1D       32.8310   20.9820   11.8390 C.3   334  NAD334      0.2263
     36  N1N       31.8340   21.4210   10.8750 N.pl3 334  NAD334     -0.2787
     37  C2N       31.2400   20.4780   10.1000 C.3   334  NAD334      0.1244
     38  C3N       30.2920   20.8560    9.1900 C.2   334  NAD334      0.0544
     39  C7N       29.4940   19.9440    8.2090 C.2   334  NAD334      0.2818
     40  O7N       28.8730   20.5290    7.3120 O.2   334  NAD334     -0.2670
     41  N7N       29.5520   18.6230    8.4010 N.am  334  NAD334     -0.0839
     42  C4N       29.9090   22.2040    8.9970 C.2   334  NAD334      0.0033
     43  C5N       30.5920   23.0900    9.8280 C.2   334  NAD334      0.0157
     44  C6N       31.5370   22.7990   10.7760 C.2   334  NAD334      0.0633
@<TRIPOS>BOND
     1    40    39    2
     2    39    41   am
     3    39    38    1
     4    42    38    2
     5    42    43    1
     6    38    37    1
     7    43    44    2
     8    37    36    1
     9    44    36    1
    10    36    35    1
    11    34    33    1
    12    35    33    1
    13    35    30    1
    14    33    31    1
    15    32    31    1
    16    30    29    1
    17    31    29    1
    18    25    24    2
    19    29    28    1
    20    24    27    1
    21    24    23    1
    22    24    26    1
    23    28    27    1
    24    23     1    1
    25     1     3    2
    26     1     2    1
    27     1     4    1
    28     4     5    1
    29     5     6    1
    30     6     7    1
    31     6     8    1
    32     7    12    1
    33     8    10    1
    34     8     9    1
    35    14    15    1
    36    14    13    1
    37    15    16    2
    38    12    10    1
    39    12    13    1
    40    10    11    1
    41    13    22    1
    42    16    22    1
    43    16    17    1
    44    22    21    2
    45    18    17    1
    46    17    19    2
    47    21    20    1
    48    19    20    1
