@<TRIPOS>MOLECULE
5mht_SAH_A_1.pdb
 26 28 0 0 0
SMALL
GASTEIGER

@<TRIPOS>ATOM
      1  N        -18.2450   32.0950   82.2430 N.3   328  SAH328     -0.1208
      2  CA       -18.8630   31.4020   83.3750 C.3   328  SAH328      0.1952
      3  CB       -18.6890   32.1420   84.7160 C.3   328  SAH328      0.0422
      4  CG       -17.2430   32.3390   85.1520 C.3   328  SAH328      0.0597
      5  SD       -17.0550   33.1660   86.7770 S.3   328  SAH328     -0.1375
      6  C        -20.3460   31.2850   83.0390 C.2   328  SAH328      0.3819
      7  O        -20.6690   31.0360   81.8010 O.co2 328  SAH328     -0.2441
      8  OXT      -21.1370   30.9890   84.0330 O.co2 328  SAH328     -0.2441
      9  C5'      -15.6160   32.3800   87.5490 C.3   328  SAH328      0.0899
     10  C4'      -15.6780   30.8790   87.9450 C.3   328  SAH328      0.1630
     11  O4'      -14.4020   30.3910   88.3390 O.3   328  SAH328     -0.3153
     12  C3'      -16.6190   30.6230   89.1590 C.3   328  SAH328      0.2168
     13  O3'      -17.6560   29.7240   88.7220 O.3   328  SAH328     -0.2175
     14  C2'      -15.6310   30.0450   90.1990 C.3   328  SAH328      0.2569
     15  O2'      -16.3490   29.1530   91.0720 O.3   328  SAH328     -0.2130
     16  C1'      -14.5670   29.3510   89.3060 C.3   328  SAH328      0.3185
     17  N9       -13.2290   29.2110   89.9790 N.pl3 328  SAH328     -0.1439
     18  C8       -12.6730   30.1760   90.8000 C.3   328  SAH328      0.3377
     19  N7       -11.5160   29.8830   91.2690 N.2   328  SAH328     -0.2095
     20  C5       -11.2400   28.6120   90.7380 C.2   328  SAH328      0.2526
     21  C6       -10.1090   27.7420   90.9070 C.2   328  SAH328      0.4393
     22  N6        -9.0970   28.0280   91.7670 N.pl3 328  SAH328      0.2180
     23  N1       -10.1350   26.5610   90.2510 N.2   328  SAH328      0.0021
     24  C2       -11.2310   26.2610   89.4990 C.3   328  SAH328      0.5254
     25  N3       -12.3450   26.9690   89.2780 N.2   328  SAH328     -0.0055
     26  C4       -12.2820   28.1760   89.9390 C.2   328  SAH328      0.3518
@<TRIPOS>BOND
     1     7     6   ar
     2     1     2    1
     3     6     2    1
     4     6     8   ar
     5     2     3    1
     6     3     4    1
     7     4     5    1
     8     5     9    1
     9     9    10    1
    10    10    11    1
    11    10    12    1
    12    11    16    1
    13    13    12    1
    14    12    14    1
    15    25    24    1
    16    25    26    2
    17    16    17    1
    18    16    14    1
    19    24    23    1
    20    26    17    1
    21    26    20    1
    22    17    18    1
    23    14    15    1
    24    23    21    2
    25    20    21    1
    26    20    19    2
    27    18    19    1
    28    21    22    1
