@<TRIPOS>MOLECULE
5nll_FMN_A_1.pdb
 31 33 0 0 0
SMALL
GASTEIGER

@<TRIPOS>ATOM
      1  N1        27.5970   14.2970   15.7430 N.2   139  FMN139     -0.2887
      2  C2        27.7140   14.0730   17.0640 C.1   139  FMN139      0.3669
      3  O2        26.7310   13.8370   17.7500 O.2   139  FMN139     -0.1744
      4  N3        28.9840   14.1260   17.6770 N.2   139  FMN139     -0.2300
      5  C4        30.1840   14.3100   17.0360 C.1   139  FMN139      0.2513
      6  O4        31.2670   14.2480   17.6680 O.2   139  FMN139     -0.2057
      7  C4A       30.0420   14.5290   15.6010 C.2   139  FMN139      0.2706
      8  N5        31.1110   14.6650   14.8670 N.2   139  FMN139     -0.3841
      9  C5A       30.9470   14.8690   13.5200 C.2   139  FMN139      0.1452
     10  C6        32.0940   15.0220   12.7350 C.2   139  FMN139      0.0252
     11  C7        32.0140   15.2400   11.4010 C.2   139  FMN139     -0.0375
     12  C7M       33.2860   15.2400   10.5960 C.3   139  FMN139      0.0268
     13  C8        30.7630   15.4200   10.7580 C.3   139  FMN139      0.0417
     14  C8M       30.6640   15.7670    9.2840 C.3   139  FMN139      0.0091
     15  C9        29.6060   15.2420   11.5050 C.2   139  FMN139     -0.0049
     16  C9A       29.6820   15.0020   12.8920 C.2   139  FMN139      0.0795
     17  N10       28.5720   14.7930   13.6920 N.pl3 139  FMN139     -0.2545
     18  C10       28.6770   14.5440   15.0360 C.2   139  FMN139      0.2449
     19  C1'       27.2530   14.7690   13.0500 C.3   139  FMN139      0.1336
     20  C2'       26.6760   16.1680   12.8530 C.3   139  FMN139      0.2048
     21  O2'       26.6770   16.8650   14.1010 O.3   139  FMN139     -0.2185
     22  C3'       25.2540   16.0440   12.3630 C.3   139  FMN139      0.2165
     23  O3'       25.2360   15.3190   11.1330 O.3   139  FMN139     -0.2175
     24  C4'       24.4500   17.3420   12.2260 C.3   139  FMN139      0.2147
     25  O4'       23.0980   17.0330   11.8730 O.3   139  FMN139     -0.2176
     26  C5'       25.1030   18.2890   11.2150 C.3   139  FMN139      0.1892
     27  O5'       24.3580   19.5180   11.1480 O.3   139  FMN139     -0.2674
     28  P         24.7610   20.5980   10.0900 P.3   139  FMN139      0.5327
     29  O1P       26.2520   20.5950    9.9940 O.3   139  FMN139     -0.1145
     30  O2P       24.1180   21.8090   10.5730 O.3   139  FMN139     -0.1145
     31  O3P       24.1780   20.2260    8.7270 O.2   139  FMN139     -0.2224
@<TRIPOS>BOND
     1    31    28    2
     2    14    13    1
     3    29    28    1
     4    28    30    1
     5    28    27    1
     6    12    11    1
     7    13    11    1
     8    13    15    1
     9    23    22    1
    10    27    26    1
    11    26    24    1
    12    11    10    2
    13    15    16    2
    14    25    24    1
    15    24    22    1
    16    22    20    1
    17    10     9    1
    18    20    19    1
    19    20    21    1
    20    16     9    1
    21    16    17    1
    22    19    17    1
    23     9     8    2
    24    17    18    1
    25     8     7    2
    26    18     7    1
    27    18     1    2
    28     7     5    1
    29     1     2    2
    30     5     6    2
    31     5     4    2
    32     2     4    2
    33     2     3    2
