@<TRIPOS>MOLECULE
5nse_HEM_A_1.pdb
 43 50 0 0 0
SMALL
GASTEIGER

@<TRIPOS>ATOM
      1  CHA        9.1390    9.1820   34.7080 C.2   500  HEM500      0.0000
      2  CHB        4.5700    9.2430   33.2450 C.2   500  HEM500      0.0000
      3  CHC        6.0500    7.4790   29.0410 C.2   500  HEM500      0.0000
      4  CHD       10.4880    6.8530   30.7020 C.2   500  HEM500      0.0000
      5  C1A        7.7840    9.4750   34.6150 C.2   500  HEM500      0.0000
      6  C2A        7.0380   10.2100   35.6120 C.2   500  HEM500      0.0000
      7  C3A        5.7660   10.1910   35.2290 C.2   500  HEM500      0.0000
      8  C4A        5.7200    9.4810   33.9660 C.2   500  HEM500      0.0000
      9  CMA        4.6170   10.8070   36.0100 C.3   500  HEM500      0.0000
     10  CAA        7.5750   11.0090   36.7940 C.3   500  HEM500      0.0000
     11  CBA        8.1610   12.3230   36.3020 C.3   500  HEM500      0.0000
     12  CGA        8.7200   13.2040   37.4060 C.2   500  HEM500      0.0000
     13  O1A        8.3020   13.0630   38.5750 O.co2 500  HEM500      0.0000
     14  O2A        9.5770   14.0580   37.0840 O.co2 500  HEM500      0.0000
     15  C1B        4.5510    8.5890   32.0440 C.ar  500  HEM500      0.0000
     16  C2B        3.3960    8.5300   31.1930 C.ar  500  HEM500      0.0000
     17  C3B        3.7830    8.0230   29.9900 C.ar  500  HEM500      0.0000
     18  C4B        5.2100    7.8040   30.1130 C.ar  500  HEM500      0.0000
     19  CMB        1.9960    8.9710   31.5690 C.3   500  HEM500      0.0000
     20  CAB        2.9360    7.8280   28.8840 C.2   500  HEM500      0.0000
     21  CBB        3.0890    6.9210   27.8770 C.2   500  HEM500      0.0000
     22  C1C        7.4090    7.2670   29.0900 C.2   500  HEM500      0.0000
     23  C2C        8.2120    6.7940   27.9730 C.2   500  HEM500      0.0000
     24  C3C        9.4700    6.5310   28.4330 C.2   500  HEM500      0.0000
     25  C4C        9.3980    6.8810   29.8560 C.2   500  HEM500      0.0000
     26  CMC        7.6980    6.6600   26.5310 C.3   500  HEM500      0.0000
     27  CAC       10.6360    6.0630   27.7940 C.2   500  HEM500      0.0000
     28  CBC       10.8080    5.4080   26.6150 C.2   500  HEM500      0.0000
     29  C1D       10.4600    7.3730   31.9760 C.ar  500  HEM500      0.0000
     30  C2D       11.6550    7.5630   32.7800 C.ar  500  HEM500      0.0000
     31  C3D       11.3090    8.2830   33.8560 C.ar  500  HEM500      0.0000
     32  C4D        9.8650    8.4700   33.7780 C.ar  500  HEM500      0.0000
     33  CMD       13.0620    6.9940   32.5860 C.3   500  HEM500      0.0000
     34  CAD       12.3260    8.8210   34.8650 C.3   500  HEM500      0.0000
     35  CBD       12.4380   10.3410   34.8900 C.3   500  HEM500      0.0000
     36  CGD       13.4970   10.8570   35.8690 C.2   500  HEM500      0.0000
     37  O1D       14.1700   10.0320   36.5360 O.co2 500  HEM500      0.0000
     38  O2D       13.6550   12.1010   35.9630 O.co2 500  HEM500      0.0000
     39  NA         6.9660    9.0260   33.5930 N.2   500  HEM500      0.0000
     40  NB         5.6820    8.0950   31.4120 N.ar  500  HEM500      0.0000
     41  NC         8.1340    7.3210   30.2610 N.2   500  HEM500      0.0000
     42  ND         9.3230    7.9020   32.6000 N.ar  500  HEM500      0.0000
     43 FE          7.4730    7.8210   32.0880 Fe    500  HEM500      0.0000
@<TRIPOS>BOND
     1    26    23    1
     2    28    27    2
     3    27    24    1
     4    21    20    2
     5    23    24    2
     6    23    22    1
     7    24    25    1
     8    20    17    1
     9     3    22    2
    10     3    18    1
    11    22    41    1
    12    25    41    2
    13    25     4    1
    14    17    18   ar
    15    17    16   ar
    16    18    40   ar
    17    41    43    1
    18     4    29    2
    19    16    19    1
    20    16    15   ar
    21    40    15   ar
    22    40    43    1
    23    29    42   ar
    24    29    30   ar
    25    15     2    1
    26    43    42    1
    27    43    39    1
    28    33    30    1
    29    42    32   ar
    30    30    31   ar
    31     2     8    2
    32    39     8    1
    33    39     5    2
    34    32    31   ar
    35    32     1    2
    36    31    34    1
    37     8     7    1
    38     5     1    1
    39     5     6    1
    40    34    35    1
    41    35    36    1
    42     7     6    2
    43     7     9    1
    44     6    10    1
    45    36    38   ar
    46    36    37   ar
    47    11    10    1
    48    11    12    1
    49    14    12   ar
    50    12    13   ar
