@<TRIPOS>MOLECULE
5nse_HAR_A_1.pdb
 13 12 0 0 0
SMALL
GASTEIGER

@<TRIPOS>ATOM
      1  N          7.8480   15.6060   35.1860 N.3   770  HAR770     -0.1208
      2  CA         8.4730   16.1140   33.9400 C.3   770  HAR770      0.1944
      3  C          7.7270   17.3640   33.4770 C.2   770  HAR770      0.3819
      4  O          6.7560   17.7680   34.1490 O.co2 770  HAR770     -0.2441
      5  CB         8.4040   15.0500   32.8240 C.3   770  HAR770      0.0343
      6  CG         9.0780   13.6970   33.0880 C.3   770  HAR770      0.0490
      7  CD         8.6750   12.7630   31.9520 C.3   770  HAR770      0.2205
      8  NE         7.2160   12.6220   31.8980 N.pl3 770  HAR770     -0.0871
      9  CZ         6.5210   11.9280   31.0090 C.2   770  HAR770      0.5283
     10  NH1        7.1280   11.2690   30.0280 N.4   770  HAR770      0.1134
     11  NH2        5.1970   11.9010   31.1130 N.pl3 770  HAR770      0.1348
     12  OH1        6.1140   10.6130   29.1970 O.3   770  HAR770      0.0294
     13  OXT        8.1100   17.9380   32.4380 O.co2 770  HAR770     -0.2441
@<TRIPOS>BOND
     1    12    10    1
     2    10     9    1
     3     9    11    2
     4     9     8    1
     5     8     7    1
     6     7     6    1
     7    13     3   ar
     8     5     6    1
     9     5     2    1
    10     3     2    1
    11     3     4   ar
    12     2     1    1
