@<TRIPOS>MOLECULE
5nuc_THP_A_1.pdb
 26 27 0 0 0
SMALL
GASTEIGER

@<TRIPOS>ATOM
      1  P2         6.1730   13.6670   20.3270 P.3   151  THP151      0.5327
      2  O4P        5.1710   13.6850   19.2170 O.2   151  THP151     -0.2224
      3  O5P        7.3720   14.4640   20.0060 O.3   151  THP151     -0.1145
      4  O6P        6.4050   12.3040   20.7960 O.3   151  THP151     -0.1145
      5  P1         4.7780   11.4470   26.1240 P.3   151  THP151      0.5326
      6  O1P        4.9050   11.2680   27.5660 O.3   151  THP151     -0.1145
      7  O2P        6.0390   11.3030   25.3980 O.2   151  THP151     -0.2224
      8  O3P        3.6320   10.8020   25.4890 O.3   151  THP151     -0.1145
      9  O5'        5.5540   14.4360   21.5720 O.3   151  THP151     -0.2675
     10  C5'        4.4710   13.8940   22.3610 C.3   151  THP151      0.1857
     11  C4'        4.8230   13.9290   23.8730 C.3   151  THP151      0.1750
     12  O4'        5.1090   15.2740   24.2860 O.3   151  THP151     -0.3327
     13  C3'        3.7200   13.5240   24.8860 C.3   151  THP151      0.1602
     14  O3'        4.3500   12.9970   26.0810 O.3   151  THP151     -0.2700
     15  C2'        3.0000   14.8240   25.2140 C.3   151  THP151      0.0867
     16  C1'        4.1070   15.7980   25.1910 C.3   151  THP151      0.2106
     17  N1         3.6580   17.1540   24.7550 N.ar  151  THP151     -0.2574
     18  C2         3.4090   18.0000   25.7750 C.ar  151  THP151      0.3322
     19  O2         3.7110   17.7450   26.9320 O.2   151  THP151     -0.2464
     20  N3         2.9150   19.2070   25.4250 N.ar  151  THP151     -0.2746
     21  C4         2.7420   19.6650   24.1350 C.ar  151  THP151      0.2584
     22  O4         2.2240   20.7660   23.9600 O.2   151  THP151     -0.2674
     23  C5         3.1740   18.7670   23.0770 C.ar  151  THP151      0.0515
     24  C5M        2.9070   19.1890   21.6010 C.3   151  THP151      0.0376
     25  C6         3.6930   17.5930   23.4350 C.ar  151  THP151      0.0823
     26  H3         2.7280   19.8700   26.1610 H     151  THP151      0.1734
@<TRIPOS>BOND
     1     2     1    2
     2     3     1    1
     3     1     4    1
     4     1     9    1
     5     9    10    1
     6    24    23    1
     7    10    11    1
     8    23    25   ar
     9    23    21   ar
    10    25    17   ar
    11    11    12    1
    12    11    13    1
    13    22    21    2
    14    21    20   ar
    15    12    16    1
    16    17    16    1
    17    17    18   ar
    18    13    15    1
    19    13    14    1
    20    16    15    1
    21     7     5    2
    22    20    18   ar
    23    20    26    1
    24     8     5    1
    25    18    19    2
    26    14     5    1
    27     5     6    1
