@<TRIPOS>MOLECULE
5nul_FMN_A_1.pdb
 31 33 0 0 0
SMALL
GASTEIGER

@<TRIPOS>ATOM
      1  N1        27.2070   14.1800   15.6750 N.2   139  FMN139     -0.2890
      2  C2        27.2990   13.9030   17.0030 C.1   139  FMN139      0.3669
      3  O2        26.3190   13.6360   17.6650 O.2   139  FMN139     -0.1744
      4  N3        28.5500   13.9210   17.6030 N.2   139  FMN139     -0.2300
      5  C4        29.7490   14.0890   16.9400 C.1   139  FMN139      0.2513
      6  O4        30.8230   14.0300   17.5230 O.2   139  FMN139     -0.2057
      7  C4A       29.6470   14.3450   15.4940 C.2   139  FMN139      0.2700
      8  N5        30.7400   14.5060   14.7580 N.2   139  FMN139     -0.3878
      9  C5A       30.6060   14.6500   13.3770 C.2   139  FMN139      0.1320
     10  C6        31.7570   14.7240   12.5430 C.2   139  FMN139      0.0250
     11  C7        31.6410   14.9650   11.1900 C.2   139  FMN139     -0.0238
     12  C7M       32.8450   15.1030   10.3120 C.3   139  FMN139      0.0308
     13  C8        30.3340   15.0980   10.5930 C.2   139  FMN139     -0.0280
     14  C8M       30.1540   15.4380    9.1190 C.3   139  FMN139      0.0304
     15  C9        29.2070   14.9380   11.3810 C.2   139  FMN139     -0.0041
     16  C9A       29.3130   14.7480   12.7630 C.3   139  FMN139      0.1497
     17  N10       28.1970   14.5630   13.5880 N.pl3 139  FMN139     -0.2691
     18  C10       28.2910   14.3730   14.9510 C.2   139  FMN139      0.2416
     19  C1'       26.8600   14.5320   12.9850 C.3   139  FMN139      0.1294
     20  C2'       26.2980   15.9360   12.7420 C.3   139  FMN139      0.2044
     21  O2'       26.3680   16.7390   13.9240 O.3   139  FMN139     -0.2185
     22  C3'       24.8340   15.8180   12.2890 C.3   139  FMN139      0.2164
     23  O3'       24.7740   15.1190   11.0380 O.3   139  FMN139     -0.2175
     24  C4'       24.0910   17.1560   12.1670 C.3   139  FMN139      0.2147
     25  O4'       22.7230   16.9010   11.8340 O.3   139  FMN139     -0.2176
     26  C5'       24.7270   18.0200   11.0700 C.3   139  FMN139      0.1892
     27  O5'       24.1310   19.3130   11.0680 O.3   139  FMN139     -0.2674
     28  P         24.5140   20.3270    9.9330 P.3   139  FMN139      0.5327
     29  O1P       25.9870   20.3340    9.8640 O.3   139  FMN139     -0.1145
     30  O2P       23.8950   21.5780   10.3830 O.3   139  FMN139     -0.1145
     31  O3P       23.8880   19.9800    8.5910 O.2   139  FMN139     -0.2224
@<TRIPOS>BOND
     1    31    28    2
     2    14    13    1
     3    29    28    1
     4    28    30    1
     5    28    27    1
     6    12    11    1
     7    13    11    1
     8    13    15    2
     9    23    22    1
    10    27    26    1
    11    26    24    1
    12    11    10    2
    13    15    16    1
    14    25    24    1
    15    24    22    1
    16    22    20    1
    17    10     9    1
    18    20    19    1
    19    20    21    1
    20    16     9    1
    21    16    17    1
    22    19    17    1
    23     9     8    2
    24    17    18    1
    25     8     7    2
    26    18     7    1
    27    18     1    2
    28     7     5    1
    29     1     2    2
    30     5     6    2
    31     5     4    2
    32     2     4    2
    33     2     3    2
