@<TRIPOS>MOLECULE
5p21_GNP_A_1.pdb
 32 34 0 0 0
SMALL
GASTEIGER

@<TRIPOS>ATOM
      1  PG         5.1130   32.2230   21.9940 P.3   167  GNP167      0.4884
      2  O1G        4.8440   32.5960   23.3900 O.3   167  GNP167     -0.1240
      3  O2G        4.2030   32.9100   21.1120 O.2   167  GNP167     -0.2331
      4  O3G        4.6400   30.7690   21.8020 O.3   167  GNP167     -0.1240
      5  N3B        6.7010   32.3030   21.6210 N.3   167  GNP167     -0.0163
      6  PB         7.3100   32.0340   20.1110 P.3   167  GNP167      0.4669
      7  O1B        7.4680   30.6050   19.7910 O.3   167  GNP167     -0.1253
      8  O2B        6.6960   32.7750   19.0210 O.2   167  GNP167     -0.2351
      9  O3A        8.7920   32.6430   20.1520 O.3   167  GNP167     -0.2360
     10  PA         9.2800   34.1400   19.7100 P.3   167  GNP167      0.2220
     11  O1A        9.2630   34.2680   18.2200 O.2   167  GNP167     -0.5170
     12  O2A        8.5940   35.1730   20.5100 O.3   167  GNP167     -0.4370
     13  O5'       10.8260   34.0560   20.1320 O.3   167  GNP167     -0.3111
     14  C5'       11.1700   33.9110   21.5350 C.3   167  GNP167      0.1813
     15  C4'       12.5870   34.4450   21.8110 C.3   167  GNP167      0.1799
     16  O4'       13.5600   33.6490   21.0950 O.3   167  GNP167     -0.3326
     17  C3'       12.8130   35.9100   21.3590 C.3   167  GNP167      0.2158
     18  O3'       13.7930   36.5380   22.2210 O.3   167  GNP167     -0.2175
     19  C2'       13.3250   35.6790   19.9470 C.3   167  GNP167      0.2310
     20  O2'       14.1510   36.7500   19.4990 O.3   167  GNP167     -0.2158
     21  C1'       14.2420   34.4780   20.1560 C.3   167  GNP167      0.2293
     22  N9        14.4540   33.7390   18.8960 N.pl3 167  GNP167     -0.2354
     23  C8        13.5180   33.2620   17.9930 C.3   167  GNP167      0.2246
     24  N7        14.0160   32.6360   16.9790 N.2   167  GNP167     -0.2322
     25  C5        15.4130   32.6940   17.2000 C.2   167  GNP167      0.2182
     26  C6        16.5210   32.2190   16.4020 C.1   167  GNP167      0.2372
     27  O6        16.5070   31.5910   15.3380 O.2   167  GNP167     -0.2069
     28  N1        17.7350   32.5030   16.9950 N.2   167  GNP167     -0.2485
     29  C2        17.9090   33.0820   18.2360 C.1   167  GNP167      0.2531
     30  N2        19.1730   33.2800   18.6580 N.pl3 167  GNP167     -0.0226
     31  N3        16.8840   33.4980   18.9960 N.2   167  GNP167     -0.3074
     32  C4        15.6750   33.3310   18.3980 C.2   167  GNP167      0.2300
@<TRIPOS>BOND
     1    27    26    2
     2    26    28    2
     3    26    25    1
     4    24    25    2
     5    24    23    1
     6    28    29    2
     7    25    32    1
     8    23    22    1
     9    11    10    2
    10    29    30    1
    11    29    31    2
    12    32    22    1
    13    32    31    2
    14    22    21    1
    15     8     6    2
    16    20    19    1
    17    10    13    1
    18    10     9    1
    19    10    12    1
    20     7     6    1
    21    19    21    1
    22    19    17    1
    23     6     9    1
    24     6     5    1
    25    13    14    1
    26    21    16    1
    27    16    15    1
    28     3     1    2
    29    17    15    1
    30    17    18    1
    31    14    15    1
    32     5     1    1
    33     4     1    1
    34     1     2    1
