@<TRIPOS>MOLECULE
5p2p_DHG_A_1.pdb
 28 27 0 0 0
SMALL
GASTEIGER

@<TRIPOS>ATOM
      1  C1       -20.6290  -23.8870  -16.2040 C.2   126  DHG126      0.2414
      2  C2       -19.8670  -24.0330  -17.5540 C.3   126  DHG126      0.0868
      3  C3       -19.9400  -22.7360  -18.3630 C.3   126  DHG126      0.0096
      4  C4       -21.3630  -22.1700  -18.5120 C.3   126  DHG126      0.0005
      5  C5       -21.5710  -20.7030  -18.2550 C.3   126  DHG126      0.0000
      6  C6       -22.0690  -19.9380  -19.4570 C.3   126  DHG126      0.0000
      7  C7       -22.5060  -18.4340  -19.2250 C.3   126  DHG126      0.0000
      8  C8       -22.1790  -17.9140  -17.8120 C.3   126  DHG126      0.0000
      9  C9       -21.3300  -16.6130  -17.8300 C.3   126  DHG126      0.0000
     10  C10      -21.2120  -16.0290  -16.4080 C.3   126  DHG126      0.0000
     11  C11      -22.5580  -15.8890  -15.8030 C.3   126  DHG126      0.0000
     12  C12      -22.5050  -16.4280  -14.4610 C.3   126  DHG126      0.0000
     13  O1       -21.8250  -24.2650  -15.9750 O.2   126  DHG126     -0.2733
     14  N        -19.8250  -23.2640  -15.2310 N.am  126  DHG126     -0.2046
     15  CH1      -19.3900  -23.8400  -12.8630 C.3   126  DHG126      0.1706
     16  CH2      -20.3070  -23.0010  -13.8400 C.3   126  DHG126      0.1252
     17  CH3      -20.3100  -21.4750  -13.6820 C.3   126  DHG126      0.0243
     18  CH4      -21.5680  -20.8450  -14.2490 C.3   126  DHG126      0.0018
     19  CH5      -22.7010  -20.9310  -13.2480 C.3   126  DHG126      0.0001
     20  CH6      -23.9560  -20.5620  -13.9040 C.3   126  DHG126      0.0000
     21  O1P      -21.5960  -25.0230  -10.1050 O.3   126  DHG126     -0.4373
     22  O2P      -22.0560  -25.5660  -12.5570 O.2   126  DHG126     -0.5172
     23  O3P      -20.1260  -23.9940  -11.7880 O.3   126  DHG126     -0.3122
     24  P        -21.0880  -25.1970  -11.4870 P.3   126  DHG126      0.2141
     25  OG1      -19.9720  -26.2280  -11.2750 O.3   126  DHG126     -0.3112
     26  CG1      -19.2200  -26.2100  -10.1400 C.3   126  DHG126      0.1846
     27  CG2      -18.9920  -27.5500   -9.5420 C.3   126  DHG126      0.2145
     28  OG2      -18.0830  -28.2230  -10.3090 O.3   126  DHG126     -0.2176
@<TRIPOS>BOND
     1     6     7    1
     2     6     5    1
     3     7     8    1
     4     4     3    1
     5     4     5    1
     6     3     2    1
     7     9     8    1
     8     9    10    1
     9     2     1    1
    10    10    11    1
    11     1    13    2
    12     1    14   am
    13    11    12    1
    14    14    16    1
    15    18    17    1
    16    18    19    1
    17    20    19    1
    18    16    17    1
    19    16    15    1
    20    15    23    1
    21    22    24    2
    22    23    24    1
    23    24    25    1
    24    24    21    1
    25    25    26    1
    26    28    27    1
    27    26    27    1
