@<TRIPOS>MOLECULE
5pad_III_I_1.pdb
 30 31 0 0 0
SMALL
GASTEIGER

@<TRIPOS>ATOM
      1  C1         5.3610   28.0860   15.3390 C.2     1  PHQ1        0.4219
      2  O1         6.2440   27.2170   15.0960 O.2     1  PHQ1       -0.2245
      3  O2         4.1060   28.1460   14.6990 O.3     1  PHQ1       -0.4285
      4  C2         3.2500   27.3750   15.5210 C.3     1  PHQ1        0.2368
      5  C3         1.8600   27.9980   15.5230 C.ar    1  PHQ1        0.0213
      6  C4         1.3640   28.7880   14.4640 C.ar    1  PHQ1       -0.0007
      7  C5         0.0760   29.4130   14.6650 C.ar    1  PHQ1       -0.0002
      8  C6        -0.6150   29.3450   15.8230 C.ar    1  PHQ1       -0.0000
      9  C7        -0.0680   28.5550   16.9320 C.ar    1  PHQ1       -0.0002
     10  C8         1.1710   27.9800   16.7300 C.ar    1  PHQ1       -0.0007
     11  N          5.4840   28.8530   16.4250 N.am    2  GLY2       -0.1587
     12  CA         6.6900   28.7980   17.2650 C.3     2  GLY2        0.2049
     13  C          7.9930   29.3140   16.5940 C.2     2  GLY2        0.2640
     14  O          8.0410   29.8430   15.3840 O.2     2  GLY2       -0.2714
     15  N          9.1490   29.2570   17.2840 N.am    3  PHE3       -0.1959
     16  CA        10.5060   29.7810   17.0630 C.3     3  PHE3        0.1771
     17  C         11.2300   28.7030   16.1740 C.2     3  PHE3        0.2616
     18  O         11.0140   27.5140   16.6470 O.2     3  PHE3       -0.2715
     19  CB        11.1220   30.0430   18.4030 C.3     3  PHE3        0.0574
     20  CG        10.4990   31.2660   19.0880 C.ar    3  PHE3       -0.0200
     21  CD1       10.8160   32.5510   18.5130 C.ar    3  PHE3       -0.0042
     22  CD2        9.4550   31.1490   20.0000 C.ar    3  PHE3       -0.0042
     23  CE1       10.1900   33.6720   19.1000 C.ar    3  PHE3       -0.0003
     24  CE2        8.8290   32.2690   20.5370 C.ar    3  PHE3       -0.0003
     25  CZ         9.1470   33.6060   20.0610 C.ar    3  PHE3       -0.0000
     26  N         11.9240   28.9710   15.0130 N.am    4  GLY4       -0.2013
     27  CA        12.6000   27.9470   14.2740 C.3     4  GLY4        0.1479
     28  C         14.1040   28.0260   14.5090 C.3     4  GLY4        0.1736
     29  O         14.7330   27.0070   14.0200 O.3     4  GLY4       -0.2212
     30  C1        14.9270   28.9750   15.2350 C.3     5  0QE5        0.0374
@<TRIPOS>BOND
     1    29    28    1
     2    27    28    1
     3    27    26    1
     4     6     7   ar
     5     6     5   ar
     6    28    30    1
     7     7     8   ar
     8     3     1    1
     9     3     4    1
    10    26    17   am
    11     2     1    2
    12     1    11   am
    13    14    13    2
    14     4     5    1
    15     5    10   ar
    16     8     9   ar
    17    17    18    2
    18    17    16    1
    19    11    12    1
    20    13    12    1
    21    13    15   am
    22    10     9   ar
    23    16    15    1
    24    16    19    1
    25    19    20    1
    26    21    20   ar
    27    21    23   ar
    28    20    22   ar
    29    23    25   ar
    30    22    24   ar
    31    25    24   ar
