@<TRIPOS>MOLECULE
5pah_LDP_A_1.pdb
 11 11 0 0 0
SMALL
GASTEIGER

@<TRIPOS>ATOM
      1  C7        -6.3040   25.0190    3.5310 C.3   600  LDP600      0.0469
      2  C1        -5.0490   25.2350    4.5000 C.ar  600  LDP600     -0.0173
      3  C4        -2.8220   25.6720    6.3810 C.ar  600  LDP600      0.2342
      4  C2        -3.6510   24.9220    4.0670 C.ar  600  LDP600      0.0412
      5  C6        -5.2650   25.7680    5.8930 C.ar  600  LDP600     -0.0007
      6  C5        -4.1810   25.9770    6.7950 C.ar  600  LDP600      0.0451
      7  C3        -2.5340   25.1380    5.0010 C.ar  600  LDP600      0.2339
      8  O1        -1.2280   24.8680    4.6590 O.3   600  LDP600     -0.2832
      9  O2        -1.8140   25.8900    7.2940 O.3   600  LDP600     -0.2831
     10  C8        -7.4680   26.1480    3.6820 C.3   600  LDP600      0.1140
     11  N1        -7.9880   26.2780    5.1070 N.3   600  LDP600     -0.1310
@<TRIPOS>BOND
     1     1    10    1
     2     1     2    1
     3    10    11    1
     4     4     2   ar
     5     4     7   ar
     6     2     5   ar
     7     8     7    1
     8     7     3   ar
     9     5     6   ar
    10     3     6   ar
    11     3     9    1
