@<TRIPOS>MOLECULE
5prc_ATZ_L_1.pdb
 14 14 0 0 0
SMALL
GASTEIGER

@<TRIPOS>ATOM
      1  N1       132.1360   70.9300   -2.6790 N.2   502  ATZ502     -0.2480
      2  C2       131.6490   69.8030   -2.2030 C.1   502  ATZ502      0.2271
      3 CL2       131.2140   69.8750   -0.5110 Cl    502  ATZ502      0.0258
      4  N3       131.4490   68.6260   -2.7890 N.2   502  ATZ502     -0.2480
      5  C4       131.8420   68.6520   -4.1050 C.1   502  ATZ502      0.2415
      6  N5       132.3550   69.7100   -4.7360 N.2   502  ATZ502     -0.2438
      7  C6       132.4800   70.8130   -3.9950 C.1   502  ATZ502      0.2416
      8  N7       131.7170   67.5200   -4.8420 N.pl3 502  ATZ502     -0.1524
      9  C8       131.1960   66.2100   -4.4520 C.3   502  ATZ502      0.1058
     10  C9       131.8540   65.6470   -3.1750 C.3   502  ATZ502      0.0243
     11  C10      129.6910   66.2090   -4.4660 C.3   502  ATZ502      0.0243
     12  N11      132.9920   71.9220   -4.5770 N.pl3 502  ATZ502     -0.1506
     13  C12      133.2070   73.2080   -3.9260 C.3   502  ATZ502      0.1263
     14  C13      133.8530   74.1130   -4.9060 C.3   502  ATZ502      0.0261
@<TRIPOS>BOND
     1    14    13    1
     2     8     9    1
     3     8     5    1
     4     6     5    2
     5     6     7    2
     6    12     7    1
     7    12    13    1
     8    11     9    1
     9     9    10    1
    10     5     4    2
    11     7     1    2
    12     4     2    2
    13     1     2    2
    14     2     3    1
