@<TRIPOS>MOLECULE
5prc_NS5_M_1.pdb
 40 39 0 0 0
SMALL
GASTEIGER

@<TRIPOS>ATOM
      1  C1       127.3830   48.7330   -8.1450 C.3   600  NS5600      0.0000
      2  CM1      128.6420   49.5710   -7.9950 C.3   600  NS5600      0.0000
      3  CM2      126.8560   48.8000   -9.5690 C.3   600  NS5600      0.0000
      4  C2       127.6330   47.2820   -7.7220 C.3   600  NS5600      0.0003
      5  C3       127.8180   47.0830   -6.2240 C.3   600  NS5600      0.0043
      6  C4       126.5240   47.3470   -5.4640 C.3   600  NS5600      0.0217
      7  C5       126.6910   47.2580   -3.9920 C.2   600  NS5600     -0.0482
      8  C6       127.3530   48.4280   -3.3530 C.3   600  NS5600      0.0260
      9  C7       126.1380   46.2560   -3.2840 C.2   600  NS5600     -0.0343
     10  C8       126.1870   46.1560   -1.8040 C.3   600  NS5600      0.0297
     11  C9       125.2360   45.0970   -1.2670 C.3   600  NS5600      0.0267
     12  C10      124.6130   45.5320    0.0390 C.2   600  NS5600     -0.0436
     13  C11      123.3580   46.3100   -0.0950 C.3   600  NS5600      0.0264
     14  C12      125.2960   45.4180    1.2020 C.2   600  NS5600     -0.0085
     15  C13      124.8870   45.8420    2.5300 C.2   600  NS5600     -0.0010
     16  C14      124.6370   47.1130    2.8890 C.2   600  NS5600     -0.0043
     17  C15      124.3300   47.5760    4.2180 C.2   600  NS5600     -0.0219
     18  C16      123.2170   48.5450    4.2400 C.3   600  NS5600      0.0310
     19  C17      125.1950   47.4520    5.2460 C.2   600  NS5600     -0.0046
     20  C18      125.0670   48.1510    6.4820 C.2   600  NS5600     -0.0049
     21  C19      125.8570   48.1790    7.5650 C.2   600  NS5600     -0.0258
     22  C20      126.9320   47.3080    7.9340 C.3   600  NS5600      0.0304
     23  C21      127.7490   47.6010    8.9760 C.3   600  NS5600      0.0264
     24  C22      127.8030   48.9490    9.5830 C.3   600  NS5600      0.0050
     25  C23      128.4970   46.5480    9.7030 C.2   600  NS5600     -0.0261
     26  C24      129.7140   46.7120   10.2590 C.2   600  NS5600     -0.0049
     27  C25      130.5870   45.6370   10.6950 C.2   600  NS5600     -0.0046
     28  C26      131.9190   45.6790   10.8650 C.2   600  NS5600     -0.0222
     29  C27      132.7140   46.9210   10.6970 C.3   600  NS5600      0.0310
     30  C28      132.6420   44.5330   11.4070 C.2   600  NS5600     -0.0088
     31  C29      133.9780   44.5510   11.5910 C.2   600  NS5600     -0.0265
     32  C30      134.8460   43.4650   12.0850 C.3   600  NS5600      0.0260
     33  C31      136.1840   43.5270   12.3650 C.3   600  NS5600      0.0047
     34  C32      137.0590   44.7100   11.9930 C.3   600  NS5600      0.0004
     35  C33      136.8140   42.5390   13.3490 C.3   600  NS5600      0.0050
     36  C34      137.2880   41.2740   12.6550 C.3   600  NS5600      0.0254
     37  C35      137.7490   40.2630   13.6370 C.2   600  NS5600     -0.0346
     38  C36      138.1750   39.0270   13.3200 C.2   600  NS5600     -0.0478
     39  CM3      138.3880   38.5850   11.9190 C.3   600  NS5600      0.0260
     40  CM4      138.5430   38.0290   14.3530 C.3   600  NS5600      0.0260
@<TRIPOS>BOND
     1     3     1    1
     2     1     2    1
     3     1     4    1
     4     4     5    1
     5     5     6    1
     6     6     7    1
     7     7     8    1
     8     7     9    2
     9     9    10    1
    10    10    11    1
    11    11    12    1
    12    13    12    1
    13    12    14    2
    14    14    15    1
    15    15    16    2
    16    16    17    1
    17    17    18    1
    18    17    19    2
    19    19    20    1
    20    20    21    2
    21    21    22    1
    22    22    23    1
    23    23    24    1
    24    23    25    1
    25    25    26    2
    26    26    27    1
    27    27    28    2
    28    29    28    1
    29    28    30    1
    30    30    31    2
    31    31    32    1
    32    39    38    1
    33    34    33    1
    34    32    33    1
    35    33    35    1
    36    36    35    1
    37    36    37    1
    38    38    37    2
    39    38    40    1
