@<TRIPOS>MOLECULE
5prc_MQ7_M_1.pdb
 48 49 0 0 0
SMALL
GASTEIGER

@<TRIPOS>ATOM
      1  C1       125.4460   82.2380    7.7900 C.2   501  MQ7501      0.1915
      2  O1       125.5800   81.4690    6.8340 O.2   501  MQ7501     -0.2869
      3  C2       124.5800   81.9040    8.9060 C.2   501  MQ7501      0.0165
      4  C2M      123.6810   80.6930    8.7560 C.3   501  MQ7501      0.0342
      5  C3       124.6300   82.6280   10.0610 C.2   501  MQ7501      0.0202
      6  C4       125.5120   83.7570   10.1530 C.2   501  MQ7501      0.1918
      7  O4       125.5710   84.3850   11.2030 O.2   501  MQ7501     -0.2869
      8  C5       126.3770   84.0860    9.0480 C.ar  501  MQ7501      0.0417
      9  C6       127.2620   85.1450    9.1640 C.ar  501  MQ7501      0.0033
     10  C7       128.1210   85.4360    8.1390 C.ar  501  MQ7501      0.0001
     11  C8       128.0940   84.6760    7.0040 C.ar  501  MQ7501      0.0001
     12  C9       127.2080   83.6340    6.8980 C.ar  501  MQ7501      0.0033
     13  C10      126.3530   83.3470    7.9200 C.ar  501  MQ7501      0.0417
     14  C11      123.8510   82.2130   11.2680 C.3   501  MQ7501      0.0547
     15  C12      124.6360   81.3920   12.1490 C.2   501  MQ7501     -0.0298
     16  C13      125.2260   81.5110   13.3870 C.2   501  MQ7501     -0.0475
     17  C14      125.2170   82.7550   14.2180 C.3   501  MQ7501      0.0260
     18  C15      125.9570   80.3350   14.0190 C.3   501  MQ7501      0.0264
     19  C16      125.1560   80.0320   15.2850 C.3   501  MQ7501      0.0297
     20  C17      123.8600   79.4730   14.9880 C.2   501  MQ7501     -0.0342
     21  C18      123.2660   78.2580   15.3130 C.2   501  MQ7501     -0.0478
     22  C19      123.8620   77.1140   16.1490 C.3   501  MQ7501      0.0260
     23  C20      121.8900   77.8930   14.8450 C.3   501  MQ7501      0.0263
     24  C21      121.0200   77.9680   16.0640 C.3   501  MQ7501      0.0297
     25  C22      120.7120   79.2970   16.3890 C.2   501  MQ7501     -0.0342
     26  C23      120.1360   79.6420   17.5920 C.2   501  MQ7501     -0.0478
     27  C24      119.8680   78.6030   18.6430 C.3   501  MQ7501      0.0260
     28  C25      119.7710   81.0350   17.9960 C.3   501  MQ7501      0.0263
     29  C26      118.3590   80.9630   18.5070 C.3   501  MQ7501      0.0297
     30  C27      118.0160   82.2720   18.8640 C.2   501  MQ7501     -0.0342
     31  C28      116.8370   82.9800   18.6990 C.2   501  MQ7501     -0.0478
     32  C29      115.5680   82.4240   18.0210 C.3   501  MQ7501      0.0260
     33  C30      116.7480   84.4170   19.1890 C.3   501  MQ7501      0.0263
     34  C31      115.7930   84.6250   20.3580 C.3   501  MQ7501      0.0297
     35  C32      115.5570   86.0610   20.5930 C.2   501  MQ7501     -0.0342
     36  C33      114.3770   86.7820   20.7930 C.2   501  MQ7501     -0.0478
     37  C34      112.9640   86.1650   20.8260 C.3   501  MQ7501      0.0260
     38  C35      114.2880   88.3140   20.9620 C.3   501  MQ7501      0.0263
     39  C36      113.8340   88.9860   19.6510 C.3   501  MQ7501      0.0297
     40  C37      113.7540   90.4320   19.8880 C.2   501  MQ7501     -0.0342
     41  C38      112.8530   91.3460   19.3460 C.2   501  MQ7501     -0.0478
     42  C39      111.7750   90.9000   18.3360 C.3   501  MQ7501      0.0260
     43  C40      112.8390   92.8390   19.6560 C.3   501  MQ7501      0.0263
     44  C41      112.2150   93.2750   20.9770 C.3   501  MQ7501      0.0297
     45  C42      113.1820   92.8210   21.9650 C.2   501  MQ7501     -0.0342
     46  C43      113.2030   92.3280   23.2700 C.2   501  MQ7501     -0.0478
     47  C44      111.9910   92.0920   24.1930 C.3   501  MQ7501      0.0260
     48  C45      114.5380   91.9380   23.9360 C.3   501  MQ7501      0.0260
@<TRIPOS>BOND
     1     2     1    2
     2    12    11   ar
     3    12    13   ar
     4    11    10   ar
     5     1    13    1
     6     1     3    1
     7    13     8   ar
     8    10     9   ar
     9     4     3    1
    10     3     5    2
    11     8     9   ar
    12     8     6    1
    13     5     6    1
    14     5    14    1
    15     6     7    2
    16    14    15    1
    17    15    16    2
    18    16    18    1
    19    16    17    1
    20    18    19    1
    21    23    21    1
    22    23    24    1
    23    20    19    1
    24    20    21    2
    25    21    22    1
    26    24    25    1
    27    25    26    2
    28    26    28    1
    29    26    27    1
    30    28    29    1
    31    32    31    1
    32    42    41    1
    33    29    30    1
    34    31    30    2
    35    31    33    1
    36    33    34    1
    37    41    43    1
    38    41    40    2
    39    39    40    1
    40    39    38    1
    41    43    44    1
    42    34    35    1
    43    35    36    2
    44    36    37    1
    45    36    38    1
    46    44    45    1
    47    45    46    2
    48    46    48    1
    49    46    47    1
