@<TRIPOS>MOLECULE
5prc_HEM_C_1.pdb
 43 50 0 0 0
SMALL
GASTEIGER

@<TRIPOS>ATOM
      1  CHA       79.4800    9.5900   18.1440 C.2   337  HEM337      0.0000
      2  CHB       75.8250   10.5030   15.0600 C.2   337  HEM337      0.0000
      3  CHC       78.6810   13.4270   12.5290 C.2   337  HEM337      0.0000
      4  CHD       82.3840   12.3600   15.4690 C.2   337  HEM337      0.0000
      5  C1A       78.2500    9.5320   17.4730 C.ar  337  HEM337      0.0000
      6  C2A       77.1330    8.6770   17.8380 C.ar  337  HEM337      0.0000
      7  C3A       76.0700    9.0760   17.1050 C.ar  337  HEM337      0.0000
      8  C4A       76.5730    9.9870   16.1090 C.ar  337  HEM337      0.0000
      9  CMA       74.6240    8.5960   17.2880 C.3   337  HEM337      0.0000
     10  CAA       77.1000    7.5220   18.8290 C.3   337  HEM337      0.0000
     11  CBA       77.5230    6.2120   18.1860 C.3   337  HEM337      0.0000
     12  CGA       77.9430    5.2020   19.2120 C.2   337  HEM337      0.0000
     13  O1A       79.1000    5.2800   19.6780 O.co2 337  HEM337      0.0000
     14  O2A       77.0920    4.3840   19.6140 O.co2 337  HEM337      0.0000
     15  C1B       76.2980   11.3860   14.1000 C.2   337  HEM337      0.0000
     16  C2B       75.5070   11.9320   13.0230 C.2   337  HEM337      0.0000
     17  C3B       76.2670   12.8390   12.3980 C.2   337  HEM337      0.0000
     18  C4B       77.5810   12.7470   12.9720 C.2   337  HEM337      0.0000
     19  CMB       74.0670   11.5980   12.6810 C.3   337  HEM337      0.0000
     20  CAB       76.0070   13.8670   11.3680 C.3   337  HEM337      0.0000
     21  CBB       74.8140   14.7040   11.7820 C.3   337  HEM337      0.0000
     22  C1C       79.9290   13.3830   13.1090 C.ar  337  HEM337      0.0000
     23  C2C       81.0780   14.0420   12.5730 C.ar  337  HEM337      0.0000
     24  C3C       82.1330   13.6530   13.3130 C.ar  337  HEM337      0.0000
     25  C4C       81.6200   12.8660   14.4130 C.ar  337  HEM337      0.0000
     26  CMC       80.9630   14.9290   11.3270 C.3   337  HEM337      0.0000
     27  CAC       83.6060   13.9110   13.1460 C.3   337  HEM337      0.0000
     28  CBC       83.9540   15.3760   12.9370 C.3   337  HEM337      0.0000
     29  C1D       81.9090   11.5620   16.5110 C.2   337  HEM337      0.0000
     30  C2D       82.6660   11.1560   17.6900 C.2   337  HEM337      0.0000
     31  C3D       81.8220   10.4450   18.4760 C.2   337  HEM337      0.0000
     32  C4D       80.5740   10.3490   17.7590 C.2   337  HEM337      0.0000
     33  CMD       84.1150   11.4740   18.0790 C.3   337  HEM337      0.0000
     34  CAD       82.1520    9.9220   19.8730 C.3   337  HEM337      0.0000
     35  CBD       81.6300   10.9420   20.8710 C.3   337  HEM337      0.0000
     36  CGD       82.0600   10.6740   22.2960 C.2   337  HEM337      0.0000
     37  O1D       81.3420   11.1150   23.2230 O.co2 337  HEM337      0.0000
     38  O2D       83.1090   10.0260   22.5050 O.co2 337  HEM337      0.0000
     39  NA        77.9120   10.2550   16.3490 N.ar  337  HEM337      0.0000
     40  NB        77.5750   11.9000   14.0500 N.2   337  HEM337      0.0000
     41  NC        80.2670   12.6770   14.2350 N.ar  337  HEM337      0.0000
     42  ND        80.6080   11.1260   16.6200 N.2   337  HEM337      0.0000
     43 FE         79.0730   11.5130   15.2930 Fe    337  HEM337      0.0000
@<TRIPOS>BOND
     1    26    23    1
     2    20    21    1
     3    20    17    1
     4    17    18    1
     5    17    16    2
     6     3    18    2
     7     3    22    1
     8    23    22   ar
     9    23    24   ar
    10    19    16    1
    11    28    27    1
    12    18    40    1
    13    16    15    1
    14    22    41   ar
    15    27    24    1
    16    24    25   ar
    17    40    15    2
    18    40    43    1
    19    15     2    1
    20    41    25   ar
    21    41    43    1
    22    25     4    1
    23     2     8    2
    24    43    39    1
    25    43    42    1
    26     4    29    2
    27     8    39   ar
    28     8     7   ar
    29    39     5   ar
    30    29    42    1
    31    29    30    1
    32    42    32    2
    33     7     9    1
    34     7     6   ar
    35     5     6   ar
    36     5     1    2
    37    30    33    1
    38    30    31    2
    39    32     1    1
    40    32    31    1
    41     6    10    1
    42    11    10    1
    43    11    12    1
    44    31    34    1
    45    12    14   ar
    46    12    13   ar
    47    34    35    1
    48    35    36    1
    49    36    38   ar
    50    36    37   ar
