@<TRIPOS>MOLECULE
5prn_C8E_A_1.pdb
 21 20 0 0 0
SMALL
GASTEIGER

@<TRIPOS>ATOM
      1  C1         4.3410   59.8470   44.5040 C.3   290  C8E290      0.0000
      2  C2         3.2450   59.2230   43.7910 C.3   290  C8E290      0.0000
      3  C3         2.0250   59.0940   44.5660 C.3   290  C8E290      0.0000
      4  C4         2.0910   57.8710   45.3600 C.3   290  C8E290      0.0000
      5  C5         2.0660   58.3540   46.7720 C.3   290  C8E290      0.0001
      6  C6         0.9050   57.8570   47.4330 C.3   290  C8E290      0.0026
      7  C7         1.3440   57.9640   48.8070 C.3   290  C8E290      0.0321
      8  C8         0.2140   57.6820   49.6900 C.3   290  C8E290      0.1423
      9  O9         0.3450   57.2660   51.0310 O.3   290  C8E290     -0.3511
     10  C10        0.9740   58.0900   51.9760 C.3   290  C8E290      0.1741
     11  C11        1.1730   57.2980   53.2440 C.3   290  C8E290      0.1743
     12  O12       -0.0880   56.7210   53.7300 O.3   290  C8E290     -0.3471
     13  C13       -0.3680   55.3050   53.4460 C.3   290  C8E290      0.1894
     14  C14       -1.3450   54.7980   52.3420 C.3   290  C8E290      0.2376
     15  O15       -2.2120   53.6170   52.3150 O.2   290  C8E290     -0.4666
     16  C16       -1.6930   52.5850   51.4670 C.2   290  C8E290      0.2124
     17  C17       -1.7020   52.7990   49.9390 C.2   290  C8E290      0.2124
     18  O18       -1.4890   51.7900   48.9470 O.2   290  C8E290     -0.4665
     19  C19       -2.2670   50.5430   49.0510 C.3   290  C8E290      0.2411
     20  C20       -3.4920   50.1340   48.1380 C.3   290  C8E290      0.2292
     21  O21       -3.4890   50.5930   46.7590 O.3   290  C8E290     -0.2162
@<TRIPOS>BOND
     1     2     1    1
     2     2     3    1
     3     3     4    1
     4     4     5    1
     5    21    20    1
     6     5     6    1
     7     6     7    1
     8    20    19    1
     9     7     8    1
    10    18    19    1
    11    18    17    1
    12     8     9    1
    13    17    16    2
    14     9    10    1
    15    16    15    1
    16    10    11    1
    17    15    14    1
    18    14    13    1
    19    11    12    1
    20    13    12    1
