@<TRIPOS>MOLECULE
5r1r_III_P_1.pdb
 31 31 0 0 0
SMALL
GASTEIGER

@<TRIPOS>ATOM
      1  N         -4.3620   64.4320   31.6640 N.3     1  TYR1       -0.1227
      2  CA        -3.9670   63.5810   30.5240 C.3     1  TYR1        0.1736
      3  C         -3.4790   64.2260   29.2280 C.2     1  TYR1        0.2595
      4  O         -3.7390   65.3390   28.8190 O.2     1  TYR1       -0.2718
      5  CB        -5.0140   62.5990   30.0940 C.3     1  TYR1        0.0548
      6  CG        -6.3930   62.9230   29.6710 C.ar    1  TYR1       -0.0200
      7  CD1       -7.3380   63.3970   30.5640 C.ar    1  TYR1       -0.0009
      8  CD2       -6.7790   62.6950   28.3610 C.ar    1  TYR1       -0.0009
      9  CE1       -8.6350   63.6640   30.1610 C.ar    1  TYR1        0.0417
     10  CE2       -8.0720   62.9600   27.9450 C.ar    1  TYR1        0.0417
     11  CZ        -8.9940   63.4380   28.8520 C.ar    1  TYR1        0.1957
     12  OH       -10.2800   63.6980   28.4170 O.3     1  TYR1       -0.2866
     13  N         -2.7970   63.3570   28.4790 N.am    2  LEU2       -0.1966
     14  CA        -2.1200   63.6720   27.2440 C.3     2  LEU2        0.1728
     15  C         -2.5190   62.9420   25.9800 C.2     2  LEU2        0.2616
     16  O         -1.6990   62.2270   25.3950 O.2     2  LEU2       -0.2715
     17  CB        -0.6530   63.3060   27.4820 C.3     2  LEU2        0.0311
     18  CG         0.5380   64.2230   27.4250 C.3     2  LEU2        0.0022
     19  CD1        1.3940   63.9020   26.2150 C.3     2  LEU2        0.0001
     20  CD2        0.1350   65.6840   27.4230 C.3     2  LEU2        0.0001
     21  N         -3.7250   63.0900   25.4780 N.am    3  VAL3       -0.1963
     22  CA        -4.2600   62.6000   24.2260 C.3     3  VAL3        0.1727
     23  C         -4.1800   61.1640   23.7660 C.2     3  VAL3        0.2616
     24  O         -5.2840   60.6490   23.4500 O.2     3  VAL3       -0.2715
     25  CB        -3.6230   63.5220   23.1210 C.3     3  VAL3        0.0290
     26  CG1       -3.7060   62.9940   21.7060 C.3     3  VAL3        0.0023
     27  CG2       -4.2660   64.8980   23.2420 C.3     3  VAL3        0.0023
     28  N         -3.0190   60.5700   23.4990 N.am    4  GLY4       -0.1955
     29  CA        -2.9400   59.2120   22.9800 C.3     4  GLY4        0.1869
     30  C         -2.9450   59.0230   21.4680 C.2     4  GLY4        0.2309
     31  O         -2.9130   57.8490   21.0060 O.2     4  GLY4       -0.2863
@<TRIPOS>BOND
     1    31    30    2
     2    30    29    1
     3    26    25    1
     4    29    28    1
     5    25    27    1
     6    25    22    1
     7    24    23    2
     8    28    23   am
     9    23    22    1
    10    22    21    1
    11    16    15    2
    12    21    15   am
    13    15    14    1
    14    19    18    1
    15    14    17    1
    16    14    13    1
    17    20    18    1
    18    18    17    1
    19    10     8   ar
    20    10    11   ar
    21     8     6   ar
    22    12    11    1
    23    13     3   am
    24     4     3    2
    25    11     9   ar
    26     3     2    1
    27     6     5    1
    28     6     7   ar
    29     5     2    1
    30     9     7   ar
    31     2     1    1
