@<TRIPOS>MOLECULE
5rhn_8BR_A_1.pdb
 24 26 0 0 0
SMALL
GASTEIGER

@<TRIPOS>ATOM
      1  P         11.6020    6.8980   60.9330 P.3   201  8BR201      0.5327
      2  O1P       10.5890    5.7810   60.8150 O.3   201  8BR201     -0.1145
      3  O2P       12.8170    6.8170   60.0420 O.2   201  8BR201     -0.2224
      4  O3P       11.8610    7.4120   62.3160 O.3   201  8BR201     -0.1145
      5  O5'       10.7840    8.1310   60.2880 O.3   201  8BR201     -0.2675
      6  C5'       10.4370    8.0960   58.8660 C.3   201  8BR201      0.1860
      7  C4'        9.2530    9.0050   58.6680 C.3   201  8BR201      0.1823
      8  O4'        9.3630    9.7460   57.4110 O.3   201  8BR201     -0.3132
      9  C3'        7.8740    8.2780   58.5930 C.3   201  8BR201      0.2185
     10  O3'        6.9680    8.8150   59.6170 O.3   201  8BR201     -0.2174
     11  C2'        7.3240    8.6070   57.1900 C.3   201  8BR201      0.2574
     12  O2'        5.9360    8.7090   57.0840 O.3   201  8BR201     -0.2130
     13  C1'        8.0870    9.9020   56.8970 C.3   201  8BR201      0.3238
     14  N9         8.2000   10.2370   55.4510 N.pl3 201  8BR201     -0.1123
     15  C8         8.9160    9.5240   54.4630 C.2   201  8BR201      0.3130
     16 BR8         9.7340    7.8660   54.6990 Br    201  8BR201      0.0337
     17  N7         8.9710   10.1840   53.3000 N.2   201  8BR201     -0.3444
     18  C5         8.3510   11.3520   53.5680 C.2   201  8BR201      0.3071
     19  C6         8.0430   12.4240   52.7510 C.2   201  8BR201      0.4517
     20  N6         8.3580   12.4410   51.4380 N.pl3 201  8BR201      0.2193
     21  N1         7.3840   13.4690   53.2850 N.2   201  8BR201      0.0030
     22  C2         6.9470   13.4440   54.6000 C.3   201  8BR201      0.5255
     23  N3         7.3770   12.5780   55.4640 N.2   201  8BR201     -0.0039
     24  C4         7.9220   11.4550   54.9400 C.2   201  8BR201      0.3694
@<TRIPOS>BOND
     1    20    19    1
     2    19    21    2
     3    19    18    1
     4    21    22    1
     5    17    18    2
     6    17    15    2
     7    18    24    1
     8    15    16    1
     9    15    14    1
    10    22    23    1
    11    24    14    1
    12    24    23    2
    13    14    13    1
    14    13    11    1
    15    13     8    1
    16    12    11    1
    17    11     9    1
    18     8     7    1
    19     9     7    1
    20     9    10    1
    21     7     6    1
    22     6     5    1
    23     3     1    2
    24     5     1    1
    25     2     1    1
    26     1     4    1
