@<TRIPOS>MOLECULE
5rnt_PGP_A_1.pdb
 28 30 0 0 0
SMALL
GASTEIGER

@<TRIPOS>ATOM
      1  P1        47.0610   19.9830    1.4490 P.3   105  PGP105      0.5327
      2  O4P       47.1480   21.5050    1.5590 O.3   105  PGP105     -0.1145
      3  O5P       47.0380   19.5200   -0.0650 O.2   105  PGP105     -0.2224
      4  O6P       48.5260   19.4570    1.9230 O.3   105  PGP105     -0.1145
      5  P         48.0260   18.0760    4.7910 P.3   105  PGP105      0.5327
      6  OP1       48.6320   19.5280    4.5390 O.3   105  PGP105     -0.1145
      7  OP2       47.6110   17.2380    3.5880 O.2   105  PGP105     -0.2224
      8  OP3       48.9630   17.1860    5.7280 O.3   105  PGP105     -0.1145
      9  O5'       46.8860   18.3170    5.8950 O.3   105  PGP105     -0.2675
     10  C5'       45.5100   18.0070    5.4440 C.3   105  PGP105      0.1858
     11  C4'       45.0420   19.2410    4.6750 C.3   105  PGP105      0.1774
     12  O4'       45.1450   20.2430    5.5960 O.3   105  PGP105     -0.3327
     13  C3'       45.9420   19.7610    3.5910 C.3   105  PGP105      0.1902
     14  O3'       45.9790   19.1360    2.3340 O.3   105  PGP105     -0.2674
     15  C2'       45.3660   21.2020    3.4770 C.3   105  PGP105      0.2283
     16  O2'       44.2180   21.1550    2.6150 O.3   105  PGP105     -0.2159
     17  C1'       45.2720   21.5340    4.9580 C.3   105  PGP105      0.2292
     18  N9        46.4860   22.2600    5.2930 N.pl3 105  PGP105     -0.2354
     19  C8        47.6450   21.7740    5.7480 C.3   105  PGP105      0.2246
     20  N7        48.5580   22.7320    5.9360 N.2   105  PGP105     -0.2322
     21  C5        47.9630   23.8650    5.5800 C.2   105  PGP105      0.2182
     22  C6        48.3760   25.2460    5.5290 C.1   105  PGP105      0.2372
     23  O6        49.4570   25.7680    5.8400 O.2   105  PGP105     -0.2069
     24  N1        47.3730   26.0580    5.0900 N.2   105  PGP105     -0.2485
     25  C2        46.0760   25.6200    4.7130 C.1   105  PGP105      0.2531
     26  N2        45.2380   26.6270    4.2950 N.pl3 105  PGP105     -0.0226
     27  N3        45.6780   24.3770    4.7350 N.2   105  PGP105     -0.3074
     28  C4        46.6640   23.5740    5.1800 C.2   105  PGP105      0.2300
@<TRIPOS>BOND
     1     3     1    2
     2     1     2    1
     3     1     4    1
     4     1    14    1
     5    14    13    1
     6    16    15    1
     7    15    13    1
     8    15    17    1
     9     7     5    2
    10    13    11    1
    11    26    25    1
    12     6     5    1
    13    11    10    1
    14    11    12    1
    15    25    27    2
    16    25    24    2
    17    27    28    2
    18     5     8    1
    19     5     9    1
    20    17    18    1
    21    17    12    1
    22    24    22    2
    23    28    18    1
    24    28    21    1
    25    18    19    1
    26    10     9    1
    27    22    21    1
    28    22    23    2
    29    21    20    2
    30    19    20    1
