@<TRIPOS>MOLECULE
5sga_III_P_1.pdb
 35 37 0 0 0
SMALL
GASTEIGER

@<TRIPOS>ATOM
      1  C        -22.2340   28.1820   20.9350 C.2     5  ACE5        0.2264
      2  O        -22.2780   27.6440   22.0560 O.2     5  ACE5       -0.2748
      3  CH3      -23.2060   29.2530   20.5280 C.3     5  ACE5        0.0948
      4  N        -21.3290   27.8500   19.9940 N.am    4  PRO4       -0.2729
      5  CA       -20.4070   26.7380   20.2730 C.3     4  PRO4        0.1535
      6  C        -19.4830   27.1430   21.3940 C.2     4  PRO4        0.2598
      7  O        -19.2240   28.3620   21.6610 O.2     4  PRO4       -0.2715
      8  CB       -19.7540   26.4790   18.9240 C.3     4  PRO4        0.0310
      9  CG       -19.7280   27.8290   18.2500 C.3     4  PRO4        0.0237
     10  CD       -21.0230   28.5210   18.7080 C.3     4  PRO4        0.0939
     11  N        -18.9970   26.1280   22.0820 N.am    3  ALA3       -0.1964
     12  CA       -18.0750   26.2960   23.2250 C.3     3  ALA3        0.1713
     13  C        -17.0730   25.1560   23.2480 C.2     3  ALA3        0.2458
     14  O        -17.3630   24.0330   22.7670 O.2     3  ALA3       -0.2730
     15  CB       -18.8760   26.2630   24.5290 C.3     3  ALA3        0.0333
     16  N        -15.9170   25.4570   23.8430 N.am    2  PRO2       -0.2716
     17  CA       -14.8550   24.4570   23.9320 C.3     2  PRO2        0.1536
     18  C        -15.2970   23.3960   24.9200 C.2     2  PRO2        0.2599
     19  O        -15.8400   23.7690   26.0030 O.2     2  PRO2       -0.2715
     20  CB       -13.6140   25.2030   24.3830 C.3     2  PRO2        0.0310
     21  CG       -13.9950   26.6610   24.4830 C.3     2  PRO2        0.0237
     22  CD       -15.5170   26.7550   24.4220 C.3     2  PRO2        0.0939
     23  N        -15.1050   22.1410   24.5720 N.am    1  TYR1       -0.1938
     24  CA       -15.4740   21.0880   25.5450 C.3     1  TYR1        0.2021
     25  C        -14.2210   20.7060   26.3850 C.2     1  TYR1        0.3845
     26  O        -14.2230   19.5250   26.8890 O.co2   1  TYR1       -0.2437
     27  CB       -16.1060   19.9370   24.8030 C.3     1  TYR1        0.0596
     28  CG       -17.4850   20.2010   24.2590 C.ar    1  TYR1       -0.0197
     29  CD1      -18.3610   21.1220   24.8310 C.ar    1  TYR1       -0.0009
     30  CD2      -17.9120   19.4530   23.1600 C.ar    1  TYR1       -0.0009
     31  CE1      -19.6540   21.3210   24.2960 C.ar    1  TYR1        0.0417
     32  CE2      -19.1900   19.6410   22.6200 C.ar    1  TYR1        0.0417
     33  CZ       -20.0550   20.5680   23.2070 C.ar    1  TYR1        0.1957
     34  OH       -21.2940   20.6920   22.6250 O.3     1  TYR1       -0.2866
     35  OXT      -13.3160   21.5400   26.8150 O.co2   1  TYR1       -0.2437
@<TRIPOS>BOND
     1     9    10    1
     2     9     8    1
     3    10     4    1
     4     8     5    1
     5     4     5    1
     6     4     1   am
     7     5     6    1
     8     3     1    1
     9     1     2    2
    10     6     7    2
    11     6    11   am
    12    11    12    1
    13    32    30   ar
    14    32    33   ar
    15    34    33    1
    16    14    13    2
    17    30    28   ar
    18    33    31   ar
    19    12    13    1
    20    12    15    1
    21    13    16   am
    22    16    17    1
    23    16    22    1
    24    17    20    1
    25    17    18    1
    26    28    27    1
    27    28    29   ar
    28    31    29   ar
    29    20    21    1
    30    22    21    1
    31    23    18   am
    32    23    24    1
    33    27    24    1
    34    18    19    2
    35    24    25    1
    36    25    35   ar
    37    25    26   ar
