@<TRIPOS>MOLECULE
5tgl_HEE_A_1.pdb
 11 10 0 0 0
SMALL
GASTEIGER

@<TRIPOS>ATOM
      1  C1       -16.8530   17.1340   86.5410 C.3   270  HEE270      0.0809
      2  C2       -16.2900   18.2810   85.9440 C.3   270  HEE270      0.0095
      3  C3       -16.4390   19.3370   86.9970 C.3   270  HEE270      0.0005
      4  C4       -15.8870   20.5800   86.4100 C.3   270  HEE270      0.0000
      5  C5       -16.0090   21.6440   87.4200 C.3   270  HEE270      0.0000
      6  C6       -14.9120   22.5360   86.9830 C.3   270  HEE270      0.0000
      7  P        -17.1640   15.9990   85.5370 P.3   270  HEE270      0.2200
      8  O2P      -17.7200   14.6490   86.2770 O.3   270  HEE270     -0.3173
      9  O3P      -16.0120   15.7070   84.6880 O.3   270  HEE270     -0.1774
     10  C1'      -17.7510   13.3560   85.6730 C.3   270  HEE270      0.1487
     11  C2'      -18.1760   12.3570   86.7280 C.3   270  HEE270      0.0351
@<TRIPOS>BOND
     1     9     7    1
     2     7     8    1
     3     7     1    1
     4    10     8    1
     5    10    11    1
     6     2     1    1
     7     2     3    1
     8     4     3    1
     9     4     5    1
    10     6     5    1
