@<TRIPOS>MOLECULE
5tln_BAN_A_1.pdb
 23 23 0 0 0
SMALL
GASTEIGER

@<TRIPOS>ATOM
      1  OH1       52.3080   20.2090   -6.0410 O.3   322  BAN322     -0.4026
      2  N1        52.0920   19.3790   -4.8660 N.am  322  BAN322     -0.2025
      3  C1        53.1210   18.5310   -4.8890 C.2   322  BAN322      0.0955
      4  O1        54.0270   18.6030   -5.9340 O.2   322  BAN322     -0.5391
      5  CA2       53.2570   17.5800   -3.7590 C.3   322  BAN322      0.1275
      6  CB2       52.7250   17.9980   -2.6050 C.3   322  BAN322      0.0419
      7  CG2       53.4520   18.1170   -1.2700 C.ar  322  BAN322     -0.0213
      8  CD1       52.7090   17.7140   -0.2070 C.ar  322  BAN322     -0.0042
      9  CD2       54.7020   18.6320   -1.1320 C.ar  322  BAN322     -0.0042
     10  CE1       53.2590   17.7950    1.0050 C.ar  322  BAN322     -0.0003
     11  CE2       55.2460   18.7080    0.0740 C.ar  322  BAN322     -0.0003
     12  CZ2       54.5320   18.2770    1.1450 C.ar  322  BAN322     -0.0000
     13  C2        53.7830   16.2760   -3.6710 C.2   322  BAN322      0.2477
     14  O2        55.0360   16.1580   -3.6120 O.2   322  BAN322     -0.2729
     15  N3        52.7620   15.3060   -3.6670 N.am  322  BAN322     -0.1974
     16  CA3       53.2620   13.7940   -3.5870 C.3   322  BAN322      0.1728
     17  CB3       52.9030   13.1130   -2.4820 C.3   322  BAN322      0.0334
     18  C3        53.0410   13.2540   -4.9910 C.2   322  BAN322      0.2613
     19  O3        52.2520   14.0660   -5.6090 O.2   322  BAN322     -0.2715
     20  N4        53.6420   12.1120   -5.4960 N.am  322  BAN322     -0.2012
     21  CA4       53.3610   11.8090   -6.8700 C.3   322  BAN322      0.1506
     22  C4        53.9040   10.2230   -6.7880 C.3   322  BAN322      0.2054
     23  O4        53.0240    9.9590   -5.7980 O.3   322  BAN322     -0.2184
@<TRIPOS>BOND
     1    21    22    1
     2    21    20    1
     3    22    23    1
     4     1     2    1
     5     4     3    2
     6    19    18    2
     7    20    18   am
     8    18    16    1
     9     3     2   am
    10     3     5    1
    11     5    13    1
    12     5     6    1
    13    13    15   am
    14    13    14    2
    15    15    16    1
    16    16    17    1
    17     6     7    1
    18     7     9   ar
    19     7     8   ar
    20     9    11   ar
    21     8    10   ar
    22    11    12   ar
    23    10    12   ar
