@<TRIPOS>MOLECULE
5tmn_0PJ_E_1.pdb
 32 32 0 0 0
SMALL
GASTEIGER

@<TRIPOS>ATOM
      1  C1        49.7310   17.9210   -8.9170 C.2   317  0PJ317      0.4220
      2  O1        49.6240   16.7190   -9.0150 O.2   317  0PJ317     -0.2245
      3  O2        49.4360   18.7460   -9.8800 O.3   317  0PJ317     -0.4285
      4  C2        48.8800   18.2920  -11.1850 C.3   317  0PJ317      0.2368
      5  C3        47.5420   19.0400  -11.5680 C.ar  317  0PJ317      0.0213
      6  C4        46.4780   18.9750  -10.7030 C.ar  317  0PJ317     -0.0007
      7  C5        45.2480   19.5850  -10.9620 C.ar  317  0PJ317     -0.0002
      8  C6        45.1110   20.3000  -12.0940 C.ar  317  0PJ317     -0.0000
      9  C7        46.1540   20.4140  -12.9580 C.ar  317  0PJ317     -0.0002
     10  C8        47.3800   19.7700  -12.7250 C.ar  317  0PJ317     -0.0007
     11  N         50.1310   18.6280   -7.8860 N.am  317  0PJ317     -0.1565
     12  C         50.4440   17.9780   -6.7000 C.3   317  0PJ317      0.2238
     13  P         51.7310   18.9700   -6.1030 P.3   317  0PJ317      0.3472
     14  O11       51.5010   20.4720   -6.1370 O.3   317  0PJ317     -0.1484
     15  O21       53.0740   18.6410   -6.5730 O.2   317  0PJ317     -0.2668
     16  N1        51.7120   18.5170   -4.5090 N.3   317  0PJ317     -0.1352
     17  CA        52.8360   18.2290   -3.6390 C.3   317  0PJ317      0.1594
     18  C9        53.5300   16.8860   -3.9040 C.2   317  0PJ317      0.2582
     19  O         54.7570   16.7750   -3.8340 O.2   317  0PJ317     -0.2718
     20  CB        52.4730   18.3230   -2.1310 C.3   317  0PJ317      0.0273
     21  CG        53.7000   18.1610   -1.2410 C.3   317  0PJ317      0.0019
     22  CD1       54.6320   19.3710   -1.4350 C.3   317  0PJ317      0.0001
     23  CD2       53.2110   18.0830    0.2190 C.3   317  0PJ317      0.0001
     24  N2        52.7370   15.8850   -4.1940 N.am  317  0PJ317     -0.1944
     25  CA1       53.2020   14.5210   -4.4530 C.3   317  0PJ317      0.1978
     26  CC        52.3890   13.8360   -5.5240 C.2   317  0PJ317      0.3842
     27  O3        51.3250   14.3630   -5.9430 O.co2 317  0PJ317     -0.2437
     28  CB1       53.4490   13.6930   -3.1390 C.3   317  0PJ317      0.0333
     29  CG1       52.2500   13.4870   -2.2600 C.3   317  0PJ317      0.0023
     30 CD11       52.3400   12.1690   -1.5350 C.3   317  0PJ317      0.0001
     31 CD21       52.2510   14.5410   -1.1710 C.3   317  0PJ317      0.0001
     32  OXT       52.7910   12.7660   -6.0710 O.co2 317  0PJ317     -0.2437
@<TRIPOS>BOND
     1     9    10   ar
     2     9     8   ar
     3    10     5   ar
     4     8     7   ar
     5     5     4    1
     6     5     6   ar
     7     4     3    1
     8     7     6   ar
     9     3     1    1
    10     2     1    2
    11     1    11   am
    12    11    12    1
    13    12    13    1
    14    15    13    2
    15    14    13    1
    16    13    16    1
    17    32    26   ar
    18    27    26   ar
    19    26    25    1
    20    16    17    1
    21    25    24    1
    22    25    28    1
    23    24    18   am
    24    18    19    2
    25    18    17    1
    26    17    20    1
    27    28    29    1
    28    29    30    1
    29    29    31    1
    30    20    21    1
    31    22    21    1
    32    21    23    1
