@<TRIPOS>MOLECULE
5ukd_ADP_A_1.pdb
 27 29 0 0 0
SMALL
GASTEIGER

@<TRIPOS>ATOM
      1  PB        37.7910   64.6340  -11.7380 P.3   195  ADP195      0.5373
      2  O1B       38.2660   63.6010  -12.6650 O.2   195  ADP195     -0.2221
      3  O2B       38.8100   65.4410  -11.1310 O.3   195  ADP195     -0.1143
      4  O3B       36.7530   65.5720  -12.4630 O.3   195  ADP195     -0.1143
      5  PA        36.8700   64.0420   -8.9630 P.3   195  ADP195      0.2231
      6  O1A       38.0690   63.4640   -8.4080 O.3   195  ADP195     -0.4370
      7  O2A       36.5680   65.4140   -8.5870 O.2   195  ADP195     -0.5169
      8  O3A       36.9450   63.9480  -10.5500 O.3   195  ADP195     -0.2261
      9  O5'       35.6230   63.1110   -8.6540 O.3   195  ADP195     -0.3111
     10  C5'       34.2830   63.4380   -9.0860 C.3   195  ADP195      0.1813
     11  C4'       33.2870   62.9880   -8.0380 C.3   195  ADP195      0.1821
     12  O4'       33.3400   61.5830   -8.0730 O.3   195  ADP195     -0.3135
     13  C3'       33.6300   63.4250   -6.6250 C.3   195  ADP195      0.2184
     14  O3'       32.4490   63.6420   -5.8550 O.3   195  ADP195     -0.2174
     15  C2'       34.3660   62.2080   -6.1160 C.3   195  ADP195      0.2570
     16  O2'       34.2570   62.1060   -4.6630 O.3   195  ADP195     -0.2130
     17  C1'       33.6660   61.0490   -6.7990 C.3   195  ADP195      0.3186
     18  N9        34.5540   59.8750   -7.0070 N.pl3 195  ADP195     -0.1439
     19  C8        35.8680   59.8390   -7.3820 C.3   195  ADP195      0.3377
     20  N7        36.3010   58.6540   -7.6850 N.2   195  ADP195     -0.2095
     21  C5        35.2190   57.8490   -7.4510 C.2   195  ADP195      0.2526
     22  C6        35.0590   56.4360   -7.5060 C.2   195  ADP195      0.4393
     23  N6        36.0730   55.5680   -7.7620 N.pl3 195  ADP195      0.2180
     24  N1        33.8280   55.9440   -7.2390 N.2   195  ADP195      0.0021
     25  C2        32.8390   56.8060   -6.8970 C.3   195  ADP195      0.5254
     26  N3        32.9550   58.1190   -6.6870 N.2   195  ADP195     -0.0055
     27  C4        34.1650   58.5820   -7.0200 C.2   195  ADP195      0.3518
@<TRIPOS>BOND
     1     2     1    2
     2     4     1    1
     3     1     3    1
     4     1     8    1
     5     8     5    1
     6    10     9    1
     7    10    11    1
     8     5     9    1
     9     5     7    2
    10     5     6    1
    11    12    11    1
    12    12    17    1
    13    11    13    1
    14    23    22    1
    15    20    21    2
    16    20    19    1
    17    22    21    1
    18    22    24    2
    19    21    27    1
    20    19    18    1
    21    24    25    1
    22    27    18    1
    23    27    26    2
    24    18    17    1
    25    25    26    1
    26    17    15    1
    27    13    15    1
    28    13    14    1
    29    15    16    1
