@<TRIPOS>MOLECULE
5ukd_C5P_A_1.pdb
 21 22 0 0 0
SMALL
GASTEIGER

@<TRIPOS>ATOM
      1  O3P       37.3570   69.4750  -14.5070 O.3   196  C5P196     -0.1145
      2  P         38.5500   70.3310  -14.3960 P.3   196  C5P196      0.5327
      3  O1P       38.7270   71.0060  -13.0980 O.3   196  C5P196     -0.1145
      4  O2P       39.7890   69.4840  -14.7300 O.2   196  C5P196     -0.2224
      5  O5'       38.4080   71.4750  -15.4860 O.3   196  C5P196     -0.2675
      6  C5'       37.2860   72.4240  -15.4640 C.3   196  C5P196      0.1859
      7  C4'       37.2990   73.2930  -16.7030 C.3   196  C5P196      0.1801
      8  O4'       38.5250   74.0080  -16.6620 O.3   196  C5P196     -0.3320
      9  C3'       37.4100   72.5240  -18.0230 C.3   196  C5P196      0.2158
     10  O3'       36.1940   71.9550  -18.3980 O.3   196  C5P196     -0.2175
     11  C2'       37.7860   73.6720  -18.9370 C.3   196  C5P196      0.2319
     12  O2'       36.7050   74.5710  -19.1280 O.3   196  C5P196     -0.2157
     13  C1'       38.8930   74.2500  -18.0400 C.3   196  C5P196      0.2400
     14  N1        40.1620   73.6410  -18.3760 N.am  196  C5P196     -0.1778
     15  C2        40.8940   74.1760  -19.4410 C.1   196  C5P196      0.2756
     16  N3        42.1240   73.7300  -19.7720 N.2   196  C5P196     -0.3024
     17  C4        42.6990   72.6820  -19.1130 C.2   196  C5P196      0.2346
     18  C5        42.0530   72.2360  -18.0070 C.2   196  C5P196      0.0687
     19  C6        40.8890   72.6840  -17.5780 C.2   196  C5P196      0.0836
     20  O2        40.3210   75.1580  -20.1660 O.2   196  C5P196     -0.1925
     21  N4        43.8740   72.1650  -19.5350 N.pl3 196  C5P196     -0.0921
@<TRIPOS>BOND
     1    20    15    2
     2    16    15    2
     3    16    17    2
     4    21    17    1
     5    15    14   am
     6    12    11    1
     7    17    18    1
     8    11    13    1
     9    11     9    1
    10    10     9    1
    11    14    13    1
    12    14    19    1
    13    13     8    1
    14     9     7    1
    15    18    19    2
    16     7     8    1
    17     7     6    1
    18     5     6    1
    19     5     2    1
    20     4     2    2
    21     1     2    1
    22     2     3    1
