@<TRIPOS>MOLECULE
5ull_FMN_A_1.pdb
 31 33 0 0 0
SMALL
GASTEIGER

@<TRIPOS>ATOM
      1  N1        27.9350   14.2850   16.0200 N.2   139  FMN139     -0.2887
      2  C2        28.0650   14.0410   17.3530 C.1   139  FMN139      0.3669
      3  O2        27.1110   13.7600   18.0080 O.2   139  FMN139     -0.1744
      4  N3        29.3100   14.1270   17.9730 N.2   139  FMN139     -0.2300
      5  C4        30.4800   14.3760   17.2960 C.1   139  FMN139      0.2513
      6  O4        31.5650   14.3540   17.8730 O.2   139  FMN139     -0.2057
      7  C4A       30.3360   14.6440   15.8200 C.2   139  FMN139      0.2706
      8  N5        31.4140   14.8220   15.0590 N.2   139  FMN139     -0.3841
      9  C5A       31.2420   14.9040   13.6790 C.2   139  FMN139      0.1452
     10  C6        32.3840   14.9850   12.8240 C.2   139  FMN139      0.0252
     11  C7        32.2320   15.1500   11.4640 C.2   139  FMN139     -0.0375
     12  C7M       33.4170   15.2430   10.5490 C.3   139  FMN139      0.0268
     13  C8        30.9140   15.2210   10.9120 C.3   139  FMN139      0.0417
     14  C8M       30.6710   15.4750    9.4310 C.3   139  FMN139      0.0091
     15  C9        29.7980   15.0870   11.7240 C.2   139  FMN139     -0.0049
     16  C9A       29.9380   14.9310   13.1000 C.2   139  FMN139      0.0795
     17  N10       28.8430   14.7420   13.9210 N.pl3 139  FMN139     -0.2545
     18  C10       28.9840   14.5690   15.2830 C.2   139  FMN139      0.2449
     19  C1'       27.4990   14.6850   13.3230 C.3   139  FMN139      0.1336
     20  C2'       26.8990   16.0660   13.0200 C.3   139  FMN139      0.2048
     21  O2'       26.9560   16.9070   14.1730 O.3   139  FMN139     -0.2185
     22  C3'       25.4400   15.9100   12.5890 C.3   139  FMN139      0.2165
     23  O3'       25.3820   15.1330   11.3980 O.3   139  FMN139     -0.2175
     24  C4'       24.6210   17.2070   12.4120 C.3   139  FMN139      0.2147
     25  O4'       23.2640   16.8840   12.0880 O.3   139  FMN139     -0.2176
     26  C5'       25.2560   18.1150   11.3660 C.3   139  FMN139      0.1892
     27  O5'       24.5430   19.3380   11.2930 O.3   139  FMN139     -0.2674
     28  P         24.9350   20.2600   10.1190 P.3   139  FMN139      0.5327
     29  O1P       26.3890   20.4000   10.0970 O.3   139  FMN139     -0.1145
     30  O2P       24.2530   19.8900    8.8590 O.2   139  FMN139     -0.2224
     31  O3P       24.2590   21.5570   10.5800 O.3   139  FMN139     -0.1145
@<TRIPOS>BOND
     1    30    28    2
     2    14    13    1
     3    29    28    1
     4    28    31    1
     5    28    27    1
     6    12    11    1
     7    13    11    1
     8    13    15    1
     9    27    26    1
    10    26    24    1
    11    23    22    1
    12    11    10    2
    13    15    16    2
    14    25    24    1
    15    24    22    1
    16    22    20    1
    17    10     9    1
    18    20    19    1
    19    20    21    1
    20    16     9    1
    21    16    17    1
    22    19    17    1
    23     9     8    2
    24    17    18    1
    25     8     7    2
    26    18     7    1
    27    18     1    2
    28     7     5    1
    29     1     2    2
    30     5     6    2
    31     5     4    2
    32     2     4    2
    33     2     3    2
