@<TRIPOS>MOLECULE
5upj_UIN_B_1.pdb
 23 25 0 0 0
SMALL
GASTEIGER

@<TRIPOS>ATOM
      1  CA        -0.3130   18.0280   20.7550 C.3   100  UIN100      0.1639
      2  CA2       -1.4450   17.5700   21.4950 C.2   100  UIN100      0.3244
      3  OA2       -1.6890   16.3870   21.6060 O.2   100  UIN100     -0.2496
      4  OA3       -2.3370   18.4270   22.0680 O.3   100  UIN100     -0.4476
      5  CA4       -2.0880   19.7930   21.8820 C.3   100  UIN100      0.1899
      6  CA5       -0.9840   20.2990   21.1760 C.2   100  UIN100      0.0303
      7  CA6       -0.0940   19.3910   20.6050 C.2   100  UIN100      0.1791
      8  OA6        0.9880   19.7760   19.8770 O.2   100  UIN100     -0.2913
      9  CB1        0.1850   16.4700   18.8470 C.ar  100  UIN100     -0.0215
     10  CB2       -0.1750   17.3160   17.7600 C.ar  100  UIN100     -0.0043
     11  CB3       -0.7070   16.7560   16.5960 C.ar  100  UIN100     -0.0003
     12  CB4       -0.8770   15.3680   16.4890 C.ar  100  UIN100     -0.0000
     13  CB5       -0.5250   14.5230   17.5560 C.ar  100  UIN100     -0.0003
     14  CB6        0.0130   15.0530   18.7300 C.ar  100  UIN100     -0.0043
     15  CG1        0.7060   17.0670   20.1320 C.3   100  UIN100      0.0403
     16  CG2        1.2990   16.0450   21.0860 C.3   100  UIN100      0.0053
     17  CG3        2.3750   16.5950   22.0140 C.3   100  UIN100      0.0004
     18  CD1       -3.1100   20.6730   22.5560 C.3   100  UIN100      0.0481
     19  CD2       -4.2070   21.2450   21.6890 C.3   100  UIN100      0.0041
     20  CD3       -3.8210   22.4020   20.7910 C.3   100  UIN100      0.0001
     21  CD4       -2.9190   22.0610   19.6040 C.3   100  UIN100      0.0003
     22  CD5       -1.4330   22.3770   19.7910 C.3   100  UIN100      0.0046
     23  CD6       -0.7770   21.7860   21.0160 C.3   100  UIN100      0.0284
@<TRIPOS>BOND
     1    12    11   ar
     2    12    13   ar
     3    11    10   ar
     4    13    14   ar
     5    10     9   ar
     6    14     9   ar
     7     9    15    1
     8    21    22    1
     9    21    20    1
    10    22    23    1
    11     8     7    1
    12    15     1    1
    13    15    16    1
    14     7     1    1
    15     7     6    2
    16     1     2    1
    17    20    19    1
    18    23     6    1
    19    16    17    1
    20     6     5    1
    21     2     3    2
    22     2     4    1
    23    19    18    1
    24     5     4    1
    25     5    18    1
