@<TRIPOS>MOLECULE
5xia_XYL_A_1.pdb
 10 9 0 0 0
SMALL
GASTEIGER

@<TRIPOS>ATOM
      1  C1        25.9300   73.5520    8.8990 C.3   400  XYL400      0.2175
      2  C2        26.9500   74.4790    9.5400 C.3   400  XYL400      0.2175
      3  C3        26.3100   75.5810   10.4390 C.3   400  XYL400      0.2175
      4  C4        27.2970   76.6820   10.7150 C.3   400  XYL400      0.2175
      5  C5        26.8320   78.0730   11.0010 C.3   400  XYL400      0.2175
      6  O1        26.6230   72.5070    8.1720 O.3   400  XYL400     -0.2175
      7  O2        27.8300   73.5970   10.2480 O.3   400  XYL400     -0.2175
      8  O3        25.8690   75.0330   11.6900 O.3   400  XYL400     -0.2175
      9  O4        28.3720   76.2180   11.5260 O.3   400  XYL400     -0.2175
     10  O5        25.9690   78.5860    9.9570 O.3   400  XYL400     -0.2175
@<TRIPOS>BOND
     1     6     1    1
     2     1     2    1
     3     2     7    1
     4     2     3    1
     5    10     5    1
     6     3     4    1
     7     3     8    1
     8     4     5    1
     9     4     9    1
