@<TRIPOS>MOLECULE
5xim_SOR_A_1.pdb
 12 11 0 0 0
SMALL
GASTEIGER

@<TRIPOS>ATOM
      1  C1        30.5920   44.1000  172.0310 C.3   397  SOR397      0.2175
      2  C2        31.6660   43.6430  171.0240 C.3   397  SOR397      0.2175
      3  C3        31.6910   42.1020  170.7680 C.3   397  SOR397      0.2175
      4  C4        33.0430   41.7460  170.0650 C.3   397  SOR397      0.2175
      5  C5        33.4840   40.2850  170.1450 C.3   397  SOR397      0.2175
      6  C6        34.7590   39.8940  169.3640 C.3   397  SOR397      0.2175
      7  O1        30.3240   45.5040  171.9420 O.3   397  SOR397     -0.2175
      8  O2        31.4580   44.2390  169.7460 O.3   397  SOR397     -0.2175
      9  O3        30.5580   41.7800  169.9380 O.3   397  SOR397     -0.2175
     10  O4        33.1320   42.3410  168.7630 O.3   397  SOR397     -0.2175
     11  O5        33.4840   39.7620  171.4600 O.3   397  SOR397     -0.2175
     12  O6        34.4270   39.9850  167.9280 O.3   397  SOR397     -0.2175
@<TRIPOS>BOND
     1    12     6    1
     2    10     4    1
     3     6     5    1
     4     8     2    1
     5     9     3    1
     6     4     5    1
     7     4     3    1
     8     5    11    1
     9     3     2    1
    10     2     1    1
    11     7     1    1
