@<TRIPOS>MOLECULE
5xin_XLS_A_1.pdb
 10 9 0 0 0
SMALL
GASTEIGER

@<TRIPOS>ATOM
      1  C1        30.2910   43.9560  171.8440 C.3   397  XLS397      0.2175
      2  C2        31.5130   43.5560  171.0730 C.3   397  XLS397      0.2175
      3  C3        31.6590   42.0480  170.7950 C.3   397  XLS397      0.2175
      4  C4        32.9720   41.6430  170.1440 C.3   397  XLS397      0.2175
      5  C5        33.2830   40.1620  170.2080 C.3   397  XLS397      0.2175
      6  O1        30.1490   45.4110  171.9420 O.3   397  XLS397     -0.2175
      7  O2        31.4830   44.2170  169.8050 O.3   397  XLS397     -0.2175
      8  O3        30.5690   41.6340  169.9640 O.3   397  XLS397     -0.2175
      9  O4        33.2740   42.1440  168.8330 O.3   397  XLS397     -0.2175
     10  O5        33.5960   39.7780  171.5270 O.3   397  XLS397     -0.2175
@<TRIPOS>BOND
     1     9     4    1
     2     7     2    1
     3     8     3    1
     4     4     5    1
     5     4     3    1
     6     5    10    1
     7     3     2    1
     8     2     1    1
     9     1     6    1
