@<TRIPOS>MOLECULE
5yas_FAC_A_1.pdb
 11 10 0 0 0
SMALL
GASTEIGER

@<TRIPOS>ATOM
      1  C         13.4120   52.1240   16.4910 C.3   300  FAC300      0.5195
      2  O1        13.4770   52.5560   15.1330 O.2   300  FAC300     -0.2564
      3  O2        13.7090   50.7370   16.5120 O.2   300  FAC300     -0.2564
      4  C1        14.4100   52.9090   17.3190 C.3   300  FAC300      0.4861
      5  C2        11.9910   52.2480   16.9630 C.3   300  FAC300      0.4861
      6  F1        14.2210   52.6940   18.6690 F     300  FAC300     -0.1631
      7  F2        14.2660   54.2390   17.0130 F     300  FAC300     -0.1631
      8  F3        15.6550   52.4860   16.9860 F     300  FAC300     -0.1631
      9  F4        11.7910   51.6630   18.2030 F     300  FAC300     -0.1631
     10  F5        11.3150   51.5850   16.0350 F     300  FAC300     -0.1631
     11  F6        11.5650   53.5450   16.9630 F     300  FAC300     -0.1631
@<TRIPOS>BOND
     1     2     1    1
     2    10     5    1
     3     1     3    1
     4     1     5    1
     5     1     4    1
     6     5    11    1
     7     5     9    1
     8     8     4    1
     9     7     4    1
    10     4     6    1
