@<TRIPOS>MOLECULE
621p_GNP_A_1.pdb
 32 34 0 0 0
SMALL
GASTEIGER

@<TRIPOS>ATOM
      1  PG         5.1100   32.2480   21.8090 P.3   167  GNP167      0.4884
      2  O1G        4.7280   32.7500   23.1450 O.3   167  GNP167     -0.1240
      3  O2G        4.1230   32.4860   20.7740 O.2   167  GNP167     -0.2331
      4  O3G        4.9240   30.6830   21.9880 O.3   167  GNP167     -0.1240
      5  N3B        6.6930   32.5110   21.3900 N.3   167  GNP167     -0.0163
      6  PB         7.4180   32.0820   19.9870 P.3   167  GNP167      0.4669
      7  O1B        7.7270   30.6550   19.9310 O.3   167  GNP167     -0.1253
      8  O2B        6.8480   32.6260   18.7520 O.2   167  GNP167     -0.2351
      9  O3A        8.8740   32.7620   20.0040 O.3   167  GNP167     -0.2360
     10  PA         9.3240   34.2730   19.4980 P.3   167  GNP167      0.2220
     11  O1A        9.4550   34.2630   18.0250 O.2   167  GNP167     -0.5170
     12  O2A        8.5450   35.2990   20.1740 O.3   167  GNP167     -0.4370
     13  O5'       10.7940   34.3480   20.1010 O.3   167  GNP167     -0.3111
     14  C5'       11.1830   34.0250   21.4390 C.3   167  GNP167      0.1813
     15  C4'       12.6400   34.5070   21.6270 C.3   167  GNP167      0.1799
     16  O4'       13.5440   33.7680   20.7820 O.3   167  GNP167     -0.3326
     17  C3'       12.8400   36.0140   21.2630 C.3   167  GNP167      0.2158
     18  O3'       13.7170   36.7220   22.1720 O.3   167  GNP167     -0.2175
     19  C2'       13.4000   35.8870   19.8590 C.3   167  GNP167      0.2310
     20  O2'       14.1980   37.0070   19.5050 O.3   167  GNP167     -0.2158
     21  C1'       14.2870   34.6720   19.9730 C.3   167  GNP167      0.2293
     22  N9        14.5160   34.0330   18.6660 N.pl3 167  GNP167     -0.2354
     23  C8        13.5870   33.5770   17.7910 C.3   167  GNP167      0.2246
     24  N7        14.0310   32.9240   16.7700 N.2   167  GNP167     -0.2322
     25  C5        15.3990   32.8720   17.0170 C.2   167  GNP167      0.2182
     26  C6        16.4380   32.2430   16.2740 C.1   167  GNP167      0.2372
     27  O6        16.3770   31.7230   15.1740 O.2   167  GNP167     -0.2069
     28  N1        17.6400   32.3550   16.8840 N.2   167  GNP167     -0.2485
     29  C2        17.8670   33.1470   17.9970 C.1   167  GNP167      0.2531
     30  N2        19.1290   33.2420   18.4370 N.pl3 167  GNP167     -0.0226
     31  N3        16.9080   33.8000   18.6750 N.2   167  GNP167     -0.3074
     32  C4        15.7000   33.6060   18.1380 C.2   167  GNP167      0.2300
@<TRIPOS>BOND
     1    27    26    2
     2    26    28    2
     3    26    25    1
     4    24    25    2
     5    24    23    1
     6    28    29    2
     7    25    32    1
     8    23    22    1
     9    29    30    1
    10    29    31    2
    11    11    10    2
    12    32    22    1
    13    32    31    2
    14    22    21    1
    15     8     6    2
    16    10     9    1
    17    10    13    1
    18    10    12    1
    19    20    19    1
    20    19    21    1
    21    19    17    1
    22     7     6    1
    23    21    16    1
    24     6     9    1
    25     6     5    1
    26    13    14    1
    27     3     1    2
    28    16    15    1
    29    17    15    1
    30    17    18    1
    31     5     1    1
    32    14    15    1
    33     1     4    1
    34     1     2    1
