@<TRIPOS>MOLECULE
6a3h_FCT_A_1.pdb
 33 35 0 0 0
SMALL
GASTEIGER

@<TRIPOS>ATOM
      1  C1A       63.1450   41.6500   34.8680 C.3   500  FCT500      0.1801
      2  C2A       61.7110   42.0180   34.6250 C.3   500  FCT500      0.2229
      3  C3A       61.6640   43.5220   34.4310 C.3   500  FCT500      0.2163
      4  C4A       62.2380   44.1940   35.7070 C.3   500  FCT500      0.1804
      5  C5A       63.6870   43.7800   35.8450 C.3   500  FCT500      0.1778
      6  C6A       64.3310   44.3410   37.1130 C.3   500  FCT500      0.2140
      7  F2A       61.3370   41.3570   33.4580 F     500  FCT500     -0.2317
      8  O3A       60.2900   43.8410   34.3210 O.3   500  FCT500     -0.2174
      9  O4A       62.2450   45.5880   35.4060 O.3   500  FCT500     -0.3257
     10  O5A       63.7810   42.3570   35.9050 O.3   500  FCT500     -0.3480
     11  O6A       63.5720   43.9240   38.2220 O.3   500  FCT500     -0.2176
     12  C1B       61.8220   46.3980   36.4970 C.3   500  FCT500      0.2695
     13  C2B       62.1400   47.8420   36.1260 C.3   500  FCT500      0.2404
     14  C3B       61.5210   48.7550   37.2060 C.3   500  FCT500      0.2167
     15  C4B       60.0130   48.4650   37.2270 C.3   500  FCT500      0.1804
     16  C5B       59.7920   46.9900   37.5780 C.3   500  FCT500      0.1803
     17  C6B       58.3280   46.5840   37.7040 C.3   500  FCT500      0.2141
     18  O2B       63.5590   47.9370   36.1050 O.3   500  FCT500     -0.2149
     19  O3B       61.7690   50.1120   36.8420 O.3   500  FCT500     -0.2175
     20  O4B       59.4000   49.2860   38.1970 O.3   500  FCT500     -0.3257
     21  O5B       60.4110   46.2130   36.5570 O.3   500  FCT500     -0.3257
     22  O6B       57.6780   46.8080   36.4560 O.3   500  FCT500     -0.2176
     23  C1C       58.2380   49.9770   37.7830 C.3   500  FCT500      0.2695
     24  C2C       57.5490   50.5160   39.0190 C.3   500  FCT500      0.2406
     25  C3C       56.3310   51.3600   38.5910 C.3   500  FCT500      0.2198
     26  C4C       56.8130   52.4880   37.6530 C.3   500  FCT500      0.2144
     27  C5C       57.5650   51.8310   36.4730 C.3   500  FCT500      0.1835
     28  C6C       58.1180   52.8270   35.4590 C.3   500  FCT500      0.2142
     29  O2C       57.1550   49.3840   39.7650 O.3   500  FCT500     -0.2149
     30  O3C       55.8420   51.8960   39.8150 O.3   500  FCT500     -0.2174
     31  O4C       55.6450   53.1240   37.1520 O.3   500  FCT500     -0.2176
     32  O5C       58.6430   51.0740   36.9920 O.3   500  FCT500     -0.3256
     33  O6C       58.9470   53.7660   36.1290 O.3   500  FCT500     -0.2176
@<TRIPOS>BOND
     1     7     2    1
     2     8     3    1
     3     3     2    1
     4     3     4    1
     5     2     1    1
     6     1    10    1
     7     9     4    1
     8     9    12    1
     9    28    33    1
    10    28    27    1
    11     4     5    1
    12     5    10    1
    13     5     6    1
    14    18    13    1
    15    13    12    1
    16    13    14    1
    17    22    17    1
    18    27    32    1
    19    27    26    1
    20    12    21    1
    21    21    16    1
    22    19    14    1
    23    32    23    1
    24     6    11    1
    25    31    26    1
    26    14    15    1
    27    15    16    1
    28    15    20    1
    29    16    17    1
    30    26    25    1
    31    23    20    1
    32    23    24    1
    33    25    24    1
    34    25    30    1
    35    24    29    1
