@<TRIPOS>MOLECULE
6abp_ARA_A_1.pdb
 10 10 0 0 0
SMALL
GASTEIGER

@<TRIPOS>ATOM
      1  C1        14.3290   56.6010   55.1940 C.3   307  ARA307      0.3024
      2  C2        12.9450   57.1400   54.8190 C.3   307  ARA307      0.2434
      3  C3        12.4230   56.4070   53.7740 C.3   307  ARA307      0.2199
      4  C4        13.2900   56.4430   52.4480 C.3   307  ARA307      0.2143
      5  C5        14.7570   56.0830   52.8150 C.3   307  ARA307      0.1804
      6  O1        14.8230   57.3560   56.2070 O.3   307  ARA307     -0.1869
      7  O2        12.0900   56.8890   55.9580 O.3   307  ARA307     -0.2148
      8  O3        11.0620   56.7740   53.3450 O.3   307  ARA307     -0.2174
      9  O4        13.3570   57.7810   51.8870 O.3   307  ARA307     -0.2176
     10  O5        15.1350   56.8380   54.0550 O.3   307  ARA307     -0.3237
@<TRIPOS>BOND
     1     9     4    1
     2     4     5    1
     3     4     3    1
     4     5    10    1
     5     8     3    1
     6     3     2    1
     7    10     1    1
     8     2     1    1
     9     2     7    1
    10     1     6    1
