@<TRIPOS>MOLECULE
6abp_ARB_A_1.pdb
 10 10 0 0 0
SMALL
GASTEIGER

@<TRIPOS>ATOM
      1  C1        14.3570   56.9890   55.2170 C.3   308  ARB308      0.3024
      2  C2        12.9450   57.2990   54.8580 C.3   308  ARB308      0.2434
      3  C3        12.4180   56.4210   53.8130 C.3   308  ARB308      0.2199
      4  C4        13.3340   56.5150   52.5500 C.3   308  ARB308      0.2143
      5  C5        14.8070   56.0690   52.8930 C.3   308  ARB308      0.1804
      6  O1        14.4230   55.7880   55.8950 O.3   308  ARB308     -0.1869
      7  O2        12.1010   56.9970   56.0280 O.3   308  ARB308     -0.2148
      8  O3        11.0510   56.7230   53.4080 O.3   308  ARB308     -0.2174
      9  O4        13.3230   57.8600   51.9260 O.3   308  ARB308     -0.2176
     10  O5        15.2180   56.8100   54.0550 O.3   308  ARB308     -0.3237
@<TRIPOS>BOND
     1     9     4    1
     2     4     5    1
     3     4     3    1
     4     5    10    1
     5     8     3    1
     6     3     2    1
     7    10     1    1
     8     2     1    1
     9     2     7    1
    10     1     6    1
