@<TRIPOS>MOLECULE
6acn_TRC_A_1.pdb
 12 11 0 0 0
SMALL
GASTEIGER

@<TRIPOS>ATOM
      1  C1        76.9040   43.3990   28.6670 C.2   899  TRC899      0.3654
      2  O1        77.5990   44.2670   29.2710 O.co2 899  TRC899     -0.2456
      3  O2        77.0780   43.1360   27.4660 O.co2 899  TRC899     -0.2456
      4  C2        75.8000   42.5860   29.3640 C.3   899  TRC899      0.1258
      5  C3        76.1690   41.9990   30.7850 C.3   899  TRC899      0.1258
      6  C4        74.9870   41.1620   31.3850 C.3   899  TRC899      0.1258
      7  C5        74.4990   39.9530   30.5690 C.2   899  TRC899      0.3654
      8  O3        74.9770   38.8540   30.8230 O.co2 899  TRC899     -0.2456
      9  O4        73.6240   40.0660   29.6900 O.co2 899  TRC899     -0.2456
     10  C6        77.4750   41.1130   30.7050 C.2   899  TRC899      0.3654
     11  O5        77.8150   40.5240   29.6370 O.co2 899  TRC899     -0.2456
     12  O6        78.2140   41.0700   31.7210 O.co2 899  TRC899     -0.2456
@<TRIPOS>BOND
     1     3     1   ar
     2     1     2   ar
     3     1     4    1
     4     4     5    1
     5    11    10   ar
     6     9     7   ar
     7     7     8   ar
     8     7     6    1
     9    10     5    1
    10    10    12   ar
    11     5     6    1
