@<TRIPOS>MOLECULE
6adh_NAD_A_1.pdb
 44 48 0 0 0
SMALL
GASTEIGER

@<TRIPOS>ATOM
      1  PA        12.9380    8.1430   26.1740 P.3   377  NAD377      0.2189
      2  O1A       12.9270    6.6890   25.9260 O.3   377  NAD377     -0.4371
      3  O2A       13.7830    8.7930   25.1410 O.2   377  NAD377     -0.5170
      4  O5B       13.5250    8.4510   27.6260 O.3   377  NAD377     -0.3112
      5  C5B       13.6470    7.4000   28.6160 C.3   377  NAD377      0.1813
      6  C4B       14.8460    7.7280   29.4320 C.3   377  NAD377      0.1821
      7  O4B       14.8430    7.0490   30.7190 O.3   377  NAD377     -0.3135
      8  C3B       16.1650    7.3710   28.7810 C.3   377  NAD377      0.2184
      9  O3B       17.0990    8.4490   28.9060 O.3   377  NAD377     -0.2174
     10  C2B       16.5270    6.0790   29.5110 C.3   377  NAD377      0.2570
     11  O2B       17.9420    5.8240   29.4920 O.3   377  NAD377     -0.2130
     12  C1B       16.0470    6.3600   30.9010 C.3   377  NAD377      0.3186
     13  N9A       15.8630    5.1770   31.7010 N.pl3 377  NAD377     -0.1439
     14  C8A       15.4510    3.9360   31.3300 C.3   377  NAD377      0.3377
     15  N7A       15.3730    3.0990   32.3610 N.2   377  NAD377     -0.2095
     16  C5A       15.7580    3.8660   33.4520 C.2   377  NAD377      0.2526
     17  C6A       15.8800    3.5690   34.8160 C.2   377  NAD377      0.4393
     18  N6A       15.5900    2.3850   35.3500 N.pl3 377  NAD377      0.2180
     19  N1A       16.3270    4.5660   35.6270 N.2   377  NAD377      0.0021
     20  C2A       16.6120    5.7860   35.0810 C.3   377  NAD377      0.5254
     21  N3A       16.5260    6.1610   33.8400 N.2   377  NAD377     -0.0055
     22  C4A       16.0870    5.1440   33.0610 C.2   377  NAD377      0.3518
     23  O3        11.5220    8.7920   26.3240 O.3   377  NAD377     -0.2703
     24  PN        10.9660   10.3370   26.1330 P.3   377  NAD377      0.2189
     25  O1N       10.5900   10.5670   24.7140 O.2   377  NAD377     -0.5170
     26  O2N       12.0220   11.3080   26.5130 O.3   377  NAD377     -0.4371
     27  O5D        9.6850   10.3560   27.1090 O.3   377  NAD377     -0.3112
     28  C5D        9.8520   10.0730   28.5100 C.3   377  NAD377      0.1813
     29  C4D        8.6250    9.3420   29.0310 C.3   377  NAD377      0.1799
     30  O4D        7.5650   10.2880   29.3460 O.3   377  NAD377     -0.3327
     31  C3D        8.0090    8.3080   28.0890 C.3   377  NAD377      0.2158
     32  O3D        7.5010    7.1230   28.7200 O.3   377  NAD377     -0.2175
     33  C2D        6.8850    9.1400   27.4520 C.3   377  NAD377      0.2309
     34  O2D        5.8800    8.2370   26.9640 O.3   377  NAD377     -0.2158
     35  C1D        6.4120    9.9920   28.5970 C.3   377  NAD377      0.2263
     36  N1N        5.7820   11.2570   28.1490 N.pl3 377  NAD377     -0.2787
     37  C2N        4.6740   11.7360   28.7930 C.3   377  NAD377      0.1244
     38  C3N        4.1260   12.9310   28.3980 C.2   377  NAD377      0.0544
     39  C7N        2.8980   13.5730   29.1340 C.2   377  NAD377      0.2818
     40  O7N        2.0980   14.2380   28.5070 O.2   377  NAD377     -0.2670
     41  N7N        2.8250   13.3410   30.4590 N.am  377  NAD377     -0.0839
     42  C4N        4.6510   13.6950   27.3270 C.2   377  NAD377      0.0033
     43  C5N        5.7670   13.1060   26.7320 C.2   377  NAD377      0.0157
     44  C6N        6.3720   11.9330   27.0720 C.2   377  NAD377      0.0633
@<TRIPOS>BOND
     1    25    24    2
     2     3     1    2
     3     2     1    1
     4    24    23    1
     5    24    26    1
     6    24    27    1
     7     1    23    1
     8     1     4    1
     9    43    44    2
    10    43    42    1
    11    34    33    1
    12    44    36    1
    13    27    28    1
    14    42    38    2
    15    33    31    1
    16    33    35    1
    17     4     5    1
    18    31    32    1
    19    31    29    1
    20    36    35    1
    21    36    37    1
    22    38    37    1
    23    38    39    1
    24    40    39    2
    25    28    29    1
    26    35    30    1
    27     5     6    1
    28     8     9    1
    29     8     6    1
    30     8    10    1
    31    29    30    1
    32    39    41   am
    33     6     7    1
    34    11    10    1
    35    10    12    1
    36     7    12    1
    37    12    13    1
    38    14    13    1
    39    14    15    1
    40    13    22    1
    41    15    16    2
    42    22    16    1
    43    22    21    2
    44    16    17    1
    45    21    20    1
    46    17    18    1
    47    17    19    2
    48    20    19    1
