@<TRIPOS>MOLECULE
6ald_2FP_A_1.pdb
 20 19 0 0 0
SMALL
GASTEIGER

@<TRIPOS>ATOM
      1  P1        43.0520   26.9010    8.0070 P.3   700  2FP700      0.5330
      2  O1        43.8870   28.1480    7.4870 O.3   700  2FP700     -0.2621
      3  C1        43.7440   28.7050    6.1450 C.3   700  2FP700      0.2203
      4  C2        42.3110   29.2210    5.9060 C.2   700  2FP700      0.2137
      5  O2        42.1540   29.4390    4.7180 O.2   700  2FP700     -0.2906
      6  C3        41.5580   30.0880    6.9330 C.3   700  2FP700      0.2439
      7  O3        42.0030   31.4190    6.9040 O.3   700  2FP700     -0.2122
      8  C4        40.0190   29.9410    6.5990 C.3   700  2FP700      0.2220
      9  O4        39.6410   29.3050    5.3710 O.3   700  2FP700     -0.2171
     10  C5        39.4100   31.3630    6.6180 C.3   700  2FP700      0.2151
     11  O5        38.6560   31.6260    7.8470 O.3   700  2FP700     -0.2176
     12  C6        38.5160   31.5740    5.3780 C.3   700  2FP700      0.1892
     13  O6        37.1340   32.0030    5.6930 O.3   700  2FP700     -0.2674
     14  O11       42.1680   27.4420    9.0860 O.3   700  2FP700     -0.1145
     15  O12       42.3510   26.2360    6.8650 O.2   700  2FP700     -0.2224
     16  O13       43.9600   25.9080    8.5800 O.3   700  2FP700     -0.1145
     17  P6        36.4620   32.8750    4.4700 P.3   700  2FP700      0.5327
     18  O61       37.1590   34.1200    4.2330 O.3   700  2FP700     -0.1145
     19  O62       36.5390   32.0890    3.2110 O.2   700  2FP700     -0.2224
     20  O63       35.0130   33.1920    4.7840 O.3   700  2FP700     -0.1145
@<TRIPOS>BOND
     1    19    17    2
     2    18    17    1
     3    17    20    1
     4    17    13    1
     5     5     4    2
     6     9     8    1
     7    12    13    1
     8    12    10    1
     9     4     3    1
    10     4     6    1
    11     3     2    1
    12     8    10    1
    13     8     6    1
    14    10    11    1
    15    15     1    2
    16     7     6    1
    17     2     1    1
    18     1    16    1
    19     1    14    1
