@<TRIPOS>MOLECULE
6apr_III_I_1.pdb
 47 46 0 0 0
SMALL
GASTEIGER

@<TRIPOS>ATOM
      1  CA        38.6450   71.5040  100.9170 C.3     1  IVA1        0.0868
      2  CB        37.2650   72.0830  100.9250 C.3     1  IVA1        0.0091
      3  CG1       37.0180   72.8100   99.5870 C.3     1  IVA1        0.0005
      4  CG2       36.9240   73.0310  102.0570 C.3     1  IVA1        0.0005
      5  C         39.4620   70.8180  101.9670 C.2     1  IVA1        0.2418
      6  O         40.3590   71.3930  102.6390 O.2     1  IVA1       -0.2733
      7  N         39.2070   69.5250  102.1030 N.am    2  VAL2       -0.1978
      8  CA        39.9690   68.6480  103.0430 C.3     2  VAL2        0.1726
      9  C         40.6500   67.6930  102.0640 C.2     2  VAL2        0.2616
     10  O         40.0140   67.3510  101.0410 O.2     2  VAL2       -0.2715
     11  CB        39.0310   68.1180  104.1200 C.3     2  VAL2        0.0290
     12  CG1       38.7020   66.6410  104.0640 C.3     2  VAL2        0.0023
     13  CG2       39.5410   68.5060  105.5010 C.3     2  VAL2        0.0023
     14  N         41.8990   67.3660  102.3230 N.am    3  VAL3       -0.1963
     15  CA        42.6160   66.4330  101.4010 C.3     3  VAL3        0.1727
     16  C         43.6010   65.6680  102.2770 C.2     3  VAL3        0.2612
     17  O         44.6980   66.1270  102.5800 O.2     3  VAL3       -0.2715
     18  CB        43.1070   67.0170  100.0750 C.3     3  VAL3        0.0290
     19  CG1       43.1930   68.5280   99.9680 C.3     3  VAL3        0.0023
     20  CG2       44.4100   66.4240   99.5600 C.3     3  VAL3        0.0023
     21  N         43.1110   64.5030  102.6260 N.am    4  STA4       -0.2031
     22  CA        43.7320   63.4820  103.4710 C.3     4  STA4        0.1261
     23  CB        42.7990   63.2230  104.6480 C.3     4  STA4        0.0243
     24  CG        42.2430   64.5090  105.3000 C.3     4  STA4        0.0018
     25  CD1       41.0760   64.1330  106.2450 C.3     4  STA4        0.0001
     26  CD2       43.3490   65.2420  106.0850 C.3     4  STA4        0.0001
     27  CH        44.0900   62.2320  102.6410 C.3     4  STA4        0.1809
     28  OH        42.9050   61.7100  102.0370 O.3     4  STA4       -0.2208
     29  CM        45.2090   62.3000  101.6400 C.3     4  STA4        0.1214
     30  C         46.5140   62.5680  102.4030 C.2     4  STA4        0.2444
     31  O         46.8060   63.7310  102.5660 O.2     4  STA4       -0.2732
     32  N         47.1900   61.4930  102.7750 N.am    5  ALA5       -0.1977
     33  CA        48.6310   61.4290  103.0860 C.3     5  ALA5        0.1728
     34  C         49.4080   61.4180  101.7700 C.2     5  ALA5        0.2612
     35  O         49.8910   60.4230  101.2350 O.2     5  ALA5       -0.2715
     36  CB        48.9840   60.2680  103.9870 C.3     5  ALA5        0.0334
     37  N         49.4570   62.6240  101.2340 N.am    6  STA6       -0.2031
     38  CA        50.1240   62.9700   99.9680 C.3     6  STA6        0.1260
     39  CB        49.3160   63.8340   99.0640 C.3     6  STA6        0.0243
     40  CG        48.1780   63.4160   98.1560 C.3     6  STA6        0.0018
     41  CD1       47.6090   61.9960   98.3640 C.3     6  STA6        0.0001
     42  CD2       46.9690   64.3630   98.4550 C.3     6  STA6        0.0001
     43  CH        51.4780   63.5320  100.5100 C.3     6  STA6        0.1795
     44  OH        52.3740   63.5500   99.3980 O.3     6  STA6       -0.2208
     45  CM        51.4450   64.7730  101.3700 C.3     6  STA6        0.1068
     46  C         52.4890   64.6840  102.4700 C.2     6  STA6        0.2101
     47  O         53.5890   65.2100  102.4450 O.2     6  STA6       -0.2882
@<TRIPOS>BOND
     1    40    41    1
     2    40    42    1
     3    40    39    1
     4    39    38    1
     5    44    43    1
     6    20    18    1
     7     3     2    1
     8    19    18    1
     9    38    43    1
    10    38    37    1
    11    18    15    1
    12    43    45    1
    13     1     2    1
    14     1     5    1
    15     2     4    1
    16    10     9    2
    17    37    34   am
    18    35    34    2
    19    45    46    1
    20    15    16    1
    21    15    14    1
    22    29    30    1
    23    29    27    1
    24    34    33    1
    25     5     7   am
    26     5     6    2
    27    28    27    1
    28     9    14   am
    29     9     8    1
    30     7     8    1
    31    16    17    2
    32    16    21   am
    33    30    31    2
    34    30    32   am
    35    47    46    2
    36    21    22    1
    37    27    22    1
    38    32    33    1
    39     8    11    1
    40    33    36    1
    41    22    23    1
    42    12    11    1
    43    11    13    1
    44    23    24    1
    45    24    26    1
    46    24    25    1
