@<TRIPOS>MOLECULE
6atj_FER_A_1.pdb
 14 14 0 0 0
SMALL
GASTEIGER

@<TRIPOS>ATOM
      1  C4         1.5750    2.1350    1.8530 C.ar  601  FER601      0.2293
      2  C5         1.4340    1.6730    0.5340 C.ar  601  FER601      0.0452
      3  C6         0.2340    1.7420   -0.1290 C.ar  601  FER601      0.0035
      4  C3         0.4550    2.6790    2.5020 C.ar  601  FER601      0.1774
      5  C2        -0.7690    2.7510    1.8230 C.ar  601  FER601      0.0402
      6  C1        -0.9010    2.2810    0.4920 C.ar  601  FER601      0.0034
      7  C10       -0.3030    3.6800    4.5880 C.3   601  FER601      0.2526
      8  C7        -2.1490    2.3510   -0.2560 C.2   601  FER601      0.0069
      9  C8        -2.4380    1.9090   -1.4840 C.2   601  FER601      0.0861
     10  C9        -3.7560    2.0700   -2.1040 C.2   601  FER601      0.3880
     11  O1        -3.9070    1.5800   -3.2900 O.co2 601  FER601     -0.2405
     12  O2        -4.7000    2.6520   -1.4990 O.co2 601  FER601     -0.2405
     13  O4         2.7830    2.0570    2.4760 O.3   601  FER601     -0.2833
     14  O3         0.7230    3.0960    3.7910 O.3   601  FER601     -0.4682
@<TRIPOS>BOND
     1    11    10   ar
     2    10    12   ar
     3    10     9    1
     4     9     8    2
     5     8     6    1
     6     3     6   ar
     7     3     2   ar
     8     6     5   ar
     9     2     1   ar
    10     5     4   ar
    11     1    13    1
    12     1     4   ar
    13     4    14    1
    14    14     7    1
