@<TRIPOS>MOLECULE
6atj_HEM_A_1.pdb
 43 50 0 0 0
SMALL
GASTEIGER

@<TRIPOS>ATOM
      1 FE          3.1460    1.9240   11.6920 Fe    350  HEM350      0.0000
      2  CHA       -0.0310    3.1850   11.8410 C.2   350  HEM350      0.0000
      3  CHB        2.3290    0.1510    8.8320 C.2   350  HEM350      0.0000
      4  CHC        6.4300    1.0380   11.3500 C.2   350  HEM350      0.0000
      5  CHD        4.0070    3.9850   14.3310 C.2   350  HEM350      0.0000
      6  NA         1.5130    1.8520   10.4760 N.ar  350  HEM350      0.0000
      7  C1A        0.2950    2.4770   10.6740 C.ar  350  HEM350      0.0000
      8  C2A       -0.6870    2.0610    9.6720 C.ar  350  HEM350      0.0000
      9  C3A       -0.0550    1.1790    8.8630 C.ar  350  HEM350      0.0000
     10  C4A        1.2990    0.9760    9.4160 C.ar  350  HEM350      0.0000
     11  CMA       -0.5590    0.6420    7.5190 C.3   350  HEM350      0.0000
     12  CAA       -2.1470    2.3940    9.5640 C.3   350  HEM350      0.0000
     13  CBA       -2.3510    3.7210    8.9000 C.3   350  HEM350      0.0000
     14  CGA       -3.8080    4.0080    8.5570 C.2   350  HEM350      0.0000
     15  O1A       -4.0920    5.1380    8.1140 O.co2 350  HEM350      0.0000
     16  O2A       -4.6640    3.1160    8.7180 O.co2 350  HEM350      0.0000
     17  NB         4.2150    0.9130   10.2940 N.2   350  HEM350      0.0000
     18  C1B        3.7040    0.1770    9.2080 C.2   350  HEM350      0.0000
     19  C2B        4.7500   -0.5510    8.5660 C.2   350  HEM350      0.0000
     20  C3B        5.8790   -0.3790    9.3140 C.2   350  HEM350      0.0000
     21  C4B        5.5560    0.5880   10.3390 C.2   350  HEM350      0.0000
     22  CMB        4.6160   -1.3050    7.2390 C.3   350  HEM350      0.0000
     23  CAB        7.0590   -1.0980    9.1050 C.3   350  HEM350      0.0000
     24  CBB        7.8790   -1.7390   10.0890 C.3   350  HEM350      0.0000
     25  NC         4.8670    2.4080   12.6260 N.ar  350  HEM350      0.0000
     26  C1C        6.1050    1.9140   12.3850 C.ar  350  HEM350      0.0000
     27  C2C        7.1020    2.6160   13.2090 C.ar  350  HEM350      0.0000
     28  C3C        6.4320    3.4580   14.0490 C.ar  350  HEM350      0.0000
     29  C4C        5.0500    3.3390   13.6560 C.ar  350  HEM350      0.0000
     30  CMC        8.6060    2.5010   13.0100 C.3   350  HEM350      0.0000
     31  CAC        6.8950    4.2230   15.1350 C.3   350  HEM350      0.0000
     32  CBC        8.0870    3.9250   15.8760 C.3   350  HEM350      0.0000
     33  ND         2.1900    3.2020   12.8940 N.2   350  HEM350      0.0000
     34  C1D        2.6620    3.8260   14.0380 C.2   350  HEM350      0.0000
     35  C2D        1.5620    4.3090   14.8460 C.2   350  HEM350      0.0000
     36  C3D        0.4130    4.1230   14.1390 C.2   350  HEM350      0.0000
     37  C4D        0.8200    3.4790   12.8970 C.2   350  HEM350      0.0000
     38  CMD        1.7370    4.8980   16.2400 C.3   350  HEM350      0.0000
     39  CAD       -0.9930    4.5710   14.4640 C.3   350  HEM350      0.0000
     40  CBD       -1.1550    6.0140   14.0560 C.3   350  HEM350      0.0000
     41  CGD       -2.5300    6.5730   14.3720 C.2   350  HEM350      0.0000
     42  O1D       -2.7600    7.7550   14.0500 O.co2 350  HEM350      0.0000
     43  O2D       -3.3700    5.8400   14.9380 O.co2 350  HEM350      0.0000
@<TRIPOS>BOND
     1    22    19    1
     2    11     9    1
     3    15    14   ar
     4    14    16   ar
     5    14    13    1
     6    19    18    1
     7    19    20    2
     8     3    18    1
     9     3    10    2
    10     9    10   ar
    11     9     8   ar
    12    13    12    1
    13    23    20    1
    14    23    24    1
    15    18    17    2
    16    20    21    1
    17    10     6   ar
    18    12     8    1
    19     8     7   ar
    20    17    21    1
    21    17     1    1
    22    21     4    2
    23     6     7   ar
    24     6     1    1
    25     7     2    2
    26     4    26    1
    27     1    25    1
    28     1    33    1
    29     2    37    1
    30    26    25   ar
    31    26    27   ar
    32    25    29   ar
    33    33    37    2
    34    33    34    1
    35    37    36    1
    36    30    27    1
    37    27    28   ar
    38    29    28   ar
    39    29     5    1
    40    34     5    2
    41    34    35    1
    42    28    31    1
    43    42    41   ar
    44    40    41    1
    45    40    39    1
    46    36    39    1
    47    36    35    2
    48    41    43   ar
    49    35    38    1
    50    31    32    1
