@<TRIPOS>MOLECULE
6ccp_HEM_A_1.pdb
 43 50 0 0 0
SMALL
GASTEIGER

@<TRIPOS>ATOM
      1  CHA       -5.4290   53.7830   22.2260 C.2   296  HEM296      0.0000
      2  CHB       -7.6430   57.8690   23.6080 C.2   296  HEM296      0.0000
      3  CHC       -5.9100   60.1030   19.6610 C.2   296  HEM296      0.0000
      4  CHD       -3.5140   56.0850   18.4530 C.2   296  HEM296      0.0000
      5  C1A       -6.1190   54.7150   22.9410 C.2   296  HEM296      0.0000
      6  C2A       -6.7270   54.4630   24.2300 C.2   296  HEM296      0.0000
      7  C3A       -7.3400   55.5920   24.6170 C.2   296  HEM296      0.0000
      8  C4A       -7.1280   56.5760   23.5810 C.2   296  HEM296      0.0000
      9  CMA       -8.1740   55.8470   25.9110 C.3   296  HEM296      0.0000
     10  CAA       -6.6200   53.1060   24.9490 C.3   296  HEM296      0.0000
     11  CBA       -5.3960   52.9760   25.8840 C.3   296  HEM296      0.0000
     12  CGA       -5.3210   51.6310   26.5850 C.2   296  HEM296      0.0000
     13  O1A       -6.2410   51.3210   27.4090 O.co2 296  HEM296      0.0000
     14  O2A       -4.3300   50.9010   26.3070 O.co2 296  HEM296      0.0000
     15  C1B       -7.4070   58.7930   22.6200 C.ar  296  HEM296      0.0000
     16  C2B       -7.9630   60.1430   22.6030 C.ar  296  HEM296      0.0000
     17  C3B       -7.4700   60.7570   21.5190 C.ar  296  HEM296      0.0000
     18  C4B       -6.5950   59.8160   20.8270 C.ar  296  HEM296      0.0000
     19  CMB       -8.9410   60.6480   23.6840 C.3   296  HEM296      0.0000
     20  CAB       -7.7580   62.1920   21.0250 C.2   296  HEM296      0.0000
     21  CBB       -8.9490   62.7150   21.3780 C.2   296  HEM296      0.0000
     22  C1C       -5.0420   59.2350   19.0290 C.2   296  HEM296      0.0000
     23  C2C       -4.1620   59.5580   17.9320 C.2   296  HEM296      0.0000
     24  C3C       -3.5060   58.4670   17.6040 C.2   296  HEM296      0.0000
     25  C4C       -3.9520   57.4030   18.4980 C.2   296  HEM296      0.0000
     26  CMC       -4.0560   60.9720   17.3080 C.3   296  HEM296      0.0000
     27  CAC       -2.4060   58.2160   16.5350 C.2   296  HEM296      0.0000
     28  CBC       -2.4900   58.9030   15.3920 C.2   296  HEM296      0.0000
     29  C1D       -3.9190   55.0790   19.2950 C.ar  296  HEM296      0.0000
     30  C2D       -3.6280   53.6610   19.1410 C.ar  296  HEM296      0.0000
     31  C3D       -4.1590   53.0380   20.1870 C.ar  296  HEM296      0.0000
     32  C4D       -4.7890   54.0280   21.0400 C.ar  296  HEM296      0.0000
     33  CMD       -2.8670   53.0740   17.9330 C.3   296  HEM296      0.0000
     34  CAD       -4.1700   51.5110   20.5120 C.3   296  HEM296      0.0000
     35  CBD       -3.0280   51.1740   21.4650 C.3   296  HEM296      0.0000
     36  CGD       -2.9130   49.7470   21.9470 C.2   296  HEM296      0.0000
     37  O1D       -2.1200   49.6160   22.9270 O.co2 296  HEM296      0.0000
     38  O2D       -3.5530   48.8430   21.3840 O.co2 296  HEM296      0.0000
     39  NA        -6.3780   56.0230   22.5690 N.2   296  HEM296      0.0000
     40  NB        -6.5720   58.6490   21.5290 N.ar  296  HEM296      0.0000
     41  NC        -4.8900   57.8960   19.3590 N.2   296  HEM296      0.0000
     42  ND        -4.6350   55.2760   20.4750 N.ar  296  HEM296      0.0000
     43 FE         -5.7940   56.8670   20.8590 Fe    296  HEM296      0.0000
@<TRIPOS>BOND
     1    28    27    2
     2    27    24    1
     3    26    23    1
     4    24    23    2
     5    24    25    1
     6    23    22    1
     7    33    30    1
     8     4    25    1
     9     4    29    2
    10    25    41    2
    11    22    41    1
    12    22     3    2
    13    30    29   ar
    14    30    31   ar
    15    29    42   ar
    16    41    43    1
    17     3    18    1
    18    31    34    1
    19    31    32   ar
    20    42    43    1
    21    42    32   ar
    22    34    35    1
    23    18    17   ar
    24    18    40   ar
    25    43    40    1
    26    43    39    1
    27    20    21    2
    28    20    17    1
    29    32     1    2
    30    38    36   ar
    31    35    36    1
    32    17    16   ar
    33    40    15   ar
    34    36    37   ar
    35     1     5    1
    36    39     5    2
    37    39     8    1
    38    16    15   ar
    39    16    19    1
    40    15     2    1
    41     5     6    1
    42     8     2    2
    43     8     7    1
    44     6     7    2
    45     6    10    1
    46     7     9    1
    47    10    11    1
    48    11    12    1
    49    14    12   ar
    50    12    13   ar
