@<TRIPOS>MOLECULE
6cel_BGC_A_1.pdb
 11 11 0 0 0
SMALL
GASTEIGER

@<TRIPOS>ATOM
      1  C2        19.3160   48.6390   98.9100 C.3   451  BGC451      0.2141
      2  C3        19.4790   49.9820   98.2110 C.3   451  BGC451      0.2173
      3  C4        19.2640   49.7950   96.7110 C.3   451  BGC451      0.2142
      4  C5        17.8840   49.1890   96.4770 C.3   451  BGC451      0.1810
      5  C6        17.5840   48.9600   95.0040 C.3   451  BGC451      0.2141
      6  C1        17.9560   48.0310   98.5660 C.3   451  BGC451      0.1777
      7  O2        19.4280   48.8130  100.3150 O.3   451  BGC451     -0.2176
      8  O3        20.7790   50.4900   98.4590 O.3   451  BGC451     -0.2175
      9  O4        19.3670   51.0590   96.0240 O.3   451  BGC451     -0.2176
     10  O5        17.8010   47.9130   97.1440 O.3   451  BGC451     -0.3481
     11  O6        16.2610   48.4770   94.8180 O.3   451  BGC451     -0.2176
@<TRIPOS>BOND
     1    11     5    1
     2     5     4    1
     3     9     3    1
     4     4     3    1
     5     4    10    1
     6     3     2    1
     7    10     6    1
     8     2     8    1
     9     2     1    1
    10     6     1    1
    11     1     7    1
