@<TRIPOS>MOLECULE
6cgt_GLC_A_1.pdb
 12 12 0 0 0
SMALL
GASTEIGER

@<TRIPOS>ATOM
      1  C1        14.4730   19.4970    5.4140 C.3   701  GLC701      0.3024
      2  C2        13.5670   20.3150    6.4470 C.3   701  GLC701      0.2434
      3  C3        13.8030   19.9070    7.9330 C.3   701  GLC701      0.2199
      4  C4        13.7680   18.4120    8.0500 C.3   701  GLC701      0.2144
      5  C5        14.8490   17.8800    7.1490 C.3   701  GLC701      0.1836
      6  C6        15.1800   16.4330    7.3090 C.3   701  GLC701      0.2142
      7  O1        15.7920   19.8940    5.5670 O.3   701  GLC701     -0.1869
      8  O2        13.8460   21.6980    6.3150 O.3   701  GLC701     -0.2148
      9  O3        12.7990   20.4840    8.7490 O.3   701  GLC701     -0.2174
     10  O4        13.9770   18.0040    9.4240 O.3   701  GLC701     -0.2176
     11  O5        14.4650   18.0930    5.7920 O.3   701  GLC701     -0.3236
     12  O6        14.1120   15.6310    6.9180 O.3   701  GLC701     -0.2176
@<TRIPOS>BOND
     1     1     7    1
     2     1    11    1
     3     1     2    1
     4    11     5    1
     5     8     2    1
     6     2     3    1
     7    12     6    1
     8     5     6    1
     9     5     4    1
    10     3     4    1
    11     3     9    1
    12     4    10    1
