@<TRIPOS>MOLECULE
6cgt_OPG_A_1.pdb
 12 13 0 0 0
SMALL
GASTEIGER

@<TRIPOS>ATOM
      1  C1        14.3140   15.3700   14.9640 C.3   703  OPG703      0.0678
      2  C2        15.2220   14.2660   15.4960 C.3   703  OPG703      0.1873
      3  O2        16.5920   14.5650   15.2320 O.3   703  OPG703     -0.2202
      4  C3        14.8630   12.9310   14.8740 C.3   703  OPG703      0.2148
      5  O3        15.8930   12.0030   15.2180 O.3   703  OPG703     -0.2176
      6  C4        13.4850   12.4050   15.3990 C.3   703  OPG703      0.2140
      7  O4        13.0640   11.2600   14.6050 O.3   703  OPG703     -0.2176
      8  C5        12.3570   13.5040   15.3480 C.3   703  OPG703      0.1783
      9  O8        12.0810   14.2170   14.1500 O.3   703  OPG703     -0.3508
     10  C7        11.2870   13.3320   16.4070 C.3   703  OPG703      0.2140
     11  C6        12.8390   14.9360   15.1510 C.3   703  OPG703      0.1477
     12  O7        11.8060   12.7650   17.5900 O.3   703  OPG703     -0.2176
@<TRIPOS>BOND
     1     9    11    1
     2     9     8    1
     3     7     6    1
     4     4     5    1
     5     4     6    1
     6     4     2    1
     7     1    11    1
     8     1     2    1
     9    11     8    1
    10     3     2    1
    11     8     6    1
    12     8    10    1
    13    10    12    1
