@<TRIPOS>MOLECULE
6cgt_DAG_A_1.pdb
 10 10 0 0 0
SMALL
GASTEIGER

@<TRIPOS>ATOM
      1  C1        12.8790   17.4470   10.0880 C.3   702  DAG702      0.1775
      2  C2        12.6740   18.1060   11.4230 C.3   702  DAG702      0.2130
      3  C3        13.6560   17.6120   12.5040 C.3   702  DAG702      0.2044
      4  C4        13.6860   16.1160   12.5560 C.3   702  DAG702      0.1517
      5  C5        14.0470   15.5790   11.1850 C.3   702  DAG702      0.1355
      6  C6        14.0860   14.0610   11.1560 C.3   702  DAG702      0.0337
      7  O2        12.8650   19.4720   11.2220 O.3   702  DAG702     -0.2177
      8  O3        13.2360   18.0970   13.7610 O.3   702  DAG702     -0.2187
      9  N4        14.6650   15.6490   13.5320 N.3   702  DAG702     -0.1276
     10  O5        13.0540   15.9880   10.2000 O.3   702  DAG702     -0.3519
@<TRIPOS>BOND
     1     1    10    1
     2     1     2    1
     3    10     5    1
     4     6     5    1
     5     5     4    1
     6     7     2    1
     7     2     3    1
     8     3     4    1
     9     3     8    1
    10     4     9    1
