@<TRIPOS>MOLECULE
6cha_PBA_C_1.pdb
 11 11 0 0 0
SMALL
GASTEIGER

@<TRIPOS>ATOM
      1  B         28.3530   20.6960   25.3240 B       1  PBA1        0.0000
      2  O1        29.5780   20.1100   25.5650 O.3     1  PBA1        0.0000
      3  O2        28.4030   21.7210   26.2570 O.3     1  PBA1        0.0000
      4  CA        27.0290   19.6870   25.4750 C.3     1  PBA1        0.0000
      5  CB        26.3870   19.4190   24.1190 C.3     1  PBA1        0.0000
      6  CG        25.4170   18.1830   24.2050 C.ar    1  PBA1        0.0000
      7  CD1       25.0600   17.6100   25.4270 C.ar    1  PBA1        0.0000
      8  CD2       24.8600   17.7190   22.9690 C.ar    1  PBA1        0.0000
      9  CE1       24.1820   16.5390   25.4530 C.ar    1  PBA1        0.0000
     10  CE2       23.9200   16.6590   23.0230 C.ar    1  PBA1        0.0000
     11  CZ        23.6190   16.0660   24.2720 C.ar    1  PBA1        0.0000
@<TRIPOS>BOND
     1     8    10   ar
     2     8     6   ar
     3    10    11   ar
     4     5     6    1
     5     5     4    1
     6     6     7   ar
     7    11     9   ar
     8     1     4    1
     9     1     2    1
    10     1     3    1
    11     7     9   ar
