@<TRIPOS>MOLECULE
6cox_HEM_A_1.pdb
 43 50 0 0 0
SMALL
GASTEIGER

@<TRIPOS>ATOM
      1  CHA       23.1940   34.7850   30.7840 C.2   682  HEM682      0.0000
      2  CHB       19.9190   38.2660   30.9520 C.2   682  HEM682      0.0000
      3  CHC       19.5800   37.6970   35.7110 C.2   682  HEM682      0.0000
      4  CHD       22.4390   33.8470   35.3980 C.2   682  HEM682      0.0000
      5  C1A       22.3270   35.7870   30.4170 C.ar  682  HEM682      0.0000
      6  C2A       22.2220   36.2990   29.0700 C.ar  682  HEM682      0.0000
      7  C3A       21.2790   37.2570   29.1180 C.ar  682  HEM682      0.0000
      8  C4A       20.8190   37.3330   30.4850 C.ar  682  HEM682      0.0000
      9  CMA       20.8060   38.1330   27.9780 C.3   682  HEM682      0.0000
     10  CAA       23.0490   35.8480   27.8690 C.3   682  HEM682      0.0000
     11  CBA       22.2380   35.0710   26.8340 C.3   682  HEM682      0.0000
     12  CGA       22.8620   33.7340   26.4520 C.2   682  HEM682      0.0000
     13  O1A       22.8330   32.7910   27.2890 O.co2 682  HEM682      0.0000
     14  O2A       23.3610   33.6270   25.3060 O.co2 682  HEM682      0.0000
     15  C1B       19.5500   38.4210   32.2710 C.2   682  HEM682      0.0000
     16  C2B       18.6880   39.4740   32.7530 C.2   682  HEM682      0.0000
     17  C3B       18.6720   39.3840   34.0980 C.2   682  HEM682      0.0000
     18  C4B       19.4640   38.2220   34.4410 C.2   682  HEM682      0.0000
     19  CMB       17.8500   40.4210   31.8970 C.3   682  HEM682      0.0000
     20  CAB       18.0850   40.3020   34.9440 C.3   682  HEM682      0.0000
     21  CBB       18.8840   41.0900   35.8500 C.3   682  HEM682      0.0000
     22  C1C       20.2690   36.5440   36.0240 C.ar  682  HEM682      0.0000
     23  C2C       20.3430   35.9650   37.3430 C.ar  682  HEM682      0.0000
     24  C3C       21.0850   34.8430   37.2330 C.ar  682  HEM682      0.0000
     25  C4C       21.5120   34.7590   35.8580 C.ar  682  HEM682      0.0000
     26  CMC       19.7740   36.5230   38.6230 C.3   682  HEM682      0.0000
     27  CAC       21.3140   33.8990   38.2130 C.3   682  HEM682      0.0000
     28  CBC       22.6610   33.5270   38.6180 C.3   682  HEM682      0.0000
     29  C1D       22.9400   33.8100   34.1180 C.2   682  HEM682      0.0000
     30  C2D       23.9970   32.9220   33.6690 C.2   682  HEM682      0.0000
     31  C3D       24.2350   33.2310   32.3900 C.2   682  HEM682      0.0000
     32  C4D       23.3040   34.2630   32.0390 C.2   682  HEM682      0.0000
     33  CMD       24.7210   31.8560   34.4700 C.3   682  HEM682      0.0000
     34  CAD       25.3990   32.7660   31.5420 C.3   682  HEM682      0.0000
     35  CBD       26.6310   33.6760   31.6810 C.3   682  HEM682      0.0000
     36  CGD       27.6030   33.5570   30.5080 C.2   682  HEM682      0.0000
     37  O1D       27.7500   32.4480   29.9310 O.co2 682  HEM682      0.0000
     38  O2D       28.2230   34.5880   30.1640 O.co2 682  HEM682      0.0000
     39  NA        21.4610   36.4220   31.2770 N.ar  682  HEM682      0.0000
     40  NB        20.0150   37.6490   33.3090 N.2   682  HEM682      0.0000
     41  NC        20.9780   35.7860   35.1050 N.ar  682  HEM682      0.0000
     42  ND        22.5260   34.6480   33.1040 N.2   682  HEM682      0.0000
     43 FE         21.1950   36.1040   33.1770 Fe    682  HEM682      0.0000
@<TRIPOS>BOND
     1    14    12   ar
     2    12    11    1
     3    12    13   ar
     4    11    10    1
     5    10     6    1
     6     9     7    1
     7     6     7   ar
     8     6     5   ar
     9     7     8   ar
    10    37    36   ar
    11    38    36   ar
    12     5     1    2
    13     5    39   ar
    14     8     2    2
    15     8    39   ar
    16    36    35    1
    17     1    32    1
    18     2    15    1
    19    39    43    1
    20    34    35    1
    21    34    31    1
    22    19    16    1
    23    32    31    1
    24    32    42    2
    25    15    16    1
    26    15    40    2
    27    31    30    2
    28    16    17    2
    29    42    43    1
    30    42    29    1
    31    43    40    1
    32    43    41    1
    33    40    18    1
    34    30    29    1
    35    30    33    1
    36    17    18    1
    37    17    20    1
    38    29     4    2
    39    18     3    2
    40    20    21    1
    41    41    25   ar
    42    41    22   ar
    43     4    25    1
    44     3    22    1
    45    25    24   ar
    46    22    23   ar
    47    24    23   ar
    48    24    27    1
    49    23    26    1
    50    27    28    1
