@<TRIPOS>MOLECULE
6cox_S58_A_1.pdb
 26 28 0 0 0
SMALL
GASTEIGER

@<TRIPOS>ATOM
      1  C1        26.5160   23.5000   48.3410 C.ar  701  S58701      0.0440
      2  C2        25.3480   23.4870   47.7240 C.ar  701  S58701      0.0842
      3  C3        26.3440   22.8380   49.6420 C.ar  701  S58701      0.1740
      4  C4        27.3710   22.7160   50.7040 C.3   701  S58701      0.4366
      5  C5        23.0300   22.8360   48.3890 C.ar  701  S58701      0.0829
      6  C6        22.3220   21.8820   49.1400 C.ar  701  S58701      0.0205
      7  C7        20.9290   21.8370   49.0970 C.ar  701  S58701      0.0216
      8  C8        20.2340   22.7410   48.2970 C.ar  701  S58701      0.1251
      9  C9        20.9310   23.7030   47.5280 C.ar  701  S58701      0.0216
     10  C10       22.3370   23.7540   47.5730 C.ar  701  S58701      0.0205
     11  C11       25.1400   24.0310   46.3770 C.ar  701  S58701      0.0178
     12  C12       25.6140   25.3240   46.0910 C.ar  701  S58701      0.0020
     13  C13       25.5110   25.8260   44.7860 C.ar  701  S58701      0.0067
     14  C14       24.9410   25.0320   43.7850 C.ar  701  S58701      0.0346
     15  C15       24.4530   23.7430   44.0620 C.ar  701  S58701      0.0067
     16  C16       24.5500   23.2390   45.3640 C.ar  701  S58701      0.0020
     17  N1        24.4370   22.8660   48.5210 N.ar  701  S58701     -0.2297
     18  N2        25.1210   22.4560   49.7260 N.ar  701  S58701     -0.1611
     19  N3        17.7920   23.6300   49.5410 N.3   701  S58701      0.0392
     20  O1        18.1390   21.2260   48.4160 O.2   701  S58701     -0.1503
     21  O2        17.9120   23.0820   47.0180 O.2   701  S58701     -0.1503
     22 BR1        24.8760   25.6810   42.0800 Br    701  S58701     -0.0490
     23  F1        26.8200   22.9600   51.8880 F     701  S58701     -0.1643
     24  F2        28.3060   23.6390   50.4780 F     701  S58701     -0.1643
     25  F3        27.8870   21.4830   50.6680 F     701  S58701     -0.1643
     26  S1        18.4310   22.6150   48.2540 S.O2  701  S58701      0.0935
@<TRIPOS>BOND
     1    22    14    1
     2    14    15   ar
     3    14    13   ar
     4    15    16   ar
     5    13    12   ar
     6    16    11   ar
     7    12    11   ar
     8    11     2    1
     9    21    26    2
    10     9    10   ar
    11     9     8   ar
    12    10     5   ar
    13     2     1   ar
    14     2    17   ar
    15    26     8    1
    16    26    20    2
    17    26    19    1
    18     8     7   ar
    19     1     3   ar
    20     5    17    1
    21     5     6   ar
    22    17    18   ar
    23     7     6   ar
    24     3    18   ar
    25     3     4    1
    26    24     4    1
    27    25     4    1
    28     4    23    1
