@<TRIPOS>MOLECULE
6cp4_HEM_A_1.pdb
 47 54 0 0 0
SMALL
GASTEIGER

@<TRIPOS>ATOM
      1  CHA        9.0680    7.2420    8.8040 C.2   417  HEM417      0.0000
      2  CHB        4.6040    9.0210    9.3530 C.2   417  HEM417      0.0000
      3  CHC        2.7600    4.5290    9.3630 C.2   417  HEM417      0.0000
      4  CHD        7.2490    2.7980    9.5160 C.2   417  HEM417      0.0000
      5  C1A        8.0160    8.1390    8.9020 C.2   417  HEM417      0.0000
      6  C2A        8.1590    9.6200    8.9110 C.2   417  HEM417      0.0000
      7  C3A        6.8940   10.1070    9.1180 C.2   417  HEM417      0.0000
      8  C4A        5.9870    8.9410    9.2350 C.2   417  HEM417      0.0000
      9  CMA        6.4700   11.5800    9.2210 C.3   417  HEM417      0.0000
     10  CAA        9.4630   10.4090    8.7820 C.3   417  HEM417      0.0000
     11  CBA       10.0060   10.9070   10.1200 C.3   417  HEM417      0.0000
     12  CGA       11.3420   11.6260    9.9970 C.2   417  HEM417      0.0000
     13  O1A       11.7040   12.0540    8.8910 O.co2 417  HEM417      0.0000
     14  O2A       12.0310   11.7710   11.0180 O.co2 417  HEM417      0.0000
     15  C1B        3.7050    7.9720    9.3530 C.ar  417  HEM417      0.0000
     16  C2B        2.2550    8.1150    9.3250 C.ar  417  HEM417      0.0000
     17  C3B        1.7010    6.8570    9.2430 C.ar  417  HEM417      0.0000
     18  C4B        2.8580    5.9400    9.2480 C.ar  417  HEM417      0.0000
     19  CMB        1.4720    9.4160    9.3520 C.3   417  HEM417      0.0000
     20  CAB        0.3820    6.4520    9.1600 C.2   417  HEM417      0.0000
     21  CBB       -0.7800    7.1280    9.3410 C.2   417  HEM417      0.0000
     22  C1C        3.8250    3.6750    9.5140 C.2   417  HEM417      0.0000
     23  C2C        3.6820    2.2340    9.6740 C.2   417  HEM417      0.0000
     24  C3C        4.9610    1.7480    9.7490 C.2   417  HEM417      0.0000
     25  C4C        5.8690    2.9010    9.6180 C.2   417  HEM417      0.0000
     26  CMC        2.3680    1.4330    9.6190 C.3   417  HEM417      0.0000
     27  CAC        5.3240    0.3990    9.7740 C.2   417  HEM417      0.0000
     28  CBC        5.5110   -0.2400   10.9550 C.2   417  HEM417      0.0000
     29  C1D        8.1340    3.8460    9.2050 C.ar  417  HEM417      0.0000
     30  C2D        9.5790    3.6750    9.0810 C.ar  417  HEM417      0.0000
     31  C3D       10.0970    4.9140    8.9060 C.ar  417  HEM417      0.0000
     32  C4D        8.9500    5.8550    8.8920 C.ar  417  HEM417      0.0000
     33  CMD       10.3470    2.3640    9.2200 C.3   417  HEM417      0.0000
     34  CAD       11.5780    5.2700    8.8300 C.3   417  HEM417      0.0000
     35  CBD       12.1470    5.3890    7.4210 C.3   417  HEM417      0.0000
     36  CGD       13.5670    5.9480    7.3890 C.2   417  HEM417      0.0000
     37  O1D       14.1500    5.9850    6.2950 O.co2 417  HEM417      0.0000
     38  O2D       14.1070    6.3600    8.4400 O.co2 417  HEM417      0.0000
     39  NA         6.6970    7.7460    9.0780 N.2   417  HEM417      0.0000
     40  NB         4.0840    6.6230    9.2750 N.ar  417  HEM417      0.0000
     41  NC         5.1570    4.0610    9.4400 N.2   417  HEM417      0.0000
     42  ND         7.7480    5.1960    9.0320 N.ar  417  HEM417      0.0000
     43 FE          5.8960    5.8810    8.9990 Fe    417  HEM417      0.0000
     44  HHB        4.2630    9.7870    8.6670 H     417  HEM417      0.0000
     45  HHC        2.0650    4.1800    8.6020 H     417  HEM417      0.0000
     46  HHD        7.6070    2.2550   10.3970 H     417  HEM417      0.0000
     47  HHA       10.0500    7.6450    8.5430 H     417  HEM417      0.0000
@<TRIPOS>BOND
     1    37    36   ar
     2    36    35    1
     3    36    38   ar
     4    35    34    1
     5    47     1    1
     6    45     3    1
     7    44     2    1
     8    10     6    1
     9    10    11    1
    10     1    32    2
    11     1     5    1
    12    34    31    1
    13    13    12   ar
    14    32    31   ar
    15    32    42   ar
    16     5     6    1
    17     5    39    2
    18    31    30   ar
    19     6     7    2
    20    43    42    1
    21    43    39    1
    22    43    40    1
    23    43    41    1
    24    42    29   ar
    25    39     8    1
    26    30    29   ar
    27    30    33    1
    28     7     9    1
    29     7     8    1
    30    20    17    1
    31    20    21    2
    32    29     4    2
    33     8     2    2
    34    17    18   ar
    35    17    16   ar
    36    18    40   ar
    37    18     3    1
    38    40    15   ar
    39    16    19    1
    40    16    15   ar
    41     2    15    1
    42     3    22    2
    43    41    22    1
    44    41    25    2
    45    22    23    1
    46     4    25    1
    47     4    46    1
    48    25    24    1
    49    26    23    1
    50    23    24    2
    51    24    27    1
    52    27    28    2
    53    12    11    1
    54    12    14   ar
