@<TRIPOS>MOLECULE
6cp4_CAM_A_1.pdb
 11 12 0 0 0
SMALL
GASTEIGER

@<TRIPOS>ATOM
      1  C1         7.5550    7.6260   14.5680 C.3   422  CAM422      0.0515
      2  C2         9.0490    7.6810   14.3380 C.2   422  CAM422      0.1498
      3  O          9.8690    7.6740   15.2530 O.2   422  CAM422     -0.2961
      4  C3         9.4100    7.8290   12.9050 C.3   422  CAM422      0.0645
      5  C4         7.9740    7.8210   12.3570 C.3   422  CAM422      0.0077
      6  C5         7.4420    6.3640   12.5680 C.3   422  CAM422      0.0009
      7  C6         7.0710    6.2450   14.0750 C.3   422  CAM422      0.0069
      8  C7         7.2050    8.5690   13.4350 C.3   422  CAM422      0.0066
      9  C8         7.7950   10.0010   13.6560 C.3   422  CAM422      0.0004
     10  C9         5.6850    8.5650   13.1580 C.3   422  CAM422      0.0004
     11  C10        7.1460    8.1360   15.9340 C.3   422  CAM422      0.0073
@<TRIPOS>BOND
     1     5     6    1
     2     5     4    1
     3     5     8    1
     4     6     7    1
     5     4     2    1
     6    10     8    1
     7     8     9    1
     8     8     1    1
     9     7     1    1
    10     2     1    1
    11     2     3    2
    12     1    11    1
