@<TRIPOS>MOLECULE
6cpa_ZAF_A_1.pdb
 33 34 0 0 0
SMALL
GASTEIGER

@<TRIPOS>ATOM
      1  C1        44.3810   21.7620   33.7870 C.2   309  ZAF309      0.3922
      2  O1A       43.3530   21.9810   33.0060 O.co2 309  ZAF309     -0.2429
      3  O1B       44.9330   20.7080   33.7910 O.co2 309  ZAF309     -0.2429
      4  C2A       45.8010   23.7200   33.8630 C.3   309  ZAF309      0.0681
      5  C2        44.7860   22.8600   34.6250 C.3   309  ZAF309      0.2305
      6  CP1       45.4530   24.3240   32.6120 C.ar  309  ZAF309     -0.0191
      7  CP2       44.9300   25.5720   32.5610 C.ar  309  ZAF309     -0.0042
      8  CP3       44.5940   26.1140   31.3700 C.ar  309  ZAF309     -0.0003
      9  CP4       44.8270   25.4430   30.2220 C.ar  309  ZAF309     -0.0000
     10  CP5       45.3800   24.2100   30.2690 C.ar  309  ZAF309     -0.0003
     11  CP6       45.6730   23.6490   31.4630 C.ar  309  ZAF309     -0.0042
     12  O3        45.3620   22.1520   35.7500 O.3   309  ZAF309     -0.2821
     13  P3        44.3570   21.6130   37.0050 P.3   309  ZAF309      0.3891
     14  O3A       43.1950   20.7680   36.4200 O.2   309  ZAF309     -0.2537
     15  O3B       43.9570   22.8250   37.8750 O.3   309  ZAF309     -0.1383
     16  C4        45.3160   20.6070   38.0430 C.3   309  ZAF309      0.2007
     17  C4A       46.5850   21.2440   38.6590 C.3   309  ZAF309      0.0367
     18  N5        45.7960   19.4980   37.2930 N.am  309  ZAF309     -0.1932
     19  C6        45.3570   18.2410   37.4320 C.2   309  ZAF309      0.2618
     20  O6        44.3410   18.0080   38.0120 O.2   309  ZAF309     -0.2715
     21  C7        46.1970   17.2370   36.8460 C.3   309  ZAF309      0.1762
     22  C7A       45.5300   16.7620   35.5390 C.3   309  ZAF309      0.0335
     23  N8        46.5150   16.1430   37.6990 N.am  309  ZAF309     -0.1611
     24  C9        47.2360   16.1680   38.8220 C.2   309  ZAF309      0.4218
     25  O9        47.3660   15.1310   39.4080 O.2   309  ZAF309     -0.2245
     26  O10       47.7820   17.3100   39.2160 O.3   309  ZAF309     -0.4285
     27  C11       48.9620   17.2330   39.9760 C.3   309  ZAF309      0.2368
     28  C1X       49.7750   18.4090   40.1040 C.ar  309  ZAF309      0.0213
     29  C2X       50.2630   18.9960   38.9920 C.ar  309  ZAF309     -0.0007
     30  C3X       51.0300   20.1000   39.0890 C.ar  309  ZAF309     -0.0002
     31  C4X       51.3450   20.5950   40.3010 C.ar  309  ZAF309     -0.0000
     32  C5X       50.8600   20.0080   41.4110 C.ar  309  ZAF309     -0.0002
     33  C6X       50.0880   18.9060   41.3200 C.ar  309  ZAF309     -0.0007
@<TRIPOS>BOND
     1     9    10   ar
     2     9     8   ar
     3    10    11   ar
     4     8     7   ar
     5    11     6   ar
     6     7     6   ar
     7     6     4    1
     8     2     1   ar
     9     1     3   ar
    10     1     5    1
    11     4     5    1
    12     5    12    1
    13    22    21    1
    14    12    13    1
    15    14    13    2
    16    21    19    1
    17    21    23    1
    18    13    15    1
    19    13    16    1
    20    18    19   am
    21    18    16    1
    22    19    20    2
    23    23    24   am
    24    16    17    1
    25    24    26    1
    26    24    25    2
    27    29    30   ar
    28    29    28   ar
    29    30    31   ar
    30    26    27    1
    31    27    28    1
    32    28    33   ar
    33    31    32   ar
    34    33    32   ar
