@<TRIPOS>MOLECULE
6cpp_HEM_A_1.pdb
 43 50 0 0 0
SMALL
GASTEIGER

@<TRIPOS>ATOM
      1 FE         48.3610   46.3180    8.8910 Fe    417  HEM417      0.0000
      2  CHA       45.3110   44.9110    8.7420 C.2   417  HEM417      0.0000
      3  CHB       49.7690   43.1390    9.3410 C.2   417  HEM417      0.0000
      4  CHC       51.4280   47.6830    9.2520 C.2   417  HEM417      0.0000
      5  CHD       46.9270   49.3750    9.5610 C.2   417  HEM417      0.0000
      6  NA        47.6600   44.4220    9.0740 N.ar  417  HEM417      0.0000
      7  C1A       46.3570   44.0230    8.9210 C.ar  417  HEM417      0.0000
      8  C2A       46.2780   42.5930    8.9080 C.ar  417  HEM417      0.0000
      9  C3A       47.5020   42.1030    9.1350 C.ar  417  HEM417      0.0000
     10  C4A       48.4080   43.2570    9.1960 C.ar  417  HEM417      0.0000
     11  CMA       48.0300   40.6760    9.2320 C.3   417  HEM417      0.0000
     12  CAA       44.9660   41.7960    8.7400 C.3   417  HEM417      0.0000
     13  CBA       44.3540   41.3360   10.0590 C.3   417  HEM417      0.0000
     14  CGA       43.0970   40.4660    9.8870 C.2   417  HEM417      0.0000
     15  O1A       42.9110   39.9510    8.7830 O.co2 417  HEM417      0.0000
     16  O2A       42.6170   40.2410   11.0490 O.co2 417  HEM417      0.0000
     17  NB        50.2170   45.5420    9.3980 N.2   417  HEM417      0.0000
     18  C1B       50.6020   44.2240    9.3300 C.2   417  HEM417      0.0000
     19  C2B       52.0720   44.1430    9.2710 C.2   417  HEM417      0.0000
     20  C3B       52.5370   45.3940    9.2650 C.2   417  HEM417      0.0000
     21  C4B       51.3730   46.2970    9.3010 C.2   417  HEM417      0.0000
     22  CMB       52.8620   42.8280    9.2160 C.3   417  HEM417      0.0000
     23  CAB       53.9590   45.9260    9.1540 C.2   417  HEM417      0.0000
     24  CBB       55.0650   45.2720    9.2930 C.2   417  HEM417      0.0000
     25  NC        49.0670   48.1670    9.4430 N.ar  417  HEM417      0.0000
     26  C1C       50.3640   48.5740    9.3450 C.ar  417  HEM417      0.0000
     27  C2C       50.4500   50.0200    9.3860 C.ar  417  HEM417      0.0000
     28  C3C       49.2090   50.4720    9.5070 C.ar  417  HEM417      0.0000
     29  C4C       48.3170   49.3050    9.6200 C.ar  417  HEM417      0.0000
     30  CMC       51.7630   50.8330    9.2580 C.3   417  HEM417      0.0000
     31  CAC       48.6830   51.9100    9.5410 C.2   417  HEM417      0.0000
     32  CBC       48.8250   52.6370   10.6410 C.2   417  HEM417      0.0000
     33  ND        46.4870   47.0190    9.1710 N.2   417  HEM417      0.0000
     34  C1D       46.0930   48.3340    9.2370 C.2   417  HEM417      0.0000
     35  C2D       44.6450   48.4020    9.0190 C.2   417  HEM417      0.0000
     36  C3D       44.2050   47.1610    8.8740 C.2   417  HEM417      0.0000
     37  C4D       45.3470   46.2500    8.9700 C.2   417  HEM417      0.0000
     38  CMD       43.8610   49.7290    9.0370 C.3   417  HEM417      0.0000
     39  CAD       42.7760   46.6240    8.6250 C.3   417  HEM417      0.0000
     40  CBD       42.1970   46.6350    7.2400 C.3   417  HEM417      0.0000
     41  CGD       40.7710   45.9980    7.1740 C.2   417  HEM417      0.0000
     42  O1D       40.2410   46.2360    6.0870 O.co2 417  HEM417      0.0000
     43  O2D       40.3710   45.3490    8.1680 O.co2 417  HEM417      0.0000
@<TRIPOS>BOND
     1    42    41   ar
     2    41    40    1
     3    41    43   ar
     4    40    39    1
     5    39    36    1
     6    12     8    1
     7    12    13    1
     8     2     7    2
     9     2    37    1
    10    15    14   ar
    11    36    37    1
    12    36    35    2
    13     1     6    1
    14     1    33    1
    15     1    17    1
    16     1    25    1
    17     8     7   ar
    18     8     9   ar
    19     7     6   ar
    20    37    33    2
    21    35    38    1
    22    35    34    1
    23     6    10   ar
    24     9    10   ar
    25     9    11    1
    26    23    20    1
    27    23    24    2
    28    33    34    1
    29    10     3    2
    30    22    19    1
    31    34     5    2
    32     4    21    2
    33     4    26    1
    34    30    27    1
    35    20    19    2
    36    20    21    1
    37    19    18    1
    38    21    17    1
    39    18     3    1
    40    18    17    2
    41    26    27   ar
    42    26    25   ar
    43    27    28   ar
    44    25    29   ar
    45    28    31    1
    46    28    29   ar
    47    31    32    2
    48     5    29    1
    49    14    13    1
    50    14    16   ar
