@<TRIPOS>MOLECULE
6cpp_CAE_A_1.pdb
 10 11 0 0 0
SMALL
GASTEIGER

@<TRIPOS>ATOM
      1  C1        46.2370   44.2840   14.6880 C.3   422  CAE422      0.0000
      2  C2        44.6790   44.1680   14.3050 C.3   422  CAE422      0.0000
      3  C3        44.5950   44.2610   12.7480 C.3   422  CAE422      0.0000
      4  C4        46.0760   44.4430   12.2310 C.3   422  CAE422      0.0000
      5  C5        46.5190   45.8820   12.7690 C.3   422  CAE422      0.0000
      6  C6        46.6130   45.7540   14.3200 C.3   422  CAE422      0.0000
      7  C7        46.8020   43.5790   13.3640 C.3   422  CAE422      0.0000
      8  C8        46.5360   42.0460   13.3010 C.3   422  CAE422      0.0000
      9  C9        48.3370   43.5410   13.1890 C.3   422  CAE422      0.0000
     10  C10       46.5800   43.6920   15.9890 C.3   422  CAE422      0.0000
@<TRIPOS>BOND
     1     4     3    1
     2     4     5    1
     3     4     7    1
     4     3     2    1
     5     5     6    1
     6     9     7    1
     7     8     7    1
     8     7     1    1
     9     2     1    1
    10     6     1    1
    11     1    10    1
