@<TRIPOS>MOLECULE
6csc_CIT_A_1.pdb
 13 12 0 0 0
SMALL
GASTEIGER

@<TRIPOS>ATOM
      1  C1        35.2890   41.5360    5.8090 C.2   701  CIT701      0.3680
      2  O1        34.8850   40.6610    5.0400 O.co2 701  CIT701     -0.2455
      3  O2        34.5960   42.5440    6.1260 O.co2 701  CIT701     -0.2455
      4  C2        36.7110   41.3500    6.3450 C.3   701  CIT701      0.1560
      5  C3        37.1720   42.5100    7.2380 C.3   701  CIT701      0.2402
      6  O7        37.1610   43.7420    6.4700 O.3   701  CIT701     -0.2129
      7  C4        38.5860   42.3090    7.7510 C.3   701  CIT701      0.1560
      8  C5        39.5320   42.1930    6.6080 C.2   701  CIT701      0.3680
      9  O3        39.9830   41.0560    6.4410 O.co2 701  CIT701     -0.2455
     10  O4        39.7160   43.2000    5.8780 O.co2 701  CIT701     -0.2455
     11  C6        36.3180   42.5500    8.4910 C.2   701  CIT701      0.3927
     12  O5        35.8160   41.4690    8.7890 O.co2 701  CIT701     -0.2429
     13  O6        36.3120   43.5510    9.2300 O.co2 701  CIT701     -0.2429
@<TRIPOS>BOND
     1     2     1   ar
     2     1     3   ar
     3     1     4    1
     4    10     8   ar
     5     4     5    1
     6     9     8   ar
     7     6     5    1
     8     8     7    1
     9     5     7    1
    10     5    11    1
    11    11    12   ar
    12    11    13   ar
