@<TRIPOS>MOLECULE
6dfr_NAP_A_1.pdb
 36 38 0 0 0
SMALL
GASTEIGER

@<TRIPOS>ATOM
      1  PA        18.9820   17.7050   25.9800 P.3   164  NAP164      0.2189
      2  O1A       17.7400   18.2520   25.3210 O.2   164  NAP164     -0.5170
      3  O2A       19.4860   18.5890   27.0570 O.3   164  NAP164     -0.4371
      4  O5B       18.7950   16.1310   26.4340 O.3   164  NAP164     -0.3112
      5  C5B       17.8910   15.2800   25.7650 C.3   164  NAP164      0.1813
      6  C4B       17.5990   14.0320   26.5930 C.3   164  NAP164      0.1820
      7  O4B       16.5780   14.2200   27.1320 O.3   164  NAP164     -0.3136
      8  C3B       17.4240   12.7650   25.6570 C.3   164  NAP164      0.2157
      9  O3B       18.7370   12.0610   25.6500 O.3   164  NAP164     -0.2175
     10  C2B       16.4660   11.9770   26.5910 C.3   164  NAP164      0.2314
     11  O2B       17.2110   11.4370   27.6440 O.3   164  NAP164     -0.2630
     12  C1B       15.6560   13.1090   27.1730 C.3   164  NAP164      0.3158
     13  N9A       14.5550   13.4740   26.2590 N.pl3 164  NAP164     -0.1439
     14  C8A       14.6050   14.5380   25.4340 C.3   164  NAP164      0.3377
     15  N7A       13.3960   14.6230   24.8320 N.2   164  NAP164     -0.2095
     16  C5A       12.6800   13.5190   25.3890 C.2   164  NAP164      0.2526
     17  C6A       11.2380   12.9190   25.2160 C.2   164  NAP164      0.4393
     18  N6A       10.3080   13.4520   24.3540 N.pl3 164  NAP164      0.2180
     19  N1A       10.9280   11.8360   25.9180 N.2   164  NAP164      0.0021
     20  C2A       11.8810   11.3680   26.7550 C.3   164  NAP164      0.5254
     21  N3A       13.1450   11.7430   26.9480 N.2   164  NAP164     -0.0055
     22  C4A       13.4570   12.8330   26.2120 C.2   164  NAP164      0.3518
     23  O3        20.1950   17.5810   25.0450 O.3   164  NAP164     -0.2703
     24  PN        20.8050   18.1100   23.7270 P.3   164  NAP164      0.2189
     25  O1N       19.9640   18.0120   22.5710 O.2   164  NAP164     -0.5170
     26  O2N       22.1670   17.5650   23.4820 O.3   164  NAP164     -0.4371
     27  O5D       21.0480   19.7180   24.1250 O.3   164  NAP164     -0.3111
     28  C5D       22.1000   20.1220   25.0760 C.3   164  NAP164      0.1846
     29  C4D       23.1660   21.0030   24.4220 C.3   164  NAP164      0.2146
     30  O4D       22.7340   22.3930   24.4180 O.3   164  NAP164     -0.2176
     31  C3D       24.5950   21.0990   25.1460 C.3   164  NAP164      0.2174
     32  O3D       25.3480   22.3160   24.7370 O.3   164  NAP164     -0.2175
     33  P2B       17.6040    9.9360   27.6280 P.3   164  NAP164      0.5328
     34  O1X       17.9790    9.5910   29.0550 O.3   164  NAP164     -0.1145
     35  O2X       16.3390    9.2830   27.1550 O.3   164  NAP164     -0.1145
     36  O3X       18.7460    9.7890   26.6390 O.2   164  NAP164     -0.2224
@<TRIPOS>BOND
     1    25    24    2
     2    26    24    1
     3    24    27    1
     4    24    23    1
     5    27    28    1
     6    18    17    1
     7    30    29    1
     8    29    28    1
     9    29    31    1
    10    32    31    1
    11    15    16    2
    12    15    14    1
    13    23     1    1
    14    17    16    1
    15    17    19    2
    16     2     1    2
    17    16    22    1
    18    14    13    1
    19     9     8    1
    20     8    10    1
    21     8     6    1
    22     5     4    1
    23     5     6    1
    24    19    20    1
    25     1     4    1
    26     1     3    1
    27    22    13    1
    28    22    21    2
    29    13    12    1
    30    10    12    1
    31    10    11    1
    32     6     7    1
    33    36    33    2
    34    20    21    1
    35     7    12    1
    36    35    33    1
    37    33    11    1
    38    33    34    1
