@<TRIPOS>MOLECULE
6fit_AMW_A_1.pdb
 23 25 0 0 0
SMALL
GASTEIGER

@<TRIPOS>ATOM
      1  W         10.2200   18.5140   20.8910 W     148  AMW148      0.0000
      2  O1W       10.2260   19.2440   19.3540 O.3   148  AMW148      0.0000
      3  O2W       11.0690   17.0440   21.1360 O.3   148  AMW148      0.0000
      4  O3W        8.6220   17.5150   20.5070 O.3   148  AMW148      0.0000
      5  O5'        9.3370   19.2620   22.1670 O.3   148  AMW148      0.0000
      6  C5'        9.0850   20.4390   22.6300 C.3   148  AMW148      0.0000
      7  C4'        9.4230   20.5360   24.1470 C.3   148  AMW148      0.0000
      8  O4'        9.1810   21.8750   24.7640 O.3   148  AMW148      0.0000
      9  C3'        8.3430   19.5600   24.7470 C.3   148  AMW148      0.0000
     10  O3'        8.8270   18.7500   25.8050 O.3   148  AMW148      0.0000
     11  C2'        7.2730   20.5320   25.2390 C.3   148  AMW148      0.0000
     12  O2'        6.4150   19.9330   26.2160 O.3   148  AMW148      0.0000
     13  C1'        8.1760   21.6550   25.8230 C.3   148  AMW148      0.0000
     14  N9         7.5700   22.9950   26.1360 N.pl3 148  AMW148      0.5000
     15  C8         6.8470   23.8010   25.2920 C.3   148  AMW148      0.0000
     16  N7         7.3590   25.0250   25.1640 N.2   148  AMW148      0.0000
     17  C5         7.9590   25.1540   26.4130 C.2   148  AMW148      0.0000
     18  C6         8.4480   26.3250   27.1580 C.2   148  AMW148      0.0000
     19  N6         8.6310   27.5190   26.5530 N.pl3 148  AMW148      0.5000
     20  N1         8.6840   26.0810   28.4740 N.2   148  AMW148      0.5000
     21  C2         8.9040   24.8440   28.9630 C.3   148  AMW148      0.0000
     22  N3         8.6170   23.6900   28.3080 N.2   148  AMW148      0.5000
     23  C4         8.0900   23.9250   27.0410 C.2   148  AMW148      0.0000
@<TRIPOS>BOND
     1     2     1    1
     2     4     1    1
     3     1     3    1
     4     1     5    1
     5     5     6    1
     6     6     7    1
     7     7     9    1
     8     7     8    1
     9     9    11    1
    10     9    10    1
    11     8    13    1
    12    16    15    1
    13    16    17    2
    14    11    13    1
    15    11    12    1
    16    15    14    1
    17    13    14    1
    18    14    23    1
    19    17    23    1
    20    17    18    1
    21    19    18    1
    22    23    22    2
    23    18    20    2
    24    22    21    1
    25    20    21    1
