@<TRIPOS>MOLECULE
6gch_APF_G_1.pdb
 18 18 0 0 0
SMALL
GASTEIGER

@<TRIPOS>ATOM
      1  CN2       36.5950   73.1230   87.8860 C.3   246  APF246      0.0964
      2  CN1       35.7010   74.2350   88.1310 C.2   246  APF246      0.2419
      3  ON1       34.7290   74.2040   88.8510 O.2   246  APF246     -0.2733
      4  N3        36.2240   75.4220   87.5940 N.am  246  APF246     -0.2039
      5  C3        36.0440   76.6950   87.1720 C.3   246  APF246      0.1385
      6  C2        35.9260   77.0700   85.8060 C.3   246  APF246      0.2660
      7  C1        34.7680   76.2830   85.2130 C.3   246  APF246      0.4270
      8  C4        37.0530   77.6620   87.9000 C.3   246  APF246      0.0509
      9  O2        35.6070   78.5220   85.8550 O.3   246  APF246     -0.2121
     10  F11       35.0780   75.0580   85.1170 F     246  APF246     -0.1673
     11  F12       34.3750   76.7120   84.1420 F     246  APF246     -0.1673
     12  F13       33.7260   76.5410   85.9350 F     246  APF246     -0.1673
     13  CP1       37.1910   77.6250   89.4240 C.ar  246  APF246     -0.0204
     14  CP2       38.3230   78.0130   90.0210 C.ar  246  APF246     -0.0042
     15  CP3       38.4550   77.9640   91.3500 C.ar  246  APF246     -0.0003
     16  CP4       37.4550   77.4850   92.1110 C.ar  246  APF246     -0.0000
     17  CP5       36.3170   77.0840   91.5370 C.ar  246  APF246     -0.0003
     18  CP6       36.2070   77.1340   90.2090 C.ar  246  APF246     -0.0042
@<TRIPOS>BOND
     1    11     7    1
     2    10     7    1
     3     7     6    1
     4     7    12    1
     5     6     9    1
     6     6     5    1
     7     5     4    1
     8     5     8    1
     9     4     2   am
    10     1     2    1
    11     8    13    1
    12     2     3    2
    13    13    14   ar
    14    13    18   ar
    15    14    15   ar
    16    18    17   ar
    17    15    16   ar
    18    17    16   ar
