@<TRIPOS>MOLECULE
6gpb_AMP_A_1.pdb
 23 25 0 0 0
SMALL
GASTEIGER

@<TRIPOS>ATOM
      1  P         39.1060   40.3430   27.1230 P.3   913  AMP913      0.5327
      2  O1P       39.1830   40.2190   25.6540 O.2   913  AMP913     -0.2224
      3  O2P       40.2900   40.8650   27.8290 O.3   913  AMP913     -0.1145
      4  O3P       37.8910   41.3370   27.5190 O.3   913  AMP913     -0.1145
      5  O5'       38.6960   38.9370   27.7800 O.3   913  AMP913     -0.2675
      6  C5'       39.1670   37.6920   27.2800 C.3   913  AMP913      0.1860
      7  C4'       39.4190   36.6890   28.3620 C.3   913  AMP913      0.1823
      8  O4'       40.5200   37.0020   29.0420 O.3   913  AMP913     -0.3135
      9  C3'       38.3130   36.0400   29.1480 C.3   913  AMP913      0.2184
     10  O3'       38.3230   34.5970   29.2260 O.3   913  AMP913     -0.2174
     11  C2'       38.4690   36.8430   30.3970 C.3   913  AMP913      0.2570
     12  O2'       37.8280   36.2220   31.4990 O.3   913  AMP913     -0.2130
     13  C1'       39.9170   37.2730   30.4070 C.3   913  AMP913      0.3186
     14  N9        40.3760   38.2980   31.2870 N.pl3 913  AMP913     -0.1439
     15  C8        40.8930   39.4410   30.7860 C.3   913  AMP913      0.3377
     16  N7        40.8490   40.4240   31.8250 N.2   913  AMP913     -0.2095
     17  C5        40.3070   39.8280   32.9280 C.2   913  AMP913      0.2526
     18  C6        40.0730   40.4140   34.1370 C.2   913  AMP913      0.4393
     19  N6        39.9920   41.7480   34.4410 N.pl3 913  AMP913      0.2180
     20  N1        39.5290   39.5060   35.0620 N.2   913  AMP913      0.0021
     21  C2        39.2790   38.1160   34.6520 C.3   913  AMP913      0.5254
     22  N3        39.4720   37.6370   33.3690 N.2   913  AMP913     -0.0055
     23  C4        40.0030   38.5690   32.5600 C.2   913  AMP913      0.3518
@<TRIPOS>BOND
     1     2     1    2
     2     1     4    1
     3     1     5    1
     4     1     3    1
     5     6     5    1
     6     6     7    1
     7     7     8    1
     8     7     9    1
     9     8    13    1
    10     9    10    1
    11     9    11    1
    12    11    13    1
    13    11    12    1
    14    13    14    1
    15    15    14    1
    16    15    16    1
    17    14    23    1
    18    16    17    2
    19    23    17    1
    20    23    22    2
    21    17    18    1
    22    22    21    1
    23    18    19    1
    24    18    20    2
    25    21    20    1
