@<TRIPOS>MOLECULE
6gpb_PLP_A_1.pdb
 15 15 0 0 0
SMALL
GASTEIGER

@<TRIPOS>ATOM
      1  N1        24.7640   25.3700   30.2880 N.ar  999  PLP999     -0.2452
      2  C2        23.5890   24.6890   30.4970 C.ar  999  PLP999      0.0978
      3  C2A       22.6270   25.2710   31.4770 C.3   999  PLP999      0.0555
      4  C3        23.2580   23.5940   29.7280 C.ar  999  PLP999      0.2049
      5  O3        22.2180   22.7790   30.1320 O.3   999  PLP999     -0.2857
      6  C4        24.0820   23.2230   28.6750 C.ar  999  PLP999      0.0182
      7  C4A       23.7210   22.0950   27.7440 C.3   999  PLP999      0.0342
      8  C5        25.2320   23.9370   28.4400 C.ar  999  PLP999      0.0261
      9  C6        25.5640   24.9810   29.2560 C.ar  999  PLP999      0.0965
     10  C5A       26.1190   23.5790   27.2730 C.3   999  PLP999      0.1815
     11  O4P       26.0540   24.5430   26.2160 O.3   999  PLP999     -0.2653
     12  P         27.3090   24.8360   25.2850 P.3   999  PLP999      0.5329
     13  O1P       27.8140   23.5580   24.7870 O.3   999  PLP999     -0.1145
     14  O2P       26.8990   25.8550   24.2880 O.2   999  PLP999     -0.2224
     15  O3P       28.4140   25.5200   26.1700 O.3   999  PLP999     -0.1145
@<TRIPOS>BOND
     1    14    12    2
     2    13    12    1
     3    12    15    1
     4    12    11    1
     5    11    10    1
     6    10     8    1
     7     7     6    1
     8     8     6   ar
     9     8     9   ar
    10     6     4   ar
    11     9     1   ar
    12     4     5    1
    13     4     2   ar
    14     1     2   ar
    15     2     3    1
