@<TRIPOS>MOLECULE
6gpb_H2P_A_1.pdb
 17 17 0 0 0
SMALL
GASTEIGER

@<TRIPOS>ATOM
      1  C1        33.4830   23.0080   27.8320 C.3   998  H2P998      0.2280
      2  C2        33.6870   23.1710   26.3310 C.3   998  H2P998      0.2360
      3  C3        32.4770   22.6150   25.5910 C.3   998  H2P998      0.2196
      4  C4        32.3010   21.1400   25.9210 C.3   998  H2P998      0.2144
      5  C5        32.1120   20.9690   27.4240 C.3   998  H2P998      0.1833
      6  C6        32.0400   19.4930   27.7900 C.3   998  H2P998      0.2142
      7  C7        34.7000   23.4750   28.6160 C.3   998  H2P998      0.0646
      8  O1        32.3220   23.8330   28.1980 O.3   998  H2P998     -0.2468
      9  O2        33.8550   24.5900   26.0030 O.3   998  H2P998     -0.2150
     10  O3        32.6690   22.7800   24.1440 O.3   998  H2P998     -0.2174
     11  O4        31.1290   20.6140   25.2110 O.3   998  H2P998     -0.2176
     12  O5        33.2430   21.5870   28.1340 O.3   998  H2P998     -0.3288
     13  O6        33.2810   18.8050   27.4050 O.3   998  H2P998     -0.2176
     14  P         31.5120   25.0300   27.5030 P.3   998  H2P998      0.5344
     15  OP1       30.3860   24.4830   26.5240 O.2   998  H2P998     -0.2223
     16  OP2       30.8240   25.8660   28.6770 O.3   998  H2P998     -0.1145
     17  OP3       32.5150   25.9480   26.6810 O.3   998  H2P998     -0.1145
@<TRIPOS>BOND
     1    10     3    1
     2    11     4    1
     3     3     4    1
     4     3     2    1
     5     4     5    1
     6     9     2    1
     7     2     1    1
     8    15    14    2
     9    17    14    1
    10    13     6    1
    11     5     6    1
    12     5    12    1
    13    14     8    1
    14    14    16    1
    15     1    12    1
    16     1     8    1
    17     1     7    1
