@<TRIPOS>MOLECULE
6gpb_GLC_A_1.pdb
 12 12 0 0 0
SMALL
GASTEIGER

@<TRIPOS>ATOM
      1  C1        66.9220   24.7140   27.0480 C.2   903  GLC903      0.3505
      2  C2        66.2460   23.3280   27.0130 C.3   903  GLC903      0.2823
      3  C3        65.5440   23.0380   28.3510 C.3   903  GLC903      0.2270
      4  C4        66.5890   23.0860   29.4500 C.3   903  GLC903      0.2276
      5  C5        67.2550   24.5000   29.4150 C.3   903  GLC903      0.2344
      6  C6        68.3530   24.6470   30.4560 C.3   903  GLC903      0.2281
      7  O1        65.9760   25.7730   26.6600 O.2   903  GLC903     -0.2472
      8  O2        65.2920   23.3250   25.9530 O.3   903  GLC903     -0.2082
      9  O3        64.9560   21.7140   28.1330 O.3   903  GLC903     -0.2169
     10  O4        65.9880   22.9700   30.7410 O.3   903  GLC903     -0.2163
     11  O5        67.8430   24.7600   28.1260 O.3   903  GLC903     -0.4450
     12  O6        69.0820   23.4380   30.6740 O.3   903  GLC903     -0.2163
@<TRIPOS>BOND
     1     8     2    1
     2     7     1    2
     3     2     1    1
     4     2     3    1
     5     1    11    1
     6    11     5    1
     7     9     3    1
     8     3     4    1
     9     5     4    1
    10     5     6    1
    11     4    10    1
    12     6    12    1
