@<TRIPOS>MOLECULE
6gsp_3GP_A_1.pdb
 24 26 0 0 0
SMALL
GASTEIGER

@<TRIPOS>ATOM
      1  P         21.0300   37.9540   19.4660 P.3   105  3GP105      0.5327
      2  O1P       22.1610   37.7660   18.5290 O.2   105  3GP105     -0.2224
      3  O2P       21.2230   39.1890   20.2450 O.3   105  3GP105     -0.1145
      4  O3P       19.6910   37.9360   18.8250 O.3   105  3GP105     -0.1145
      5  O5'       20.0560   37.2610   23.1550 O.3   105  3GP105     -0.2176
      6  C5'       20.0940   35.8490   23.3540 C.3   105  3GP105      0.2141
      7  C4'       20.6260   35.1430   22.1440 C.3   105  3GP105      0.1802
      8  O4'       20.1740   33.8040   22.1190 O.3   105  3GP105     -0.3326
      9  C3'       20.0800   35.8190   20.9300 C.3   105  3GP105      0.1903
     10  O3'       21.1340   36.5280   20.3000 O.3   105  3GP105     -0.2674
     11  C2'       19.5990   34.7430   20.0680 C.3   105  3GP105      0.2283
     12  O2'       20.4690   34.5340   18.9930 O.3   105  3GP105     -0.2159
     13  C1'       19.5630   33.5010   20.8770 C.3   105  3GP105      0.2292
     14  N9        18.1350   33.1090   20.9100 N.pl3 105  3GP105     -0.2354
     15  C8        17.5560   31.9960   20.3400 C.3   105  3GP105      0.2246
     16  N7        16.2730   31.9380   20.4850 N.2   105  3GP105     -0.2322
     17  C5        15.9640   33.0790   21.1970 C.2   105  3GP105      0.2182
     18  C6        14.7100   33.5390   21.6410 C.1   105  3GP105      0.2372
     19  O6        13.6540   32.9580   21.4330 O.2   105  3GP105     -0.2069
     20  N1        14.7940   34.7470   22.3370 N.2   105  3GP105     -0.2485
     21  C2        15.9820   35.4370   22.5800 C.1   105  3GP105      0.2531
     22  N2        15.8870   36.5610   23.3130 N.pl3 105  3GP105     -0.0226
     23  N3        17.1870   34.9920   22.1450 N.2   105  3GP105     -0.3074
     24  C4        17.0930   33.8150   21.4690 C.2   105  3GP105      0.2300
@<TRIPOS>BOND
     1     2     1    2
     2     4     1    1
     3    12    11    1
     4     1     3    1
     5     1    10    1
     6    11    13    1
     7    11     9    1
     8    10     9    1
     9    15    16    1
    10    15    14    1
    11    16    17    2
    12    13    14    1
    13    13     8    1
    14    14    24    1
    15     9     7    1
    16    17    24    1
    17    17    18    1
    18    19    18    2
    19    24    23    2
    20    18    20    2
    21     8     7    1
    22     7     6    1
    23    23    21    2
    24    20    21    2
    25    21    22    1
    26     5     6    1
