@<TRIPOS>MOLECULE
6gss_GSH_A_1.pdb
 20 19 0 0 0
SMALL
GASTEIGER

@<TRIPOS>ATOM
      1  N1        14.8870   10.8830   23.2750 N.3   210  GSH210     -0.1208
      2  CA1       14.8200   10.1240   24.5530 C.3   210  GSH210      0.1948
      3  C1        15.8600    9.0010   24.5080 C.2   210  GSH210      0.3819
      4  O11       16.2810    8.6560   23.3810 O.co2 210  GSH210     -0.2441
      5  O12       16.2690    8.5000   25.5820 O.co2 210  GSH210     -0.2441
      6  CB1       13.4220    9.5430   24.7400 C.3   210  GSH210      0.0402
      7  CG1       13.2370    8.8430   26.0610 C.3   210  GSH210      0.0889
      8  CD1       11.9040    8.1510   26.1760 C.2   210  GSH210      0.2418
      9  OE1       11.1700    8.0080   25.1930 O.2   210  GSH210     -0.2733
     10  N2        11.5890    7.7290   27.3970 N.am  210  GSH210     -0.1968
     11  CA2       10.3450    7.0360   27.6980 C.3   210  GSH210      0.1843
     12  C2         9.8350    7.5230   29.0540 C.2   210  GSH210      0.2627
     13  O2        10.6230    7.7660   29.9730 O.2   210  GSH210     -0.2714
     14  CB2       10.5850    5.5210   27.7530 C.3   210  GSH210      0.0997
     15  SG2       11.4400    4.8130   26.3100 S.3   210  GSH210     -0.0797
     16  N3         8.5200    7.6630   29.1720 N.am  210  GSH210     -0.1917
     17  CA3        7.9320    8.1160   30.4170 C.3   210  GSH210      0.2285
     18  C3         7.3400    9.5050   30.2900 C.2   210  GSH210      0.3865
     19  O31        7.7610   10.2510   29.3790 O.co2 210  GSH210     -0.2437
     20  O32        6.4380    9.8420   31.0870 O.co2 210  GSH210     -0.2437
@<TRIPOS>BOND
     1     1     2    1
     2     4     3   ar
     3     3     2    1
     4     3     5   ar
     5     2     6    1
     6     6     7    1
     7     9     8    2
     8     7     8    1
     9     8    10   am
    10    15    14    1
    11    10    11    1
    12    11    14    1
    13    11    12    1
    14    12    16   am
    15    12    13    2
    16    16    17    1
    17    19    18   ar
    18    18    17    1
    19    18    20   ar
