@<TRIPOS>MOLECULE
6gst_GSH_A_1.pdb
 20 19 0 0 0
SMALL
GASTEIGER

@<TRIPOS>ATOM
      1  N1        14.4980   14.8610   24.9610 N.3   218  GSH218     -0.1208
      2  CA1       14.1710   15.4060   26.3370 C.3   218  GSH218      0.1948
      3  C1        13.2490   16.5810   26.1760 C.2   218  GSH218      0.3819
      4  O11       12.4700   16.9230   27.0540 O.co2 218  GSH218     -0.2441
      5  O12       13.1790   17.0900   24.9340 O.co2 218  GSH218     -0.2441
      6  CB1       15.5050   15.9210   26.9940 C.3   218  GSH218      0.0402
      7  CG1       15.3620   15.9570   28.4400 C.3   218  GSH218      0.0889
      8  CD1       16.4640   15.9950   29.3950 C.2   218  GSH218      0.2418
      9  OE1       17.6050   15.5330   29.0890 O.2   218  GSH218     -0.2733
     10  N2        16.1070   16.5460   30.5840 N.am  218  GSH218     -0.1968
     11  CA2       17.1680   17.1640   31.3860 C.3   218  GSH218      0.1843
     12  C2        17.1310   16.6030   32.8380 C.2   218  GSH218      0.2627
     13  O2        17.6920   17.2790   33.6680 O.2   218  GSH218     -0.2714
     14  CB2       17.0890   18.7130   31.4510 C.3   218  GSH218      0.0997
     15  SG2       17.2640   19.3310   29.7830 S.3   218  GSH218     -0.0797
     16  N3        16.5240   15.4680   33.0300 N.am  218  GSH218     -0.1917
     17  CA3       16.4310   15.1490   34.4810 C.3   218  GSH218      0.2285
     18  C3        16.6660   13.7170   34.7440 C.2   218  GSH218      0.3865
     19  O31       17.2840   12.9510   33.9910 O.co2 218  GSH218     -0.2437
     20  O32       16.1630   13.1780   35.8260 O.co2 218  GSH218     -0.2437
@<TRIPOS>BOND
     1     5     3   ar
     2     1     2    1
     3     3     2    1
     4     3     4   ar
     5     2     6    1
     6     6     7    1
     7     7     8    1
     8     9     8    2
     9     8    10   am
    10    15    14    1
    11    10    11    1
    12    11    14    1
    13    11    12    1
    14    12    16   am
    15    12    13    2
    16    16    17    1
    17    19    18   ar
    18    17    18    1
    19    18    20   ar
