@<TRIPOS>MOLECULE
6gsu_GPS_A_1.pdb
 35 37 0 0 0
SMALL
GASTEIGER

@<TRIPOS>ATOM
      1  C1        13.2730   16.4430   26.0760 C.2   221  GPS221      0.3819
      2  N1        14.6670   14.6500   24.8890 N.3   221  GPS221     -0.1208
      3  C2        17.0600   16.4670   32.7130 C.2   221  GPS221      0.2626
      4  N2        16.3320   16.5010   30.3900 N.am  221  GPS221     -0.1969
      5  O2        17.5190   16.9700   33.7410 O.2   221  GPS221     -0.2714
      6  C3        16.7020   13.4920   34.4300 C.2   221  GPS221      0.3865
      7  N3        16.4340   15.3090   32.7370 N.am  221  GPS221     -0.1917
      8  O5        20.9530   18.4540   28.6300 O.3   221  GPS221     -0.2170
      9  O11       12.5680   16.7730   27.0300 O.co2 221  GPS221     -0.2441
     10  O12       13.2300   17.0650   24.9210 O.co2 221  GPS221     -0.2441
     11  O31       17.4700   12.8200   33.7160 O.co2 221  GPS221     -0.2437
     12  O32       16.4820   12.9750   35.6090 O.co2 221  GPS221     -0.2437
     13  CA1       14.2020   15.2310   26.2160 C.3   221  GPS221      0.1948
     14  CA2       17.3540   17.0470   31.3240 C.3   221  GPS221      0.1834
     15  CA3       16.0180   14.7690   34.0320 C.3   221  GPS221      0.2285
     16  CA4       19.0170   19.4970   29.5690 C.3   221  GPS221      0.1044
     17  CA5       19.4970   18.4020   28.6190 C.3   221  GPS221      0.1881
     18  CB1       15.5650   15.7370   26.8450 C.3   221  GPS221      0.0402
     19  CB2       17.4120   18.6160   31.2700 C.3   221  GPS221      0.0890
     20  CB4       19.3240   20.8560   28.9300 C.ar  221  GPS221     -0.0097
     21  CB5       19.1550   18.5950   27.1540 C.ar  221  GPS221      0.0089
     22  CD1       16.6070   15.9810   29.2200 C.2   221  GPS221      0.2418
     23  CD4       19.9650   23.2050   29.2490 C.ar  221  GPS221     -0.0003
     24  CD5       18.6490   17.6110   25.0060 C.ar  221  GPS221     -0.0002
     25  OE1       17.7820   15.6740   28.7870 O.2   221  GPS221     -0.2733
     26  CE4       19.9490   23.3440   27.8500 C.ar  221  GPS221     -0.0000
     27  CE5       18.5270   18.8900   24.4690 C.ar  221  GPS221     -0.0000
     28  CG1       15.4750   15.7170   28.2990 C.3   221  GPS221      0.0889
     29  SG2       17.3270   19.2290   29.6500 S.3   221  GPS221     -0.1314
     30  CG4       19.6470   21.9410   29.7950 C.ar  221  GPS221     -0.0034
     31  CG5       18.9520   17.4660   26.3690 C.ar  221  GPS221     -0.0018
     32  CH4       19.3290   21.0300   27.5320 C.ar  221  GPS221     -0.0033
     33  CH5       19.0660   19.8680   26.6180 C.ar  221  GPS221     -0.0018
     34  CZ4       19.6350   22.3010   26.9830 C.ar  221  GPS221     -0.0003
     35  CZ5       18.7370   20.0300   25.2360 C.ar  221  GPS221     -0.0002
@<TRIPOS>BOND
     1    27    24   ar
     2    27    35   ar
     3     2    13    1
     4    10     1   ar
     5    24    31   ar
     6    35    33   ar
     7     1    13    1
     8     1     9   ar
     9    13    18    1
    10    31    21   ar
    11    33    21   ar
    12    33    32    1
    13    18    28    1
    14    34    32   ar
    15    34    26   ar
    16    21    17    1
    17    32    20   ar
    18    26    23   ar
    19    28    22    1
    20    17     8    1
    21    17    16    1
    22    25    22    2
    23    20    16    1
    24    20    30   ar
    25    22     4   am
    26    23    30   ar
    27    16    29    1
    28    29    19    1
    29     4    14    1
    30    19    14    1
    31    14     3    1
    32     3     7   am
    33     3     5    2
    34     7    15    1
    35    11     6   ar
    36    15     6    1
    37     6    12   ar
