@<TRIPOS>MOLECULE
6gsv_GPS_A_1.pdb
 35 37 0 0 0
SMALL
GASTEIGER

@<TRIPOS>ATOM
      1  C1        13.2130   16.3360   26.1030 C.2   220  GPS220      0.3819
      2  N1        14.4910   14.8270   24.6390 N.3   220  GPS220     -0.1208
      3  C2        17.1110   16.2910   32.6780 C.2   220  GPS220      0.2626
      4  N2        16.2040   16.3150   30.4130 N.am  220  GPS220     -0.1969
      5  O2        17.7460   16.9060   33.4970 O.2   220  GPS220     -0.2714
      6  C3        16.9190   13.5560   34.5240 C.2   220  GPS220      0.3865
      7  N3        16.4430   15.2250   32.7600 N.am  220  GPS220     -0.1917
      8  O5        20.5060   18.2480   28.3210 O.3   220  GPS220     -0.2170
      9  O11       12.4400   16.6780   27.0250 O.co2 220  GPS220     -0.2441
     10  O12       13.1440   17.0350   24.9600 O.co2 220  GPS220     -0.2441
     11  O31       17.8770   13.0220   33.8810 O.co2 220  GPS220     -0.2437
     12  O32       16.6920   13.0350   35.7060 O.co2 220  GPS220     -0.2437
     13  CA1       14.2320   15.2240   26.1270 C.3   220  GPS220      0.1948
     14  CA2       17.2740   16.9330   31.2330 C.3   220  GPS220      0.1834
     15  CA3       16.0290   14.6190   34.0460 C.3   220  GPS220      0.2285
     16  CA4       18.8010   18.8380   29.7390 C.3   220  GPS220      0.1044
     17  CA5       19.1570   18.6330   28.2860 C.3   220  GPS220      0.1881
     18  CB1       15.4970   15.8260   26.7750 C.3   220  GPS220      0.0402
     19  CB2       17.0350   18.4680   31.3170 C.3   220  GPS220      0.0890
     20  CB4       19.2520   20.1170   30.3970 C.ar  220  GPS220     -0.0097
     21  CB5       19.1890   19.9390   27.5160 C.ar  220  GPS220      0.0089
     22  CD1       16.4900   15.9830   29.1050 C.2   220  GPS220      0.2418
     23  CD4       19.6680   21.3060   32.4830 C.ar  220  GPS220     -0.0003
     24  CD5       19.1430   20.9200   25.3440 C.ar  220  GPS220     -0.0002
     25  OE1       17.6270   15.7580   28.6760 O.2   220  GPS220     -0.2733
     26  CE4       19.8090   22.4590   31.6950 C.ar  220  GPS220     -0.0000
     27  CE5       19.2200   22.1840   25.9240 C.ar  220  GPS220     -0.0000
     28  CG1       15.2480   15.8300   28.2910 C.3   220  GPS220      0.0889
     29  SG2       17.1220   19.2060   29.6540 S.3   220  GPS220     -0.1314
     30  CG4       19.3400   20.1250   31.8190 C.ar  220  GPS220     -0.0034
     31  CG5       19.1220   19.7710   26.1290 C.ar  220  GPS220     -0.0018
     32  CH4       19.3230   21.3090   29.6220 C.ar  220  GPS220     -0.0033
     33  CH5       19.2160   21.1780   28.1220 C.ar  220  GPS220     -0.0018
     34  CZ4       19.6930   22.4770   30.3230 C.ar  220  GPS220     -0.0003
     35  CZ5       19.2530   22.3650   27.2960 C.ar  220  GPS220     -0.0002
@<TRIPOS>BOND
     1     2    13    1
     2    10     1   ar
     3    24    27   ar
     4    24    31   ar
     5    27    35   ar
     6     1    13    1
     7     1     9   ar
     8    13    18    1
     9    31    21   ar
    10    18    28    1
    11    35    33   ar
    12    21    33   ar
    13    21    17    1
    14    33    32    1
    15    17     8    1
    16    17    16    1
    17    28    22    1
    18    25    22    2
    19    22     4   am
    20    32    34   ar
    21    32    20   ar
    22    29    16    1
    23    29    19    1
    24    16    20    1
    25    34    26   ar
    26    20    30   ar
    27     4    14    1
    28    14    19    1
    29    14     3    1
    30    26    23   ar
    31    30    23   ar
    32     3     7   am
    33     3     5    2
    34     7    15    1
    35    11     6   ar
    36    15     6    1
    37     6    12   ar
