@<TRIPOS>MOLECULE
6gsw_GPS_A_1.pdb
 35 37 0 0 0
SMALL
GASTEIGER

@<TRIPOS>ATOM
      1  C1        13.3310   16.4150   26.2230 C.2   221  GPS221      0.3819
      2  N1        14.7360   14.6010   25.0850 N.3   221  GPS221     -0.1208
      3  C2        17.0170   16.3630   32.7600 C.2   221  GPS221      0.2626
      4  N2        16.3770   16.2450   30.3790 N.am  221  GPS221     -0.1969
      5  O2        17.4860   17.0610   33.6430 O.2   221  GPS221     -0.2714
      6  C3        16.7790   13.4010   34.5680 C.2   221  GPS221      0.3865
      7  N3        16.5060   15.1850   32.8730 N.am  221  GPS221     -0.1917
      8  O5        21.1090   18.2810   28.4560 O.3   221  GPS221     -0.2170
      9  O11       12.5580   16.7170   27.1140 O.co2 221  GPS221     -0.2441
     10  O12       13.3250   17.0160   25.0540 O.co2 221  GPS221     -0.2441
     11  O31       17.5220   12.7110   33.8430 O.co2 221  GPS221     -0.2437
     12  O32       16.5720   12.9150   35.7780 O.co2 221  GPS221     -0.2437
     13  CA1       14.2810   15.2370   26.3750 C.3   221  GPS221      0.1948
     14  CA2       17.2560   16.9010   31.3200 C.3   221  GPS221      0.1834
     15  CA3       16.1800   14.7160   34.2470 C.3   221  GPS221      0.2285
     16  CA4       19.1550   19.0430   29.7340 C.3   221  GPS221      0.1044
     17  CA5       19.7230   18.6930   28.3470 C.3   221  GPS221      0.1881
     18  CB1       15.5590   15.9250   27.0430 C.3   221  GPS221      0.0402
     19  CB2       17.2770   18.4310   31.2900 C.3   221  GPS221      0.0890
     20  CB4       19.6320   20.3830   30.2340 C.ar  221  GPS221     -0.0097
     21  CB5       19.7680   19.9130   27.4330 C.ar  221  GPS221      0.0089
     22  CD1       16.8170   15.6700   29.2740 C.2   221  GPS221      0.2418
     23  CD4       20.1520   21.8170   32.1800 C.ar  221  GPS221     -0.0003
     24  CD5       19.3900   20.6880   25.1920 C.ar  221  GPS221     -0.0002
     25  OE1       18.0280   15.4170   29.0100 O.2   221  GPS221     -0.2733
     26  CE4       20.5130   22.7970   31.2690 C.ar  221  GPS221     -0.0000
     27  CE5       19.4920   22.0040   25.6520 C.ar  221  GPS221     -0.0000
     28  CG1       15.7640   15.2290   28.3290 C.3   221  GPS221      0.0889
     29  SG2       17.4290   19.0660   29.6860 S.3   221  GPS221     -0.1314
     30  CG4       19.7510   20.5870   31.6470 C.ar  221  GPS221     -0.0034
     31  CG5       19.5490   19.6370   26.0820 C.ar  221  GPS221     -0.0018
     32  CH4       19.9360   21.4690   29.3660 C.ar  221  GPS221     -0.0033
     33  CH5       19.7620   21.2020   27.9000 C.ar  221  GPS221     -0.0018
     34  CZ4       20.3580   22.7090   29.8870 C.ar  221  GPS221     -0.0003
     35  CZ5       19.6800   22.3120   26.9990 C.ar  221  GPS221     -0.0002
@<TRIPOS>BOND
     1    10     1   ar
     2     2    13    1
     3    24    27   ar
     4    24    31   ar
     5    27    35   ar
     6    31    21   ar
     7     1    13    1
     8     1     9   ar
     9    13    18    1
    10    35    33   ar
    11    18    28    1
    12    21    33   ar
    13    21    17    1
    14    33    32    1
    15    28    22    1
    16    17     8    1
    17    17    16    1
    18    25    22    2
    19    22     4   am
    20    32    34   ar
    21    32    20   ar
    22    29    16    1
    23    29    19    1
    24    16    20    1
    25    34    26   ar
    26    20    30   ar
    27     4    14    1
    28    26    23   ar
    29    19    14    1
    30    14     3    1
    31    30    23   ar
    32     3     7   am
    33     3     5    2
    34     7    15    1
    35    11     6   ar
    36    15     6    1
    37     6    12   ar
