@<TRIPOS>MOLECULE
6gsx_GPS_A_1.pdb
 35 37 0 0 0
SMALL
GASTEIGER

@<TRIPOS>ATOM
      1  C1        13.2550   16.6200   26.2550 C.2   221  GPS221      0.3819
      2  N1        14.5790   14.8700   25.0040 N.3   221  GPS221     -0.1208
      3  C2        17.0680   16.5940   32.8500 C.2   221  GPS221      0.2626
      4  N2        16.3700   16.6280   30.4850 N.am  221  GPS221     -0.1969
      5  O2        17.7370   17.1080   33.7070 O.2   221  GPS221     -0.2714
      6  C3        16.7020   13.7300   34.4720 C.2   221  GPS221      0.3865
      7  N3        16.3290   15.5310   32.8820 N.am  221  GPS221     -0.1917
      8  O5        21.0430   18.6910   28.6990 O.3   221  GPS221     -0.2170
      9  O11       12.3920   16.9410   27.1040 O.co2 221  GPS221     -0.2441
     10  O12       13.2580   17.2110   25.0560 O.co2 221  GPS221     -0.2441
     11  O31       17.6020   13.2340   33.7400 O.co2 221  GPS221     -0.2437
     12  O32       16.3930   13.0650   35.5920 O.co2 221  GPS221     -0.2437
     13  CA1       14.1640   15.4340   26.4020 C.3   221  GPS221      0.1948
     14  CA2       17.3330   17.1930   31.4150 C.3   221  GPS221      0.1834
     15  CA3       15.9320   14.9780   34.2160 C.3   221  GPS221      0.2285
     16  CA4       19.0890   19.1460   29.8960 C.3   221  GPS221      0.1044
     17  CA5       19.6410   18.9060   28.4790 C.3   221  GPS221      0.1881
     18  CB1       15.5070   15.9460   27.0490 C.3   221  GPS221      0.0402
     19  CB2       17.3380   18.7360   31.4540 C.3   221  GPS221      0.0890
     20  CB4       19.5700   20.4360   30.4920 C.ar  221  GPS221     -0.0097
     21  CB5       19.5140   20.2070   27.6540 C.ar  221  GPS221      0.0089
     22  CD1       16.6370   16.0040   29.3390 C.2   221  GPS221      0.2418
     23  CD4       20.0680   21.6590   32.5430 C.ar  221  GPS221     -0.0003
     24  CD5       18.9810   21.2170   25.5650 C.ar  221  GPS221     -0.0002
     25  OE1       17.7950   15.6810   28.9060 O.2   221  GPS221     -0.2733
     26  CE4       20.3350   22.7810   31.7630 C.ar  221  GPS221     -0.0000
     27  CE5       19.1900   22.4930   26.1510 C.ar  221  GPS221     -0.0000
     28  CG1       15.4370   15.8390   28.4970 C.3   221  GPS221      0.0889
     29  SG2       17.3960   19.3190   29.7540 S.3   221  GPS221     -0.1314
     30  CG4       19.6510   20.4790   31.9060 C.ar  221  GPS221     -0.0034
     31  CG5       19.2030   20.0550   26.3070 C.ar  221  GPS221     -0.0018
     32  CH4       19.9440   21.5670   29.6960 C.ar  221  GPS221     -0.0033
     33  CH5       19.7010   21.4520   28.2290 C.ar  221  GPS221     -0.0018
     34  CZ4       20.2770   22.7560   30.3610 C.ar  221  GPS221     -0.0003
     35  CZ5       19.5690   22.6590   27.4670 C.ar  221  GPS221     -0.0002
@<TRIPOS>BOND
     1     2    13    1
     2    10     1   ar
     3    24    27   ar
     4    24    31   ar
     5    27    35   ar
     6     1    13    1
     7     1     9   ar
     8    31    21   ar
     9    13    18    1
    10    18    28    1
    11    35    33   ar
    12    21    33   ar
    13    21    17    1
    14    33    32    1
    15    17     8    1
    16    17    16    1
    17    28    22    1
    18    25    22    2
    19    22     4   am
    20    32    34   ar
    21    32    20   ar
    22    29    16    1
    23    29    19    1
    24    16    20    1
    25    34    26   ar
    26     4    14    1
    27    20    30   ar
    28    14    19    1
    29    14     3    1
    30    26    23   ar
    31    30    23   ar
    32     3     7   am
    33     3     5    2
    34     7    15    1
    35    11     6   ar
    36    15     6    1
    37     6    12   ar
