@<TRIPOS>MOLECULE
6gsy_GSH_A_1.pdb
 20 19 0 0 0
SMALL
GASTEIGER

@<TRIPOS>ATOM
      1  N1        14.5760   14.6310   25.1960 N.3   218  GSH218     -0.1208
      2  CA1       14.4970   15.4720   26.4460 C.3   218  GSH218      0.1948
      3  C1        13.5600   16.6530   26.3210 C.2   218  GSH218      0.3819
      4  O11       12.8540   16.9570   27.2760 O.co2 218  GSH218     -0.2441
      5  O12       13.2870   17.0770   25.0670 O.co2 218  GSH218     -0.2441
      6  CB1       15.8230   15.8390   27.1270 C.3   218  GSH218      0.0402
      7  CG1       15.5530   16.0980   28.5780 C.3   218  GSH218      0.0889
      8  CD1       16.6370   16.3310   29.5330 C.2   218  GSH218      0.2418
      9  OE1       17.7800   16.0280   29.1120 O.2   218  GSH218     -0.2733
     10  N2        16.3950   16.9260   30.7400 N.am  218  GSH218     -0.1968
     11  CA2       17.5710   17.2490   31.5740 C.3   218  GSH218      0.1843
     12  C2        17.5200   16.6000   32.9890 C.2   218  GSH218      0.2627
     13  O2        18.4250   16.8500   33.7640 O.2   218  GSH218     -0.2714
     14  CB2       18.0330   18.7120   31.5730 C.3   218  GSH218      0.0997
     15  SG2       17.6640   19.3550   29.9430 S.3   218  GSH218     -0.0797
     16  N3        16.5650   15.7810   33.2270 N.am  218  GSH218     -0.1917
     17  CA3       16.3360   15.2690   34.6190 C.3   218  GSH218      0.2285
     18  C3        16.9080   13.8960   34.8010 C.2   218  GSH218      0.3865
     19  O31       17.6390   13.2570   33.9980 O.co2 218  GSH218     -0.2437
     20  O32       16.6380   13.2390   35.9460 O.co2 218  GSH218     -0.2437
@<TRIPOS>BOND
     1     5     3   ar
     2     1     2    1
     3     3     2    1
     4     3     4   ar
     5     2     6    1
     6     6     7    1
     7     7     8    1
     8     9     8    2
     9     8    10   am
    10    15    14    1
    11    10    11    1
    12    14    11    1
    13    11    12    1
    14    12    16   am
    15    12    13    2
    16    16    17    1
    17    19    18   ar
    18    17    18    1
    19    18    20   ar
