@<TRIPOS>MOLECULE
6hbi_HEM_A_1.pdb
 43 50 0 0 0
SMALL
GASTEIGER

@<TRIPOS>ATOM
      1 FE         17.6740    7.7710   20.2540 Fe    153  HEM153      0.0000
      2  CHA       16.6260    9.5750   17.5700 C.2   153  HEM153      0.0000
      3  CHB       14.6780    8.3430   21.7450 C.2   153  HEM153      0.0000
      4  CHC       18.9180    6.8070   23.2750 C.2   153  HEM153      0.0000
      5  CHD       20.7910    7.6420   18.9530 C.2   153  HEM153      0.0000
      6  NA        15.9820    8.6370   19.7180 N.2   153  HEM153      0.0000
      7  C1A       15.6830    9.2680   18.5320 C.2   153  HEM153      0.0000
      8  C2A       14.2870    9.6760   18.4910 C.2   153  HEM153      0.0000
      9  C3A       13.7500    9.3280   19.6730 C.2   153  HEM153      0.0000
     10  C4A       14.8130    8.7270   20.4370 C.2   153  HEM153      0.0000
     11  CMA       12.2990    9.5240   20.1050 C.3   153  HEM153      0.0000
     12  CAA       13.5240   10.3490   17.3560 C.3   153  HEM153      0.0000
     13  CBA       12.8300    9.3550   16.4290 C.3   153  HEM153      0.0000
     14  CGA       13.8320    8.5210   15.6400 C.2   153  HEM153      0.0000
     15  O1A       14.3950    9.0660   14.7040 O.co2 153  HEM153      0.0000
     16  O2A       14.0500    7.3520   15.9540 O.co2 153  HEM153      0.0000
     17  NB        16.9460    7.5470   22.0830 N.ar  153  HEM153      0.0000
     18  C1B       15.6550    7.7760   22.5110 C.ar  153  HEM153      0.0000
     19  C2B       15.4560    7.4100   23.8920 C.ar  153  HEM153      0.0000
     20  C3B       16.6710    7.0220   24.3570 C.ar  153  HEM153      0.0000
     21  C4B       17.5800    7.1090   23.2230 C.ar  153  HEM153      0.0000
     22  CMB       14.1090    7.4580   24.6100 C.3   153  HEM153      0.0000
     23  CAB       17.0380    6.7200   25.6640 C.3   153  HEM153      0.0000
     24  CBB       16.3100    5.8860   26.6050 C.3   153  HEM153      0.0000
     25  NC        19.4430    7.2500   20.9480 N.2   153  HEM153      0.0000
     26  C1C       19.7920    6.8680   22.2200 C.2   153  HEM153      0.0000
     27  C2C       21.1930    6.5250   22.3140 C.2   153  HEM153      0.0000
     28  C3C       21.7260    6.6960   21.0630 C.2   153  HEM153      0.0000
     29  C4C       20.6290    7.1710   20.2450 C.2   153  HEM153      0.0000
     30  CMC       21.8730    6.0830   23.6050 C.3   153  HEM153      0.0000
     31  CAC       23.0020    6.4450   20.5550 C.3   153  HEM153      0.0000
     32  CBC       24.2590    6.4970   21.2680 C.3   153  HEM153      0.0000
     33  ND        18.5150    8.4380   18.6070 N.ar  153  HEM153      0.0000
     34  C1D       19.8290    8.2910   18.2110 C.ar  153  HEM153      0.0000
     35  C2D       20.1240    9.0580   17.0210 C.ar  153  HEM153      0.0000
     36  C3D       18.9740    9.6670   16.6820 C.ar  153  HEM153      0.0000
     37  C4D       17.9650    9.2410   17.6330 C.ar  153  HEM153      0.0000
     38  CMD       21.4770    9.1970   16.3290 C.3   153  HEM153      0.0000
     39  CAD       18.8040   10.6850   15.5740 C.3   153  HEM153      0.0000
     40  CBD       19.1530   12.0910   16.0320 C.3   153  HEM153      0.0000
     41  CGD       19.0440   13.1050   14.9070 C.2   153  HEM153      0.0000
     42  O1D       19.9050   13.1130   14.0250 O.co2 153  HEM153      0.0000
     43  O2D       18.1030   13.8920   14.9240 O.co2 153  HEM153      0.0000
@<TRIPOS>BOND
     1    42    41   ar
     2    15    14   ar
     3    41    43   ar
     4    41    40    1
     5    39    40    1
     6    39    36    1
     7    14    16   ar
     8    14    13    1
     9    38    35    1
    10    13    12    1
    11    36    35   ar
    12    36    37   ar
    13    35    34   ar
    14    12     8    1
    15     2    37    2
    16     2     7    1
    17    37    33   ar
    18    34    33   ar
    19    34     5    2
    20     8     7    1
    21     8     9    2
    22     7     6    2
    23    33     1    1
    24     5    29    1
    25     9    11    1
    26     9    10    1
    27     6     1    1
    28     6    10    1
    29    29    25    2
    30    29    28    1
    31     1    25    1
    32     1    17    1
    33    10     3    2
    34    31    28    1
    35    31    32    1
    36    25    26    1
    37    28    27    2
    38     3    18    1
    39    17    18   ar
    40    17    21   ar
    41    26    27    1
    42    26     4    2
    43    27    30    1
    44    18    19   ar
    45    21     4    1
    46    21    20   ar
    47    19    20   ar
    48    19    22    1
    49    20    23    1
    50    23    24    1
