@<TRIPOS>MOLECULE
6hbw_HEM_A_1.pdb
 43 50 0 0 0
SMALL
GASTEIGER

@<TRIPOS>ATOM
      1 FE         29.5820   -8.9220   58.2220 Fe    153  HEM153      0.0000
      2  CHA       29.8100   -9.4790   61.6170 C.2   153  HEM153      0.0000
      3  CHB       31.5250  -11.7510   57.7000 C.2   153  HEM153      0.0000
      4  CHC       29.9700   -8.1080   54.9460 C.2   153  HEM153      0.0000
      5  CHD       28.7730   -5.6220   58.8880 C.2   153  HEM153      0.0000
      6  NA        30.3210  -10.3630   59.3850 N.ar  153  HEM153      0.0000
      7  C1A       30.1930  -10.5180   60.7690 C.ar  153  HEM153      0.0000
      8  C2A       30.8740  -11.7320   61.2440 C.ar  153  HEM153      0.0000
      9  C3A       31.4650  -12.3180   60.1410 C.ar  153  HEM153      0.0000
     10  C4A       31.0930  -11.4870   59.0050 C.ar  153  HEM153      0.0000
     11  CMA       32.4120  -13.5450   60.1380 C.3   153  HEM153      0.0000
     12  CAA       31.0370  -12.2140   62.6840 C.3   153  HEM153      0.0000
     13  CBA       29.9160  -13.1610   63.0550 C.3   153  HEM153      0.0000
     14  CGA       29.9630  -13.6330   64.5070 C.2   153  HEM153      0.0000
     15  O1A       30.6230  -12.9810   65.3420 O.co2 153  HEM153      0.0000
     16  O2A       29.3110  -14.6590   64.8050 O.co2 153  HEM153      0.0000
     17  NB        30.4860   -9.7650   56.6770 N.2   153  HEM153      0.0000
     18  C1B       31.2330  -10.9430   56.6240 C.2   153  HEM153      0.0000
     19  C2B       31.6420  -11.2490   55.2770 C.2   153  HEM153      0.0000
     20  C3B       31.1910  -10.2350   54.4750 C.2   153  HEM153      0.0000
     21  C4B       30.4660   -9.3320   55.3640 C.2   153  HEM153      0.0000
     22  CMB       32.3040  -12.5650   54.8180 C.3   153  HEM153      0.0000
     23  CAB       31.2740  -10.0990   53.0680 C.3   153  HEM153      0.0000
     24  CBB       32.3010  -10.6110   52.1340 C.3   153  HEM153      0.0000
     25  NC        29.3870   -7.2590   57.1540 N.ar  153  HEM153      0.0000
     26  C1C       29.5010   -7.1280   55.8000 C.ar  153  HEM153      0.0000
     27  C2C       29.1520   -5.8050   55.3510 C.ar  153  HEM153      0.0000
     28  C3C       28.8760   -5.0930   56.4540 C.ar  153  HEM153      0.0000
     29  C4C       28.9860   -5.9790   57.5780 C.ar  153  HEM153      0.0000
     30  CMC       29.1600   -5.3450   53.8940 C.3   153  HEM153      0.0000
     31  CAC       28.6490   -3.7030   56.5070 C.3   153  HEM153      0.0000
     32  CBC       29.4830   -2.6310   56.0460 C.3   153  HEM153      0.0000
     33  ND        29.4080   -7.7810   59.8690 N.2   153  HEM153      0.0000
     34  C1D       28.9500   -6.4490   59.9730 C.2   153  HEM153      0.0000
     35  C2D       28.7260   -6.0490   61.3810 C.2   153  HEM153      0.0000
     36  C3D       29.1090   -7.0780   62.1400 C.2   153  HEM153      0.0000
     37  C4D       29.5250   -8.1580   61.2170 C.2   153  HEM153      0.0000
     38  CMD       28.1070   -4.7660   61.9230 C.3   153  HEM153      0.0000
     39  CAD       29.0980   -7.0990   63.6720 C.3   153  HEM153      0.0000
     40  CBD       30.4620   -6.5820   64.1260 C.3   153  HEM153      0.0000
     41  CGD       30.6640   -6.6890   65.6200 C.2   153  HEM153      0.0000
     42  O1D       29.9040   -6.0550   66.3720 O.co2 153  HEM153      0.0000
     43  O2D       31.5890   -7.4100   66.0550 O.co2 153  HEM153      0.0000
@<TRIPOS>BOND
     1    24    23    1
     2    23    20    1
     3    30    27    1
     4    20    19    2
     5    20    21    1
     6    22    19    1
     7     4    21    2
     8     4    26    1
     9    19    18    1
    10    27    26   ar
    11    27    28   ar
    12    21    17    1
    13    26    25   ar
    14    32    31    1
    15    28    31    1
    16    28    29   ar
    17    18    17    2
    18    18     3    1
    19    17     1    1
    20    25    29   ar
    21    25     1    1
    22    29     5    1
    23     3    10    2
    24     1     6    1
    25     1    33    1
    26     5    34    2
    27    10     6   ar
    28    10     9   ar
    29     6     7   ar
    30    33    34    1
    31    33    37    2
    32    34    35    1
    33    11     9    1
    34     9     8   ar
    35     7     8   ar
    36     7     2    2
    37    37     2    1
    38    37    36    1
    39     8    12    1
    40    35    38    1
    41    35    36    2
    42    36    39    1
    43    12    13    1
    44    13    14    1
    45    39    40    1
    46    40    41    1
    47    14    16   ar
    48    14    15   ar
    49    41    43   ar
    50    41    42   ar
