@<TRIPOS>MOLECULE
6jdw_ABU_A_1.pdb
 10 9 0 0 0
SMALL
GASTEIGER

@<TRIPOS>ATOM
      1  N         47.8240   70.1810   17.4200 N.4   500  ABU500      0.3804
      2  CA        46.6060   69.3580   17.6000 C.3   500  ABU500     -0.0856
      3  CB        45.4540   70.1730   18.1130 C.3   500  ABU500     -0.0121
      4  CG        45.2210   71.3470   17.1930 C.3   500  ABU500      0.1119
      5  CD        44.0540   72.1990   17.6490 C.2   500  ABU500      0.3648
      6  OE1       44.2680   73.2590   18.2790 O.co2 500  ABU500     -0.2457
      7  OE2       42.8920   71.7950   17.3410 O.co2 500  ABU500     -0.2457
      8  H         48.0990   70.5980   18.3320 H     500  ABU500     -0.0894
      9  HN2       47.6310   70.9400   16.7360 H     500  ABU500     -0.0894
     10  HN3       48.5970   69.5830   17.0640 H     500  ABU500     -0.0894
@<TRIPOS>BOND
     1     9     1    1
     2    10     1    1
     3     4     5    1
     4     4     3    1
     5     7     5   ar
     6     1     2    1
     7     1     8    1
     8     2     3    1
     9     5     6   ar
