@<TRIPOS>MOLECULE
6lpr_III_P_1.pdb
 26 26 0 0 0
SMALL
GASTEIGER

@<TRIPOS>ATOM
      1  N         13.5780   42.0430   18.4200 N.3     4  ALA4        0.0000
      2  CA        14.1690   40.6990   18.3580 C.3     4  ALA4        0.0000
      3  C         13.2970   39.4770   18.6320 C.2     4  ALA4        0.0000
      4  O         12.5400   39.4140   19.6290 O.2     4  ALA4        0.0000
      5  CB        15.3240   40.4650   19.3150 C.3     4  ALA4        0.0000
      6  N         13.4670   38.5180   17.7330 N.am    3  ALA3        0.0000
      7  CA        12.6800   37.2760   17.9110 C.3     3  ALA3        0.0000
      8  C         13.6420   36.1620   17.5290 C.2     3  ALA3        0.0000
      9  O         14.5400   36.4300   16.7330 O.2     3  ALA3        0.0000
     10  CB        11.4900   37.3110   16.9680 C.3     3  ALA3        0.0000
     11  N         13.3560   35.0200   18.1060 N.am    2  PRO2        0.0000
     12  CA        14.1460   33.8120   17.7590 C.3     2  PRO2        0.0000
     13  C         13.8460   33.4360   16.2940 C.2     2  PRO2        0.0000
     14  O         12.6630   33.6360   15.8880 O.2     2  PRO2        0.0000
     15  CB        13.5210   32.7550   18.6780 C.3     2  PRO2        0.0000
     16  CG        12.8180   33.5360   19.7640 C.3     2  PRO2        0.0000
     17  CD        12.2210   34.7250   19.0040 C.3     2  PRO2        0.0000
     18  N         14.8030   32.9010   15.5620 N.am    1  BNO1        0.0000
     19  CA        14.5770   32.4300   14.1770 C.3     1  BNO1        0.0000
     20  CB        15.4350   33.2780   13.2290 C.3     1  BNO1        0.0000
     21  CG        15.0690   34.7400   13.1740 C.3     1  BNO1        0.0000
     22  CD        16.1110   35.4320   12.2800 C.3     1  BNO1        0.0000
     23  CE        15.9840   36.9560   12.2520 C.3     1  BNO1        0.0000
     24  B         14.8880   30.8970   14.0750 B       1  BNO1        0.0000
     25  O1        14.9350   30.3530   12.7090 O.3     1  BNO1        0.0000
     26  O2        14.0040   30.0840   15.0000 O.3     1  BNO1        0.0000
@<TRIPOS>BOND
     1    23    22    1
     2    22    21    1
     3    25    24    1
     4    21    20    1
     5    20    19    1
     6    24    19    1
     7    24    26    1
     8    19    18    1
     9    18    13   am
    10    14    13    2
    11    13    12    1
    12     9     8    2
    13    10     7    1
    14     8     7    1
    15     8    11   am
    16     6     7    1
    17     6     3   am
    18    12    11    1
    19    12    15    1
    20    11    17    1
    21     2     1    1
    22     2     3    1
    23     2     5    1
    24     3     4    2
    25    15    16    1
    26    17    16    1
