@<TRIPOS>MOLECULE
6mht_SAM_D_1.pdb
 27 29 0 0 0
SMALL
GASTEIGER

@<TRIPOS>ATOM
      1  N        -18.1880   32.0850   82.3380 N.3   328  SAM328     -0.1208
      2  CA       -18.8860   31.3620   83.4160 C.3   328  SAM328      0.1952
      3  C        -20.3670   31.1510   83.0640 C.2   328  SAM328      0.3819
      4  O        -20.7410   30.9520   81.8180 O.co2 328  SAM328     -0.2441
      5  OXT      -21.1840   30.9030   84.0560 O.co2 328  SAM328     -0.2441
      6  CB       -18.7660   32.1260   84.7480 C.3   328  SAM328      0.0414
      7  CG       -17.3420   32.2740   85.2730 C.3   328  SAM328      0.0503
      8  SD       -17.1730   33.0950   86.8950 S.3   328  SAM328     -0.1761
      9  CE       -16.9100   34.5200   87.5400 C.3   328  SAM328      0.0590
     10  C5'      -15.6870   32.3160   87.5490 C.3   328  SAM328      0.0806
     11  C4'      -15.7720   30.8270   88.0090 C.3   328  SAM328      0.1622
     12  O4'      -14.4660   30.3530   88.3460 O.3   328  SAM328     -0.3153
     13  C3'      -16.6260   30.6320   89.3050 C.3   328  SAM328      0.2168
     14  O3'      -17.6780   29.7580   88.9180 O.3   328  SAM328     -0.2175
     15  C2'      -15.6320   30.0720   90.3100 C.3   328  SAM328      0.2569
     16  O2'      -16.2500   29.0760   91.1930 O.3   328  SAM328     -0.2130
     17  C1'      -14.5810   29.4390   89.4330 C.3   328  SAM328      0.3185
     18  N9       -13.2090   29.2690   90.1170 N.pl3 328  SAM328     -0.1439
     19  C8       -12.4950   30.1650   90.8840 C.3   328  SAM328      0.3377
     20  N7       -11.3190   29.7560   91.2660 N.2   328  SAM328     -0.2095
     21  C5       -11.2070   28.4750   90.7270 C.2   328  SAM328      0.2526
     22  C6       -10.1570   27.5240   90.7840 C.2   328  SAM328      0.4393
     23  N6        -9.0010   27.8000   91.3870 N.pl3 328  SAM328      0.2180
     24  N1       -10.3020   26.3330   90.1440 N.2   328  SAM328      0.0021
     25  C2       -11.4900   26.1470   89.4730 C.3   328  SAM328      0.5254
     26  N3       -12.5650   26.9640   89.3380 N.2   328  SAM328     -0.0055
     27  C4       -12.3430   28.1520   90.0170 C.2   328  SAM328      0.3518
@<TRIPOS>BOND
     1     4     3   ar
     2     1     2    1
     3     3     2    1
     4     3     5   ar
     5     2     6    1
     6     6     7    1
     7     7     8    1
     8     8     9    1
     9     8    10    1
    10    10    11    1
    11    11    12    1
    12    11    13    1
    13    12    17    1
    14    14    13    1
    15    13    15    1
    16    26    25    1
    17    26    27    2
    18    17    18    1
    19    17    15    1
    20    25    24    1
    21    27    18    1
    22    27    21    1
    23    18    19    1
    24    24    22    2
    25    15    16    1
    26    21    22    1
    27    21    20    2
    28    22    23    1
    29    19    20    1
