@<TRIPOS>MOLECULE
6nse_GGB_A_1.pdb
 12 11 0 0 0
SMALL
GASTEIGER

@<TRIPOS>ATOM
      1  N          7.8150   15.5580   35.2290 N.3   720  GGB720     -0.1207
      2  CA         8.3310   16.0640   33.9210 C.3   720  GGB720      0.1982
      3  CB         8.1370   15.0070   32.8080 C.3   720  GGB720      0.0827
      4  CG         8.8230   13.6510   33.0310 C.3   720  GGB720      0.2615
      5  C          7.5850   17.3500   33.5460 C.2   720  GGB720      0.3820
      6  OD         8.2530   12.6010   32.2200 O.2   720  GGB720     -0.3083
      7  NE         6.9460   12.7790   32.0630 N.pl3 720  GGB720      0.1306
      8  CZ         6.2370   11.9290   31.3000 C.cat 720  GGB720      0.5748
      9  NH1        6.8300   11.0790   30.4810 N.pl3 720  GGB720      0.1387
     10  NH2        4.9180   11.9250   31.3760 N.pl3 720  GGB720      0.1387
     11  OA1        6.5730   17.6710   34.2050 O.co2 720  GGB720     -0.2440
     12  OA2        8.0090   18.0380   32.5950 O.co2 720  GGB720     -0.2440
@<TRIPOS>BOND
     1     9     8    1
     2     8    10    1
     3     8     7    2
     4     7     6    1
     5     6     4    1
     6    12     5   ar
     7     3     4    1
     8     3     2    1
     9     5     2    1
    10     5    11   ar
    11     2     1    1
