@<TRIPOS>MOLECULE
6nse_HEM_A_1.pdb
 43 50 0 0 0
SMALL
GASTEIGER

@<TRIPOS>ATOM
      1  CHA        8.9540    9.1180   34.8800 C.2   500  HEM500      0.0000
      2  CHB        4.3920    9.1210   33.4710 C.2   500  HEM500      0.0000
      3  CHC        5.8950    7.5560   29.2310 C.2   500  HEM500      0.0000
      4  CHD       10.2740    6.7250   30.8760 C.2   500  HEM500      0.0000
      5  C1A        7.5970    9.4430   34.7650 C.2   500  HEM500      0.0000
      6  C2A        6.8090   10.1780   35.7300 C.2   500  HEM500      0.0000
      7  C3A        5.5280   10.1230   35.3900 C.2   500  HEM500      0.0000
      8  C4A        5.5180    9.3980   34.1480 C.2   500  HEM500      0.0000
      9  CMA        4.3700   10.6690   36.2170 C.3   500  HEM500      0.0000
     10  CAA        7.3020   10.9780   36.9190 C.3   500  HEM500      0.0000
     11  CBA        8.1780   12.1020   36.4050 C.3   500  HEM500      0.0000
     12  CGA        8.6680   13.0380   37.4940 C.2   500  HEM500      0.0000
     13  O1A        8.1260   13.0000   38.6250 O.co2 500  HEM500      0.0000
     14  O2A        9.6030   13.8180   37.2060 O.co2 500  HEM500      0.0000
     15  C1B        4.4010    8.4820   32.2750 C.ar  500  HEM500      0.0000
     16  C2B        3.2250    8.5100   31.4290 C.ar  500  HEM500      0.0000
     17  C3B        3.6580    8.1240   30.1680 C.ar  500  HEM500      0.0000
     18  C4B        5.0910    7.9050   30.2850 C.ar  500  HEM500      0.0000
     19  CMB        1.8420    9.0380   31.8620 C.3   500  HEM500      0.0000
     20  CAB        2.8710    8.0300   29.0330 C.2   500  HEM500      0.0000
     21  CBB        2.8780    7.0460   28.0950 C.2   500  HEM500      0.0000
     22  C1C        7.2270    7.2430   29.2670 C.2   500  HEM500      0.0000
     23  C2C        8.0070    6.7980   28.1220 C.2   500  HEM500      0.0000
     24  C3C        9.2530    6.5140   28.5770 C.2   500  HEM500      0.0000
     25  C4C        9.2080    6.8010   30.0070 C.2   500  HEM500      0.0000
     26  CMC        7.4690    6.6920   26.7050 C.3   500  HEM500      0.0000
     27  CAC       10.3820    6.0590   27.8960 C.2   500  HEM500      0.0000
     28  CBC       10.4840    5.3180   26.7620 C.2   500  HEM500      0.0000
     29  C1D       10.2540    7.2590   32.1660 C.ar  500  HEM500      0.0000
     30  C2D       11.4710    7.4170   32.9580 C.ar  500  HEM500      0.0000
     31  C3D       11.1110    8.1450   34.0300 C.ar  500  HEM500      0.0000
     32  C4D        9.6900    8.4040   33.9400 C.ar  500  HEM500      0.0000
     33  CMD       12.8680    6.8390   32.6710 C.3   500  HEM500      0.0000
     34  CAD       12.0990    8.6380   35.0670 C.3   500  HEM500      0.0000
     35  CBD       12.2200   10.1600   35.2090 C.3   500  HEM500      0.0000
     36  CGD       13.3700   10.5820   36.1090 C.2   500  HEM500      0.0000
     37  O1D       14.0910    9.7010   36.6390 O.co2 500  HEM500      0.0000
     38  O2D       13.5620   11.8040   36.2690 O.co2 500  HEM500      0.0000
     39  NA         6.7810    8.9710   33.7630 N.2   500  HEM500      0.0000
     40  NB         5.5440    8.0740   31.6010 N.ar  500  HEM500      0.0000
     41  NC         7.9640    7.2590   30.4200 N.2   500  HEM500      0.0000
     42  ND         9.1580    7.8410   32.7770 N.ar  500  HEM500      0.0000
     43 FE          7.3410    7.7810   32.2700 Fe    500  HEM500      0.0000
@<TRIPOS>BOND
     1    26    23    1
     2    28    27    2
     3    27    24    1
     4    21    20    2
     5    23    24    2
     6    23    22    1
     7    24    25    1
     8    20    17    1
     9     3    22    2
    10     3    18    1
    11    22    41    1
    12    25    41    2
    13    25     4    1
    14    17    18   ar
    15    17    16   ar
    16    18    40   ar
    17    41    43    1
    18     4    29    2
    19    16    19    1
    20    16    15   ar
    21    40    43    1
    22    40    15   ar
    23    29    42   ar
    24    29    30   ar
    25    43    42    1
    26    43    39    1
    27    15     2    1
    28    33    30    1
    29    42    32   ar
    30    30    31   ar
    31     2     8    2
    32    39     8    1
    33    39     5    2
    34    32    31   ar
    35    32     1    2
    36    31    34    1
    37     8     7    1
    38     5     1    1
    39     5     6    1
    40    34    35    1
    41    35    36    1
    42     7     6    2
    43     7     9    1
    44     6    10    1
    45    36    38   ar
    46    36    37   ar
    47    11    10    1
    48    11    12    1
    49    14    12   ar
    50    12    13   ar
