@<TRIPOS>MOLECULE
6nul_FMN_A_1.pdb
 31 33 0 0 0
SMALL
GASTEIGER

@<TRIPOS>ATOM
      1  N1        27.2950   14.2450   15.7980 N.2   139  FMN139     -0.2887
      2  C2        27.3730   13.9950   17.1500 C.1   139  FMN139      0.3669
      3  O2        26.3620   13.7660   17.8070 O.2   139  FMN139     -0.1744
      4  N3        28.6430   14.0450   17.7590 N.2   139  FMN139     -0.2300
      5  C4        29.8290   14.3860   17.1280 C.1   139  FMN139      0.2513
      6  O4        30.8960   14.4020   17.7210 O.2   139  FMN139     -0.2057
      7  C4A       29.7130   14.6850   15.6650 C.2   139  FMN139      0.2706
      8  N5        30.8050   14.9470   14.9440 N.2   139  FMN139     -0.3841
      9  C5A       30.6700   15.0540   13.5640 C.2   139  FMN139      0.1452
     10  C6        31.8250   15.1630   12.7430 C.2   139  FMN139      0.0252
     11  C7        31.7730   15.2510   11.3780 C.2   139  FMN139     -0.0375
     12  C7M       33.0640   15.2850   10.6030 C.3   139  FMN139      0.0268
     13  C8        30.5010   15.3140   10.7510 C.3   139  FMN139      0.0417
     14  C8M       30.2970   15.6070    9.2630 C.3   139  FMN139      0.0091
     15  C9        29.3570   15.1360   11.5310 C.2   139  FMN139     -0.0049
     16  C9A       29.4160   15.0240   12.9300 C.2   139  FMN139      0.0795
     17  N10       28.2820   14.7890   13.7310 N.pl3 139  FMN139     -0.2545
     18  C10       28.3770   14.5880   15.0990 C.2   139  FMN139      0.2449
     19  C1'       26.9770   14.7240   13.0990 C.3   139  FMN139      0.1336
     20  C2'       26.4120   16.1050   12.7870 C.3   139  FMN139      0.2048
     21  O2'       26.4210   16.9090   13.9730 O.3   139  FMN139     -0.2185
     22  C3'       24.9780   15.9590   12.2850 C.3   139  FMN139      0.2165
     23  O3'       24.9730   15.2210   11.0610 O.3   139  FMN139     -0.2175
     24  C4'       24.1830   17.2530   12.1080 C.3   139  FMN139      0.2147
     25  O4'       22.8340   16.9260   11.7500 O.3   139  FMN139     -0.2176
     26  C5'       24.8610   18.1550   11.0740 C.3   139  FMN139      0.1892
     27  O5'       24.1820   19.4090   10.9950 O.3   139  FMN139     -0.2674
     28  P         24.5480   20.4320    9.9120 P.3   139  FMN139      0.5327
     29  O1P       24.0010   19.9920    8.6260 O.2   139  FMN139     -0.2224
     30  O2P       24.0150   21.6890   10.4080 O.3   139  FMN139     -0.1145
     31  O3P       26.0860   20.4650    9.8700 O.3   139  FMN139     -0.1145
@<TRIPOS>BOND
     1    29    28    2
     2    14    13    1
     3    31    28    1
     4    28    30    1
     5    28    27    1
     6    12    11    1
     7    13    11    1
     8    13    15    1
     9    27    26    1
    10    23    22    1
    11    26    24    1
    12    11    10    2
    13    15    16    2
    14    25    24    1
    15    24    22    1
    16    22    20    1
    17    10     9    1
    18    20    19    1
    19    20    21    1
    20    16     9    1
    21    16    17    1
    22    19    17    1
    23     9     8    2
    24    17    18    1
    25     8     7    2
    26    18     7    1
    27    18     1    2
    28     7     5    1
    29     1     2    2
    30     5     6    2
    31     5     4    2
    32     2     4    2
    33     2     3    2
