@<TRIPOS>MOLECULE
6pad_0PC_A_1.pdb
 27 28 0 0 0
SMALL
GASTEIGER

@<TRIPOS>ATOM
      1  C1         8.1310   28.6590   16.4040 C.2   213  0PC213      0.4219
      2  O1         8.0360   29.4940   15.4400 O.2   213  0PC213     -0.2245
      3  O2         7.1170   27.7300   16.6790 O.3   213  0PC213     -0.4285
      4  C2         5.9310   28.5020   16.7770 C.3   213  0PC213      0.2368
      5  C3         4.8640   28.1000   15.6430 C.ar  213  0PC213      0.0213
      6  C4         3.5200   28.4250   15.8000 C.ar  213  0PC213     -0.0007
      7  C5         2.6050   28.0230   14.8150 C.ar  213  0PC213     -0.0002
      8  C6         3.0840   27.3950   13.6720 C.ar  213  0PC213     -0.0000
      9  C7         4.3770   27.0710   13.5150 C.ar  213  0PC213     -0.0002
     10  C8         5.2920   27.4230   14.5010 C.ar  213  0PC213     -0.0007
     11  N          9.1890   28.7540   17.1430 N.am  213  0PC213     -0.1607
     12  CA        10.4000   29.4320   17.0200 C.3   213  0PC213      0.1804
     13  C         11.3270   28.5030   16.2770 C.2   213  0PC213      0.2620
     14  O         11.5160   27.4610   16.9430 O.2   213  0PC213     -0.2715
     15  CB        10.9700   29.8970   18.4570 C.3   213  0PC213      0.0575
     16  CG        10.3980   31.2650   18.9390 C.ar  213  0PC213     -0.0200
     17  CD1       10.7610   32.3980   18.2660 C.ar  213  0PC213     -0.0042
     18  CD2        9.4570   31.2980   19.9470 C.ar  213  0PC213     -0.0042
     19  CE1       10.2860   33.6640   18.6990 C.ar  213  0PC213     -0.0003
     20  CE2        8.9310   32.5150   20.3810 C.ar  213  0PC213     -0.0003
     21  CZ         9.2950   33.6970   19.7080 C.ar  213  0PC213     -0.0000
     22  N1        11.7690   28.6740   15.0200 N.am  213  0PC213     -0.1982
     23  CA1       12.5470   27.7000   14.3790 C.3   213  0PC213      0.1524
     24  C9        14.0530   27.8800   14.6620 C.2   213  0PC213      0.1707
     25  O3        14.7340   26.9130   14.3720 O.2   213  0PC213     -0.2943
     26  CB1       12.4370   27.9260   12.8760 C.3   213  0PC213      0.0314
     27  CM        14.7810   29.0820   15.4850 C.3   213  0PC213      0.0741
@<TRIPOS>BOND
     1    26    23    1
     2     9     8   ar
     3     9    10   ar
     4     8     7   ar
     5    25    24    2
     6    23    24    1
     7    23    22    1
     8    10     5   ar
     9    24    27    1
    10     7     6   ar
    11    22    13   am
    12     2     1    2
    13     5     6   ar
    14     5     4    1
    15    13    14    2
    16    13    12    1
    17     1     3    1
    18     1    11   am
    19     3     4    1
    20    12    11    1
    21    12    15    1
    22    17    19   ar
    23    17    16   ar
    24    15    16    1
    25    19    21   ar
    26    16    18   ar
    27    21    20   ar
    28    18    20   ar
