@<TRIPOS>MOLECULE
6pah_DAH_A_1.pdb
 14 14 0 0 0
SMALL
GASTEIGER

@<TRIPOS>ATOM
      1  N         -7.1110   27.7500    4.3520 N.3   600  DAH600     -0.1205
      2  CA        -7.1940   26.6780    3.3070 C.3   600  DAH600      0.1986
      3  C         -8.6660   26.3190    2.9310 C.2   600  DAH600      0.3822
      4  O         -8.9770   25.8360    1.8140 O.co2 600  DAH600     -0.2440
      5  CB        -6.3000   25.4300    3.6050 C.3   600  DAH600      0.0570
      6  CG        -5.0660   25.5510    4.5330 C.ar  600  DAH600     -0.0168
      7  CD1       -5.1960   26.0870    5.8710 C.ar  600  DAH600     -0.0007
      8  CD2       -3.7830   25.1260    4.0680 C.ar  600  DAH600      0.0412
      9  CE1       -4.0660   26.1860    6.7160 C.ar  600  DAH600      0.0451
     10  CE2       -2.6450   25.2230    4.9120 C.ar  600  DAH600      0.2339
     11  CZ        -2.7870   25.7600    6.2590 C.ar  600  DAH600      0.2342
     12  OE2       -1.4350   24.7950    4.4260 O.3   600  DAH600     -0.2832
     13  OZ        -1.7080   25.8750    7.1210 O.3   600  DAH600     -0.2831
     14  OXT       -9.5800   26.5790    3.9570 O.co2 600  DAH600     -0.2440
@<TRIPOS>BOND
     1     4     3   ar
     2     3     2    1
     3     3    14   ar
     4     2     5    1
     5     2     1    1
     6     5     6    1
     7     8     6   ar
     8     8    10   ar
     9    12    10    1
    10     6     7   ar
    11    10    11   ar
    12     7     9   ar
    13    11     9   ar
    14    11    13    1
