@<TRIPOS>MOLECULE
6prc_CEB_L_1.pdb
 17 17 0 0 0
SMALL
GASTEIGER

@<TRIPOS>ATOM
      1  N1       132.1620   70.8490   -2.7220 N.2   502  CEB502     -0.2480
      2  C2       131.5570   69.7910   -2.2450 C.1   502  CEB502      0.2271
      3 CL2       131.2300   69.8650   -0.5320 Cl    502  CEB502      0.0258
      4  N3       131.1660   68.6770   -2.8340 N.2   502  CEB502     -0.2480
      5  C4       131.4760   68.6810   -4.1640 C.1   502  CEB502      0.2424
      6  N5       132.0950   69.6650   -4.8100 N.2   502  CEB502     -0.2438
      7  C6       132.4120   70.7240   -4.0550 C.1   502  CEB502      0.2416
      8  N7       131.1100   67.5990   -4.8670 N.pl3 502  CEB502     -0.1396
      9  C8       130.4050   66.4260   -4.3700 C.3   502  CEB502      0.1662
     10  C9       131.1720   65.6720   -3.3290 C.1   502  CEB502      0.0923
     11  N9       131.7750   65.0570   -2.5430 N.1   502  CEB502     -0.1942
     12  C10      130.2860   65.3830   -5.4860 C.3   502  CEB502      0.0353
     13  C11      128.9030   64.8120   -5.7040 C.3   502  CEB502      0.0029
     14  C12      129.0590   66.8690   -3.7540 C.3   502  CEB502      0.0381
     15  N13      133.0310   71.7780   -4.6260 N.pl3 502  CEB502     -0.1506
     16  C14      133.4340   72.9970   -3.9230 C.3   502  CEB502      0.1263
     17  C15      133.5770   74.1430   -4.8680 C.3   502  CEB502      0.0261
@<TRIPOS>BOND
     1    13    12    1
     2    12     9    1
     3    17    16    1
     4     8     9    1
     5     8     5    1
     6     6     5    2
     7     6     7    2
     8    15     7    1
     9    15    16    1
    10     9    14    1
    11     9    10    1
    12     5     4    2
    13     7     1    2
    14    10    11    3
    15     4     2    2
    16     1     2    2
    17     2     3    1
