@<TRIPOS>MOLECULE
6prc_HEM_C_1.pdb
 43 50 0 0 0
SMALL
GASTEIGER

@<TRIPOS>ATOM
      1  CHA       79.3710    9.5830   18.2050 C.2   337  HEM337      0.0000
      2  CHB       75.7360   10.4660   15.0980 C.2   337  HEM337      0.0000
      3  CHC       78.5560   13.4320   12.5670 C.2   337  HEM337      0.0000
      4  CHD       82.2920   12.2760   15.4640 C.2   337  HEM337      0.0000
      5  C1A       78.1450    9.5230   17.5320 C.ar  337  HEM337      0.0000
      6  C2A       77.0330    8.6610   17.8880 C.ar  337  HEM337      0.0000
      7  C3A       75.9800    9.0470   17.1480 C.ar  337  HEM337      0.0000
      8  C4A       76.4840    9.9550   16.1500 C.ar  337  HEM337      0.0000
      9  CMA       74.5450    8.5840   17.3830 C.3   337  HEM337      0.0000
     10  CAA       76.9320    7.4910   18.8590 C.3   337  HEM337      0.0000
     11  CBA       77.3660    6.1560   18.2710 C.3   337  HEM337      0.0000
     12  CGA       77.7750    5.1750   19.3380 C.2   337  HEM337      0.0000
     13  O1A       78.9530    5.2060   19.7510 O.co2 337  HEM337      0.0000
     14  O2A       76.9120    4.4030   19.7980 O.co2 337  HEM337      0.0000
     15  C1B       76.2020   11.3330   14.1210 C.2   337  HEM337      0.0000
     16  C2B       75.4180   11.8310   13.0190 C.2   337  HEM337      0.0000
     17  C3B       76.1450   12.7840   12.4210 C.2   337  HEM337      0.0000
     18  C4B       77.4590   12.7250   13.0000 C.2   337  HEM337      0.0000
     19  CMB       74.0130   11.4060   12.6350 C.3   337  HEM337      0.0000
     20  CAB       75.8100   13.8020   11.3880 C.3   337  HEM337      0.0000
     21  CBB       74.5670   14.5780   11.7870 C.3   337  HEM337      0.0000
     22  C1C       79.8170   13.3710   13.1430 C.ar  337  HEM337      0.0000
     23  C2C       80.9830   14.0250   12.6130 C.ar  337  HEM337      0.0000
     24  C3C       82.0440   13.5770   13.3230 C.ar  337  HEM337      0.0000
     25  C4C       81.5270   12.7900   14.4180 C.ar  337  HEM337      0.0000
     26  CMC       80.9550   14.9810   11.4110 C.3   337  HEM337      0.0000
     27  CAC       83.5310   13.7690   13.1610 C.3   337  HEM337      0.0000
     28  CBC       83.8850   15.2560   13.1760 C.3   337  HEM337      0.0000
     29  C1D       81.8250   11.4910   16.5080 C.2   337  HEM337      0.0000
     30  C2D       82.5870   11.1160   17.6940 C.2   337  HEM337      0.0000
     31  C3D       81.7480   10.4080   18.4970 C.2   337  HEM337      0.0000
     32  C4D       80.4770   10.3220   17.7970 C.2   337  HEM337      0.0000
     33  CMD       84.0360   11.4790   18.0400 C.3   337  HEM337      0.0000
     34  CAD       82.1340    9.8790   19.8820 C.3   337  HEM337      0.0000
     35  CBD       81.6690   10.9600   20.8550 C.3   337  HEM337      0.0000
     36  CGD       82.0040   10.6790   22.3050 C.2   337  HEM337      0.0000
     37  O1D       81.3070   11.2310   23.1830 O.co2 337  HEM337      0.0000
     38  O2D       82.9440    9.9070   22.5880 O.co2 337  HEM337      0.0000
     39  NA        77.8200   10.2210   16.3880 N.ar  337  HEM337      0.0000
     40  NB        77.4780   11.8480   14.0550 N.2   337  HEM337      0.0000
     41  NC        80.1680   12.6200   14.2440 N.ar  337  HEM337      0.0000
     42  ND        80.5170   11.0700   16.6320 N.2   337  HEM337      0.0000
     43 FE         79.0050   11.4580   15.2980 Fe    337  HEM337      0.0000
@<TRIPOS>BOND
     1    20    21    1
     2    20    17    1
     3    26    23    1
     4    17    18    1
     5    17    16    2
     6     3    18    2
     7     3    22    1
     8    23    22   ar
     9    23    24   ar
    10    19    16    1
    11    18    40    1
    12    16    15    1
    13    22    41   ar
    14    27    28    1
    15    27    24    1
    16    24    25   ar
    17    40    15    2
    18    40    43    1
    19    15     2    1
    20    41    25   ar
    21    41    43    1
    22    25     4    1
    23     2     8    2
    24    43    39    1
    25    43    42    1
    26     4    29    2
    27     8    39   ar
    28     8     7   ar
    29    39     5   ar
    30    29    42    1
    31    29    30    1
    32    42    32    2
    33     7     9    1
    34     7     6   ar
    35     5     6   ar
    36     5     1    2
    37    30    33    1
    38    30    31    2
    39    32     1    1
    40    32    31    1
    41     6    10    1
    42    11    10    1
    43    11    12    1
    44    31    34    1
    45    12    13   ar
    46    12    14   ar
    47    34    35    1
    48    35    36    1
    49    36    38   ar
    50    36    37   ar
