@<TRIPOS>MOLECULE
6prc_MQ7_M_1.pdb
 48 49 0 0 0
SMALL
GASTEIGER

@<TRIPOS>ATOM
      1  C1       125.5370   82.3360    7.8260 C.2   501  MQ7501      0.1915
      2  O1       125.5680   81.6160    6.8120 O.2   501  MQ7501     -0.2869
      3  C2       124.6880   82.0090    8.9620 C.2   501  MQ7501      0.0165
      4  C2M      123.7630   80.8400    8.8060 C.3   501  MQ7501      0.0342
      5  C3       124.7440   82.7440   10.1140 C.2   501  MQ7501      0.0202
      6  C4       125.5950   83.8990   10.1720 C.2   501  MQ7501      0.1918
      7  O4       125.5650   84.5920   11.1680 O.2   501  MQ7501     -0.2869
      8  C5       126.4410   84.2380    9.0410 C.ar  501  MQ7501      0.0417
      9  C6       127.2990   85.3280    9.1090 C.ar  501  MQ7501      0.0033
     10  C7       128.1330   85.6200    8.0460 C.ar  501  MQ7501      0.0001
     11  C8       128.1150   84.8200    6.9130 C.ar  501  MQ7501      0.0001
     12  C9       127.2650   83.7490    6.8510 C.ar  501  MQ7501      0.0033
     13  C10      126.4260   83.4660    7.9210 C.ar  501  MQ7501      0.0417
     14  C11      123.9770   82.3370   11.3240 C.3   501  MQ7501      0.0547
     15  C12      124.7230   81.4290   12.1150 C.2   501  MQ7501     -0.0298
     16  C13      125.1280   81.5210   13.4300 C.2   501  MQ7501     -0.0475
     17  C14      124.8460   82.7280   14.2860 C.3   501  MQ7501      0.0260
     18  C15      125.8850   80.4240   14.1180 C.3   501  MQ7501      0.0264
     19  C16      125.1250   79.9190   15.3520 C.3   501  MQ7501      0.0297
     20  C17      123.7630   79.4750   15.0610 C.2   501  MQ7501     -0.0342
     21  C18      123.1090   78.2870   15.3690 C.2   501  MQ7501     -0.0478
     22  C19      123.6950   77.1020   16.1540 C.3   501  MQ7501      0.0260
     23  C20      121.6880   78.0110   14.9650 C.3   501  MQ7501      0.0263
     24  C21      120.7360   78.0580   16.1380 C.3   501  MQ7501      0.0297
     25  C22      120.5090   79.3850   16.5280 C.2   501  MQ7501     -0.0342
     26  C23      119.9950   79.7250   17.7520 C.2   501  MQ7501     -0.0478
     27  C24      119.6060   78.6530   18.7260 C.3   501  MQ7501      0.0260
     28  C25      119.7090   81.1160   18.2440 C.3   501  MQ7501      0.0263
     29  C26      118.1970   81.1190   18.3090 C.3   501  MQ7501      0.0297
     30  C27      117.9040   82.3780   18.7470 C.2   501  MQ7501     -0.0342
     31  C28      116.7120   83.0650   18.6730 C.2   501  MQ7501     -0.0478
     32  C29      115.4280   82.5080   18.0510 C.3   501  MQ7501      0.0260
     33  C30      116.6270   84.4640   19.2230 C.3   501  MQ7501      0.0263
     34  C31      115.5680   84.6450   20.2990 C.3   501  MQ7501      0.0297
     35  C32      115.3930   86.0970   20.5540 C.2   501  MQ7501     -0.0342
     36  C33      114.2280   86.8460   20.7080 C.2   501  MQ7501     -0.0478
     37  C34      112.7930   86.2900   20.6930 C.3   501  MQ7501      0.0260
     38  C35      114.1990   88.3450   20.9350 C.3   501  MQ7501      0.0263
     39  C36      113.6180   88.9920   19.6830 C.3   501  MQ7501      0.0297
     40  C37      113.6360   90.4050   19.8510 C.2   501  MQ7501     -0.0342
     41  C38      112.7850   91.3200   19.2410 C.2   501  MQ7501     -0.0478
     42  C39      111.6610   90.9110   18.2750 C.3   501  MQ7501      0.0260
     43  C40      112.8460   92.8290   19.4610 C.3   501  MQ7501      0.0263
     44  C41      112.1450   93.2460   20.7400 C.3   501  MQ7501      0.0297
     45  C42      113.0490   92.9370   21.8140 C.2   501  MQ7501     -0.0342
     46  C43      113.0340   92.3750   23.0960 C.2   501  MQ7501     -0.0478
     47  C44      111.8390   91.7970   23.8920 C.3   501  MQ7501      0.0260
     48  C45      114.3250   92.2300   23.9410 C.3   501  MQ7501      0.0260
@<TRIPOS>BOND
     1     2     1    2
     2    12    11   ar
     3    12    13   ar
     4    11    10   ar
     5     1    13    1
     6     1     3    1
     7    13     8   ar
     8    10     9   ar
     9     4     3    1
    10     3     5    2
    11     8     9   ar
    12     8     6    1
    13     5     6    1
    14     5    14    1
    15     6     7    2
    16    14    15    1
    17    15    16    2
    18    16    18    1
    19    16    17    1
    20    18    19    1
    21    23    21    1
    22    23    24    1
    23    20    19    1
    24    20    21    2
    25    21    22    1
    26    24    25    1
    27    25    26    2
    28    26    28    1
    29    26    27    1
    30    32    31    1
    31    28    29    1
    32    42    41    1
    33    29    30    1
    34    31    30    2
    35    31    33    1
    36    33    34    1
    37    41    43    1
    38    41    40    2
    39    43    44    1
    40    39    40    1
    41    39    38    1
    42    34    35    1
    43    35    36    2
    44    37    36    1
    45    36    38    1
    46    44    45    1
    47    45    46    2
    48    46    47    1
    49    46    48    1
