@<TRIPOS>MOLECULE
6prc_NS5_M_1.pdb
 40 39 0 0 0
SMALL
GASTEIGER

@<TRIPOS>ATOM
      1  C1       127.0870   48.7090   -8.2360 C.3   600  NS5600      0.0000
      2  CM1      128.4610   49.3280   -8.0220 C.3   600  NS5600      0.0000
      3  CM2      126.5700   49.0170   -9.6320 C.3   600  NS5600      0.0000
      4  C2       127.1210   47.1980   -7.9950 C.3   600  NS5600      0.0000
      5  C3       127.3790   46.7960   -6.5490 C.3   600  NS5600      0.0000
      6  C4       126.1350   46.9680   -5.6850 C.3   600  NS5600      0.0000
      7  C5       126.4230   46.7930   -4.2380 C.3   600  NS5600      0.0000
      8  C6       127.4100   47.7570   -3.6780 C.3   600  NS5600      0.0000
      9  C7       125.6120   46.0630   -3.4510 C.3   600  NS5600      0.0003
     10  C8       125.9670   45.6480   -2.0680 C.3   600  NS5600      0.0043
     11  C9       124.7380   45.3450   -1.2060 C.3   600  NS5600      0.0220
     12  C10      124.7340   46.1410    0.0870 C.2   600  NS5600     -0.0439
     13  C11      125.1820   47.5730   -0.0210 C.3   600  NS5600      0.0264
     14  C12      124.1140   45.6500    1.1820 C.2   600  NS5600     -0.0085
     15  C13      123.8570   46.3380    2.4370 C.2   600  NS5600     -0.0010
     16  C14      124.7730   46.7170    3.3510 C.2   600  NS5600     -0.0043
     17  C15      124.5130   47.5990    4.4890 C.2   600  NS5600     -0.0218
     18  C16      123.4890   48.6440    4.2360 C.3   600  NS5600      0.0310
     19  C17      125.2020   47.5020    5.6440 C.2   600  NS5600     -0.0043
     20  C18      125.1550   48.4340    6.7420 C.2   600  NS5600     -0.0003
     21  C19      125.8870   48.4460    7.8680 C.2   600  NS5600     -0.0003
     22  C20      126.8290   47.4440    8.2790 C.2   600  NS5600     -0.0043
     23  C21      127.6360   47.5810    9.3520 C.2   600  NS5600     -0.0218
     24  C22      127.7840   48.8550   10.0490 C.3   600  NS5600      0.0310
     25  C23      128.5030   46.4740    9.8320 C.2   600  NS5600     -0.0043
     26  C24      129.7580   46.6460   10.2950 C.2   600  NS5600     -0.0006
     27  C25      130.6870   45.6110   10.6900 C.2   600  NS5600     -0.0043
     28  C26      132.0000   45.7670   10.9670 C.2   600  NS5600     -0.0218
     29  C27      132.7480   47.0310   10.6980 C.3   600  NS5600      0.0310
     30  C28      132.7850   44.6730   11.5760 C.2   600  NS5600     -0.0043
     31  C29      134.1320   44.6900   11.6770 C.2   600  NS5600     -0.0010
     32  C30      134.9800   43.6270   12.2240 C.2   600  NS5600     -0.0085
     33  C31      136.2980   43.6740   12.5730 C.2   600  NS5600     -0.0436
     34  C32      137.2320   44.7660   12.1700 C.3   600  NS5600      0.0264
     35  C33      136.8970   42.6160   13.4900 C.3   600  NS5600      0.0267
     36  C34      137.3970   41.4170   12.7010 C.3   600  NS5600      0.0297
     37  C35      137.7660   40.2830   13.5880 C.2   600  NS5600     -0.0342
     38  C36      138.1630   39.0750   13.1500 C.2   600  NS5600     -0.0478
     39  CM3      138.4450   38.7920   11.7170 C.3   600  NS5600      0.0260
     40  CM4      138.4690   37.9590   14.0780 C.3   600  NS5600      0.0260
@<TRIPOS>BOND
     1     3     1    1
     2     1     2    1
     3     1     4    1
     4     4     5    1
     5     5     6    1
     6     6     7    1
     7     7     8    1
     8     7     9    1
     9     9    10    1
    10    10    11    1
    11    11    12    1
    12    13    12    1
    13    12    14    2
    14    14    15    1
    15    15    16    2
    16    16    17    1
    17    18    17    1
    18    17    19    2
    19    19    20    1
    20    20    21    2
    21    21    22    1
    22    22    23    2
    23    23    25    1
    24    23    24    1
    25    25    26    2
    26    26    27    1
    27    27    28    2
    28    29    28    1
    29    28    30    1
    30    30    31    2
    31    31    32    1
    32    39    38    1
    33    34    33    1
    34    32    33    2
    35    33    35    1
    36    36    35    1
    37    36    37    1
    38    38    37    2
    39    38    40    1
