@<TRIPOS>MOLECULE
6prn_C8E_A_1.pdb
 21 20 0 0 0
SMALL
GASTEIGER

@<TRIPOS>ATOM
      1  C1         4.2560   59.8010   44.5930 C.3   290  C8E290      0.0000
      2  C2         3.3350   59.0340   43.7620 C.3   290  C8E290      0.0000
      3  C3         2.0510   58.8410   44.4340 C.3   290  C8E290      0.0000
      4  C4         2.1490   57.6300   45.2660 C.3   290  C8E290      0.0000
      5  C5         2.0160   58.1310   46.6540 C.3   290  C8E290      0.0001
      6  C6         0.8430   57.5910   47.2750 C.3   290  C8E290      0.0026
      7  C7         1.2130   57.7910   48.6580 C.3   290  C8E290      0.0321
      8  C8         0.1870   57.2040   49.5280 C.3   290  C8E290      0.1423
      9  O9         0.4360   56.9290   50.8970 O.3   290  C8E290     -0.3511
     10  C10        0.7960   58.0020   51.7550 C.3   290  C8E290      0.1741
     11  C11        1.1490   57.3820   53.0860 C.3   290  C8E290      0.1743
     12  O12        0.0000   56.7500   53.7150 O.3   290  C8E290     -0.3471
     13  C13       -0.2460   55.3140   53.4940 C.3   290  C8E290      0.1894
     14  C14       -1.4580   54.8240   52.6330 C.3   290  C8E290      0.2376
     15  O15       -2.1750   53.5500   52.6660 O.2   290  C8E290     -0.4666
     16  C16       -1.7240   52.6340   51.6620 C.2   290  C8E290      0.2124
     17  C17       -1.8280   53.0170   50.1770 C.2   290  C8E290      0.2124
     18  O18       -1.5490   52.1930   49.0440 O.2   290  C8E290     -0.4665
     19  C19       -2.1150   50.8550   49.0130 C.3   290  C8E290      0.2411
     20  C20       -3.2630   50.3690   48.0450 C.3   290  C8E290      0.2292
     21  O21       -3.0940   50.6370   46.6330 O.3   290  C8E290     -0.2162
@<TRIPOS>BOND
     1     2     3    1
     2     2     1    1
     3     3     4    1
     4     4     5    1
     5    21    20    1
     6     5     6    1
     7     6     7    1
     8    20    19    1
     9     7     8    1
    10    19    18    1
    11    18    17    1
    12     8     9    1
    13    17    16    2
    14     9    10    1
    15    16    15    1
    16    10    11    1
    17    14    15    1
    18    14    13    1
    19    11    12    1
    20    13    12    1
