@<TRIPOS>MOLECULE
6r1r_III_P_1.pdb
 31 31 0 0 0
SMALL
GASTEIGER

@<TRIPOS>ATOM
      1  N         -4.4780   64.5510   31.7210 N.3     1  TYR1       -0.1227
      2  CA        -3.9990   63.7950   30.5390 C.3     1  TYR1        0.1736
      3  C         -3.4180   64.4760   29.2940 C.2     1  TYR1        0.2595
      4  O         -3.4000   65.6640   29.0160 O.2     1  TYR1       -0.2718
      5  CB        -5.0090   62.8290   29.9680 C.3     1  TYR1        0.0548
      6  CG        -6.4070   63.1790   29.6460 C.ar    1  TYR1       -0.0200
      7  CD1       -7.2840   63.6300   30.6180 C.ar    1  TYR1       -0.0009
      8  CD2       -6.8900   63.0160   28.3600 C.ar    1  TYR1       -0.0009
      9  CE1       -8.5940   63.9170   30.2910 C.ar    1  TYR1        0.0417
     10  CE2       -8.2010   63.3070   28.0220 C.ar    1  TYR1        0.0417
     11  CZ        -9.0440   63.7510   29.0030 C.ar    1  TYR1        0.1957
     12  OH       -10.3640   64.0590   28.7330 O.3     1  TYR1       -0.2866
     13  N         -2.9470   63.5770   28.4100 N.am    2  LEU2       -0.1966
     14  CA        -2.1660   63.9060   27.2380 C.3     2  LEU2        0.1728
     15  C         -2.5490   63.2440   25.9260 C.2     2  LEU2        0.2616
     16  O         -1.7350   62.5820   25.2760 O.2     2  LEU2       -0.2715
     17  CB        -0.7120   63.5080   27.5160 C.3     2  LEU2        0.0311
     18  CG         0.4640   64.4550   27.4740 C.3     2  LEU2        0.0022
     19  CD1        1.3080   64.2640   26.2270 C.3     2  LEU2        0.0001
     20  CD2        0.0040   65.8950   27.5460 C.3     2  LEU2        0.0001
     21  N         -3.7840   63.4130   25.4750 N.am    3  VAL3       -0.1963
     22  CA        -4.3220   62.9660   24.2010 C.3     3  VAL3        0.1727
     23  C         -4.3170   61.5220   23.7480 C.2     3  VAL3        0.2616
     24  O         -5.4330   61.0620   23.3740 O.2     3  VAL3       -0.2715
     25  CB        -3.6260   63.8990   23.1420 C.3     3  VAL3        0.0290
     26  CG1       -3.5790   63.3770   21.7240 C.3     3  VAL3        0.0023
     27  CG2       -4.3500   65.2350   23.2710 C.3     3  VAL3        0.0023
     28  N         -3.1840   60.8400   23.5980 N.am    4  GLY4       -0.1955
     29  CA        -3.1580   59.4730   23.0920 C.3     4  GLY4        0.1869
     30  C         -2.9130   59.3360   21.5900 C.2     4  GLY4        0.2309
     31  O         -2.9080   58.1640   21.1200 O.2     4  GLY4       -0.2863
@<TRIPOS>BOND
     1    31    30    2
     2    30    29    1
     3    26    25    1
     4    29    28    1
     5    25    27    1
     6    25    22    1
     7    24    23    2
     8    28    23   am
     9    23    22    1
    10    22    21    1
    11    16    15    2
    12    21    15   am
    13    15    14    1
    14    19    18    1
    15    14    17    1
    16    14    13    1
    17    18    17    1
    18    18    20    1
    19    10     8   ar
    20    10    11   ar
    21     8     6   ar
    22    13     3   am
    23    12    11    1
    24    11     9   ar
    25     4     3    2
    26     3     2    1
    27     6     5    1
    28     6     7   ar
    29     5     2    1
    30     9     7   ar
    31     2     1    1
