@<TRIPOS>MOLECULE
6rnt_2AM_A_1.pdb
 23 25 0 0 0
SMALL
GASTEIGER

@<TRIPOS>ATOM
      1  P         19.6670   13.8280    1.3770 P.3   105  2AM105      0.5328
      2  O1P       18.3820   14.4730    1.2140 O.2   105  2AM105     -0.2224
      3  O2P       20.8080   14.4870    1.9610 O.3   105  2AM105     -0.1145
      4  O3P       19.7300   12.3840    1.8180 O.3   105  2AM105     -0.1145
      5  C5'       24.2320   14.3790   -2.5090 C.3   105  2AM105      0.2143
      6  O5'       24.9010   13.9850   -1.2850 O.3   105  2AM105     -0.2176
      7  C4'       22.8470   13.7720   -2.5210 C.3   105  2AM105      0.1850
      8  O4'       22.8640   12.3600   -2.0880 O.3   105  2AM105     -0.3135
      9  C3'       21.8520   14.6060   -1.6310 C.3   105  2AM105      0.2158
     10  O3'       20.6810   15.0010   -2.3770 O.3   105  2AM105     -0.2175
     11  C2'       21.4830   13.4520   -0.6570 C.3   105  2AM105      0.2314
     12  O2'       20.1630   13.6280   -0.1880 O.3   105  2AM105     -0.2630
     13  C1'       21.6040   12.1450   -1.4110 C.3   105  2AM105      0.3158
     14  N9        21.7510   10.9030   -0.6290 N.pl3 105  2AM105     -0.1439
     15  C8        22.5990   10.6230    0.4300 C.3   105  2AM105      0.3377
     16  N7        22.6320    9.3420    0.7560 N.2   105  2AM105     -0.2095
     17  C5        21.7210    8.7570   -0.1050 C.2   105  2AM105      0.2526
     18  C6        21.3360    7.3840   -0.1210 C.2   105  2AM105      0.4393
     19  N6        21.6480    6.5340    0.7520 N.pl3 105  2AM105      0.2180
     20  N1        20.5410    7.0930   -1.2200 N.2   105  2AM105      0.0021
     21  C2        20.1580    8.0700   -2.1250 C.3   105  2AM105      0.5254
     22  N3        20.4480    9.4030   -2.0900 N.2   105  2AM105     -0.0055
     23  C4        21.3800    9.6440   -1.1130 C.2   105  2AM105      0.3518
@<TRIPOS>BOND
     1     7     5    1
     2     7     8    1
     3     7     9    1
     4     5     6    1
     5    10     9    1
     6    21    22    1
     7    21    20    1
     8    22    23    2
     9     8    13    1
    10     9    11    1
    11    13    11    1
    12    13    14    1
    13    20    18    2
    14    23    14    1
    15    23    17    1
    16    11    12    1
    17    14    15    1
    18    12     1    1
    19    18    17    1
    20    18    19    1
    21    17    16    2
    22    15    16    1
    23     2     1    2
    24     1     4    1
    25     1     3    1
