@<TRIPOS>MOLECULE
6tim_G3P_B_1.pdb
 10 9 0 0 0
SMALL
GASTEIGER

@<TRIPOS>ATOM
      1  O1        44.6970   13.8400   -8.2030 O.3   300  G3P300     -0.2175
      2  C1        45.1100   15.1900   -8.4090 C.3   300  G3P300      0.2174
      3  C2        46.4780   15.1030   -9.0410 C.3   300  G3P300      0.2147
      4  O2        47.4900   15.7400   -8.2220 O.3   300  G3P300     -0.2176
      5  C3        46.4740   15.5560  -10.5010 C.3   300  G3P300      0.1892
      6  O1P       47.6000   16.2500  -11.0660 O.3   300  G3P300     -0.2674
      7  O4P       46.7160   18.1880  -12.4610 O.3   300  G3P300     -0.1145
      8  O2P       48.8600   17.0020  -13.1090 O.3   300  G3P300     -0.1145
      9  O3P       46.6490   15.7170  -13.2390 O.2   300  G3P300     -0.2224
     10  P         47.4480   16.8590  -12.5590 P.3   300  G3P300      0.5327
@<TRIPOS>BOND
     1     9    10    2
     2     8    10    1
     3    10     7    1
     4    10     6    1
     5     6     5    1
     6     5     3    1
     7     3     2    1
     8     3     4    1
     9     2     1    1
