@<TRIPOS>MOLECULE
6tmn_0PI_E_1.pdb
 32 32 0 0 0
SMALL
GASTEIGER

@<TRIPOS>ATOM
      1  C1        49.7320   17.9160   -8.8050 C.2   317  0PI317      0.4220
      2  O1        49.6210   16.7060   -8.9830 O.2   317  0PI317     -0.2245
      3  O2        49.3950   18.7650   -9.7730 O.3   317  0PI317     -0.4285
      4  C2        48.8310   18.3870  -11.0980 C.3   317  0PI317      0.2368
      5  C3        47.5090   19.1420  -11.5030 C.ar  317  0PI317      0.0213
      6  C4        46.4420   19.1120  -10.6250 C.ar  317  0PI317     -0.0007
      7  C5        45.1590   19.6270  -10.8670 C.ar  317  0PI317     -0.0002
      8  C6        45.0560   20.3520  -12.0020 C.ar  317  0PI317     -0.0000
      9  C7        46.1150   20.5390  -12.8310 C.ar  317  0PI317     -0.0002
     10  C8        47.3490   19.8900  -12.6480 C.ar  317  0PI317     -0.0007
     11  N         50.1340   18.6110   -7.7380 N.am  317  0PI317     -0.1554
     12  C         50.4270   17.8980   -6.5890 C.3   317  0PI317      0.2357
     13  P         51.7870   18.9090   -6.0200 P.3   317  0PI317      0.3916
     14  O11       51.5770   20.4520   -5.9460 O.3   317  0PI317     -0.1382
     15  O21       53.0370   18.6550   -6.6220 O.2   317  0PI317     -0.2536
     16  OS        51.7690   18.4130   -4.4820 O.3   317  0PI317     -0.2846
     17  CA        52.8820   18.2660   -3.6000 C.3   317  0PI317      0.2012
     18  C9        53.5700   16.9230   -3.8630 C.2   317  0PI317      0.2695
     19  O         54.8000   16.7670   -3.8170 O.2   317  0PI317     -0.2707
     20  CB        52.4680   18.3300   -2.0970 C.3   317  0PI317      0.0396
     21  CG        53.6790   18.1480   -1.1610 C.3   317  0PI317      0.0029
     22  CD1       54.5800   19.3810   -1.3270 C.3   317  0PI317      0.0001
     23  CD2       53.0320   18.1390    0.2090 C.3   317  0PI317      0.0001
     24  N1        52.7310   15.9160   -4.1400 N.am  317  0PI317     -0.1935
     25  CA1       53.1280   14.5230   -4.3810 C.3   317  0PI317      0.1978
     26  CC        52.3790   13.8440   -5.5290 C.2   317  0PI317      0.3842
     27  O3        51.2930   14.3330   -5.9470 O.co2 317  0PI317     -0.2437
     28  CB1       53.4770   13.6920   -3.1090 C.3   317  0PI317      0.0333
     29  CG1       52.2970   13.4890   -2.2280 C.3   317  0PI317      0.0023
     30 CD11       52.3240   12.1690   -1.4970 C.3   317  0PI317      0.0001
     31 CD21       52.4260   14.5420   -1.1620 C.3   317  0PI317      0.0001
     32  OXT       52.8340   12.7940   -6.1160 O.co2 317  0PI317     -0.2437
@<TRIPOS>BOND
     1     9    10   ar
     2     9     8   ar
     3    10     5   ar
     4     8     7   ar
     5     5     4    1
     6     5     6   ar
     7     4     3    1
     8     7     6   ar
     9     3     1    1
    10     2     1    2
    11     1    11   am
    12    11    12    1
    13    15    13    2
    14    12    13    1
    15    32    26   ar
    16    13    14    1
    17    13    16    1
    18    27    26   ar
    19    26    25    1
    20    16    17    1
    21    25    24    1
    22    25    28    1
    23    24    18   am
    24    18    19    2
    25    18    17    1
    26    17    20    1
    27    28    29    1
    28    29    30    1
    29    29    31    1
    30    20    21    1
    31    22    21    1
    32    21    23    1
