@<TRIPOS>MOLECULE
6upj_NIU_A_1.pdb
 22 24 0 0 0
SMALL
GASTEIGER

@<TRIPOS>ATOM
      1  CA        -0.3910   18.2260   20.7610 C.ar  100  NIU100      0.0960
      2  CA2       -1.5590   17.6530   21.3460 C.ar  100  NIU100      0.3451
      3  OA2       -1.7710   16.4940   21.2540 O.2   100  NIU100     -0.2447
      4  OA3       -2.5020   18.3810   21.9930 O.2   100  NIU100     -0.4214
      5  CA4       -2.2600   19.7610   22.0620 C.ar  100  NIU100      0.1475
      6  CA5       -1.1310   20.4070   21.5150 C.ar  100  NIU100      0.0512
      7  CA6       -0.1860   19.5920   20.8550 C.ar  100  NIU100      0.1971
      8  OA6        0.9740   20.0970   20.3010 O.3   100  NIU100     -0.2869
      9  CB1        0.0220   16.6320   18.7530 C.ar  100  NIU100     -0.0181
     10  CB2       -0.3250   17.3520   17.5770 C.ar  100  NIU100     -0.0040
     11  CB3       -0.8470   16.6580   16.4670 C.ar  100  NIU100     -0.0003
     12  CB4       -1.0470   15.2640   16.5180 C.ar  100  NIU100     -0.0000
     13  CB5       -0.7110   14.5580   17.6780 C.ar  100  NIU100     -0.0003
     14  CB6       -0.1860   15.2220   18.8000 C.ar  100  NIU100     -0.0040
     15  CG1        0.6250   17.3830   19.9550 C.3   100  NIU100      0.0541
     16  CG2        1.6480   16.5950   20.7860 C.3   100  NIU100      0.0091
     17  CG3        1.1130   15.4320   21.6200 C.3   100  NIU100      0.0007
     18  CD1       -3.3620   20.5360   22.8040 C.2   100  NIU100      0.0328
     19  CD2       -3.9960   21.7450   22.1160 C.2   100  NIU100     -0.0230
     20  CD3       -3.4120   22.1280   20.7460 C.3   100  NIU100      0.0265
     21  CD4       -1.9750   22.6960   20.7700 C.3   100  NIU100      0.0096
     22  CD5       -0.9560   21.9070   21.6170 C.3   100  NIU100      0.0331
@<TRIPOS>BOND
     1    11    12   ar
     2    11    10   ar
     3    12    13   ar
     4    10     9   ar
     5    13    14   ar
     6     9    14   ar
     7     9    15    1
     8    15     1    1
     9    15    16    1
    10     8     7    1
    11    20    21    1
    12    20    19    1
    13     1     7   ar
    14     1     2   ar
    15    21    22    1
    16    16    17    1
    17     7     6   ar
    18     3     2    2
    19     2     4   ar
    20     6    22    1
    21     6     5   ar
    22     4     5   ar
    23     5    18    1
    24    19    18    2
