@<TRIPOS>MOLECULE
6xim_XLS_A_1.pdb
 10 9 0 0 0
SMALL
GASTEIGER

@<TRIPOS>ATOM
      1  C1        30.6700   44.0840  172.0440 C.3   397  XLS397      0.2175
      2  C2        31.6840   43.6890  170.9940 C.3   397  XLS397      0.2175
      3  C3        31.7290   42.1770  170.7200 C.3   397  XLS397      0.2175
      4  C4        33.0750   41.7320  170.1400 C.3   397  XLS397      0.2175
      5  C5        33.3160   40.2480  170.2110 C.3   397  XLS397      0.2175
      6  O1        30.4080   45.4710  171.8930 O.3   397  XLS397     -0.2175
      7  O2        31.4090   44.4560  169.8210 O.3   397  XLS397     -0.2175
      8  O3        30.6760   41.7340  169.8640 O.3   397  XLS397     -0.2175
      9  O4        33.2860   42.2890  168.8150 O.3   397  XLS397     -0.2175
     10  O5        33.6610   39.8240  171.5030 O.3   397  XLS397     -0.2175
@<TRIPOS>BOND
     1     9     4    1
     2     7     2    1
     3     8     3    1
     4     4     5    1
     5     4     3    1
     6     5    10    1
     7     3     2    1
     8     2     1    1
     9     6     1    1
