@<TRIPOS>MOLECULE
721p_GNP_A_1.pdb
 32 34 0 0 0
SMALL
GASTEIGER

@<TRIPOS>ATOM
      1  PG         5.1530   32.0630   22.0210 P.3   167  GNP167      0.4884
      2  O1G        4.8990   32.4460   23.4200 O.3   167  GNP167     -0.1240
      3  O2G        4.1750   32.6630   21.1320 O.2   167  GNP167     -0.2331
      4  O3G        4.6520   30.5490   21.9730 O.3   167  GNP167     -0.1240
      5  N3B        6.7490   32.1230   21.5820 N.3   167  GNP167     -0.0163
      6  PB         7.3080   31.8720   20.0240 P.3   167  GNP167      0.4669
      7  O1B        7.4640   30.4620   19.6800 O.3   167  GNP167     -0.1253
      8  O2B        6.6340   32.6020   18.9590 O.2   167  GNP167     -0.2351
      9  O3A        8.7730   32.4890   19.9800 O.3   167  GNP167     -0.2360
     10  PA         9.2670   34.0070   19.5570 P.3   167  GNP167      0.2220
     11  O1A        9.4180   34.0780   18.1000 O.2   167  GNP167     -0.5170
     12  O2A        8.5290   35.0740   20.3030 O.3   167  GNP167     -0.4370
     13  O5'       10.7450   33.9610   20.1170 O.3   167  GNP167     -0.3111
     14  C5'       11.1110   33.7560   21.4760 C.3   167  GNP167      0.1813
     15  C4'       12.5560   34.2000   21.6590 C.3   167  GNP167      0.1799
     16  O4'       13.4860   33.4200   20.8700 O.3   167  GNP167     -0.3326
     17  C3'       12.7470   35.6640   21.2390 C.3   167  GNP167      0.2158
     18  O3'       13.6690   36.3300   22.0860 O.3   167  GNP167     -0.2175
     19  C2'       13.3680   35.5250   19.8680 C.3   167  GNP167      0.2310
     20  O2'       14.1090   36.6940   19.5110 O.3   167  GNP167     -0.2158
     21  C1'       14.2750   34.2940   20.0690 C.3   167  GNP167      0.2293
     22  N9        14.4370   33.5590   18.8030 N.pl3 167  GNP167     -0.2354
     23  C8        13.4590   33.1050   17.9320 C.3   167  GNP167      0.2246
     24  N7        13.9020   32.4530   16.9030 N.2   167  GNP167     -0.2322
     25  C5        15.2830   32.5030   17.0730 C.2   167  GNP167      0.2182
     26  C6        16.3000   31.9440   16.3050 C.1   167  GNP167      0.2372
     27  O6        16.2260   31.3850   15.2390 O.2   167  GNP167     -0.2069
     28  N1        17.5260   32.1200   16.8740 N.2   167  GNP167     -0.2485
     29  C2        17.7890   32.8160   18.0300 C.1   167  GNP167      0.2531
     30  N2        19.0800   32.9880   18.3410 N.pl3 167  GNP167     -0.0226
     31  N3        16.8370   33.3310   18.7890 N.2   167  GNP167     -0.3074
     32  C4        15.6180   33.1540   18.2420 C.2   167  GNP167      0.2300
@<TRIPOS>BOND
     1    27    26    2
     2    26    28    2
     3    26    25    1
     4    28    29    2
     5    24    25    2
     6    24    23    1
     7    25    32    1
     8    23    22    1
     9    29    30    1
    10    29    31    2
    11    11    10    2
    12    32    31    2
    13    32    22    1
    14    22    21    1
    15     8     6    2
    16    20    19    1
    17    10     9    1
    18    10    13    1
    19    10    12    1
    20     7     6    1
    21    19    21    1
    22    19    17    1
    23     9     6    1
    24     6     5    1
    25    21    16    1
    26    13    14    1
    27    16    15    1
    28     3     1    2
    29    17    15    1
    30    17    18    1
    31    14    15    1
    32     5     1    1
    33     4     1    1
    34     1     2    1
