@<TRIPOS>MOLECULE
7aat_PLP_A_1.pdb
 15 15 0 0 0
SMALL
GASTEIGER

@<TRIPOS>ATOM
      1  N1         7.5460   -1.0980   11.5900 N.ar  411  PLP411     -0.2452
      2  C2         8.2820   -1.2680   10.4600 C.ar  411  PLP411      0.0978
      3  C2A        8.0490   -2.5700    9.7210 C.3   411  PLP411      0.0555
      4  C3         9.1660   -0.2050   10.0980 C.ar  411  PLP411      0.2049
      5  O3         9.8630   -0.4830    8.9810 O.3   411  PLP411     -0.2857
      6  C4         9.2750    0.9010   10.8930 C.ar  411  PLP411      0.0182
      7  C4A       10.2340    1.9320   10.5800 C.3   411  PLP411      0.0342
      8  C5         8.4600    0.9600   12.0740 C.ar  411  PLP411      0.0261
      9  C6         7.6030   -0.0260   12.3760 C.ar  411  PLP411      0.0965
     10  C5A        8.5390    2.2400   12.9280 C.3   411  PLP411      0.1815
     11  O4P        9.8660    2.7070   13.1600 O.3   411  PLP411     -0.2653
     12  P         10.0880    3.9730   14.1410 P.3   411  PLP411      0.5329
     13  O1P        8.9300    4.8340   13.9410 O.3   411  PLP411     -0.1145
     14  O2P       11.3860    4.5870   13.7840 O.2   411  PLP411     -0.2224
     15  O3P       10.0660    3.3690   15.5480 O.3   411  PLP411     -0.1145
@<TRIPOS>BOND
     1     5     4    1
     2     3     2    1
     3     4     2   ar
     4     4     6   ar
     5     2     1   ar
     6     7     6    1
     7     6     8   ar
     8     1     9   ar
     9     8     9   ar
    10     8    10    1
    11    10    11    1
    12    11    12    1
    13    14    12    2
    14    13    12    1
    15    12    15    1
