@<TRIPOS>MOLECULE
7abp_FCB_A_1.pdb
 11 11 0 0 0
SMALL
GASTEIGER

@<TRIPOS>ATOM
      1  C1        14.2620   56.5790   55.1550 C.3   308  FCB308      0.3023
      2  C2        12.8450   57.0470   54.9050 C.3   308  FCB308      0.2434
      3  C3        12.3340   56.3850   53.8360 C.3   308  FCB308      0.2198
      4  C4        13.1730   56.5220   52.4790 C.3   308  FCB308      0.2118
      5  C5        14.6010   56.0900   52.7910 C.3   308  FCB308      0.1509
      6  C6        15.6510   56.5220   51.7620 C.3   308  FCB308      0.0350
      7  O1        14.8460   57.3560   56.1920 O.3   308  FCB308     -0.1869
      8  O2        12.0680   56.6590   56.0510 O.3   308  FCB308     -0.2148
      9  O3        10.9450   56.7660   53.3920 O.3   308  FCB308     -0.2174
     10  O4        13.1790   57.9170   52.0970 O.3   308  FCB308     -0.2177
     11  O5        15.0620   56.7450   54.0000 O.3   308  FCB308     -0.3264
@<TRIPOS>BOND
     1     6     5    1
     2    10     4    1
     3     4     5    1
     4     4     3    1
     5     5    11    1
     6     9     3    1
     7     3     2    1
     8    11     1    1
     9     2     1    1
    10     2     8    1
    11     1     7    1
