@<TRIPOS>MOLECULE
7abp_FCA_A_1.pdb
 11 11 0 0 0
SMALL
GASTEIGER

@<TRIPOS>ATOM
      1  C1        14.3010   57.1260   55.2250 C.3   307  FCA307      0.3023
      2  C2        12.8400   57.2990   54.8580 C.3   307  FCA307      0.2434
      3  C3        12.3730   56.4280   53.7660 C.3   307  FCA307      0.2198
      4  C4        13.2290   56.6080   52.4870 C.3   307  FCA307      0.2118
      5  C5        14.6900   56.3210   52.8850 C.3   307  FCA307      0.1509
      6  C6        15.7070   56.7590   51.8240 C.3   307  FCA307      0.0350
      7  O1        14.4840   55.9390   55.9190 O.3   307  FCA307     -0.1869
      8  O2        12.0450   57.0330   56.0670 O.3   307  FCA307     -0.2148
      9  O3        11.0180   56.7380   53.4310 O.3   307  FCA307     -0.2174
     10  O4        13.0450   57.9030   51.8870 O.3   307  FCA307     -0.2177
     11  O5        15.0850   57.0690   54.0160 O.3   307  FCA307     -0.3264
@<TRIPOS>BOND
     1     6     5    1
     2    10     4    1
     3     4     5    1
     4     4     3    1
     5     5    11    1
     6     9     3    1
     7     3     2    1
     8    11     1    1
     9     2     1    1
    10     2     8    1
    11     1     7    1
