@<TRIPOS>MOLECULE
7acn_ICT_A_1.pdb
 13 12 0 0 0
SMALL
GASTEIGER

@<TRIPOS>ATOM
      1  C1        35.3810   34.8400   69.6640 C.2   755  ICT755      0.3952
      2  O1        35.2670   36.1000   69.8590 O.co2 755  ICT755     -0.2428
      3  O2        34.7590   34.2530   68.7510 O.co2 755  ICT755     -0.2428
      4  C2        36.2150   33.9990   70.5700 C.3   755  ICT755      0.2651
      5  O7        36.1150   32.5810   70.3210 O.3   755  ICT755     -0.2103
      6  C3        35.7620   34.3670   71.9710 C.3   755  ICT755      0.1561
      7  C4        36.8410   34.1760   73.0040 C.3   755  ICT755      0.1285
      8  C5        38.0970   34.9950   72.7960 C.2   755  ICT755      0.3655
      9  O3        39.1230   34.3110   72.9600 O.co2 755  ICT755     -0.2456
     10  O4        38.1210   36.2140   72.4850 O.co2 755  ICT755     -0.2456
     11  C6        34.3780   34.0050   72.4790 C.2   755  ICT755      0.3680
     12  O5        33.4520   33.9460   71.7190 O.co2 755  ICT755     -0.2455
     13  O6        34.0850   33.8770   73.6670 O.co2 755  ICT755     -0.2455
@<TRIPOS>BOND
     1     3     1   ar
     2     1     2   ar
     3     1     4    1
     4     5     4    1
     5     4     6    1
     6    12    11   ar
     7     6    11    1
     8     6     7    1
     9    11    13   ar
    10    10     8   ar
    11     8     9   ar
    12     8     7    1
