@<TRIPOS>MOLECULE
7at1_ATP_B_1.pdb
 31 33 0 0 0
SMALL
GASTEIGER

@<TRIPOS>ATOM
      1  PG         6.8770   76.3360   26.6860 P.3   155  ATP155      0.5373
      2  O1G        6.0190   76.0040   27.9890 O.3   155  ATP155     -0.1143
      3  O2G        8.4170   76.5080   27.0140 O.3   155  ATP155     -0.1143
      4  O3G        6.6950   75.1810   25.6280 O.2   155  ATP155     -0.2221
      5  PB         6.4290   79.0540   27.0310 P.3   155  ATP155      0.2277
      6  O1B        4.9650   79.3640   27.4980 O.2   155  ATP155     -0.5168
      7  O2B        7.3680   78.8170   28.2810 O.3   155  ATP155     -0.4368
      8  O3B        6.3210   77.7400   26.0230 O.3   155  ATP155     -0.2258
      9  PA         8.5450   79.9900   25.7150 P.3   155  ATP155      0.2189
     10  O1A        9.1460   81.1490   24.8070 O.2   155  ATP155     -0.5170
     11  O2A        8.5190   78.5940   24.9520 O.3   155  ATP155     -0.4371
     12  O3A        7.0220   80.3630   26.2060 O.3   155  ATP155     -0.2700
     13  O5'        9.5700   79.8150   26.9880 O.3   155  ATP155     -0.3112
     14  C5'       10.9650   79.6950   26.6730 C.3   155  ATP155      0.1813
     15  C4'       11.8010   79.3780   27.8790 C.3   155  ATP155      0.1821
     16  O4'       13.0560   79.9960   27.6110 O.3   155  ATP155     -0.3135
     17  C3'       11.2570   80.0330   29.1490 C.3   155  ATP155      0.2184
     18  O3'       11.7040   79.2410   30.2550 O.3   155  ATP155     -0.2174
     19  C2'       11.9740   81.4090   29.1600 C.3   155  ATP155      0.2570
     20  O2'       12.5320   81.7430   30.4350 O.3   155  ATP155     -0.2130
     21  C1'       13.1830   81.2420   28.2710 C.3   155  ATP155      0.3186
     22  N9        13.3160   82.4060   27.4110 N.pl3 155  ATP155     -0.1439
     23  C8        12.8310   82.5640   26.2080 C.3   155  ATP155      0.3377
     24  N7        13.2590   83.6580   25.6220 N.2   155  ATP155     -0.2095
     25  C5        14.0680   84.2360   26.5160 C.2   155  ATP155      0.2526
     26  C6        14.9540   85.2940   26.5540 C.2   155  ATP155      0.4393
     27  N6        15.1000   86.1110   25.5010 N.pl3 155  ATP155      0.2180
     28  N1        15.7170   85.4430   27.6580 N.2   155  ATP155      0.0021
     29  C2        15.6110   84.6070   28.6890 C.3   155  ATP155      0.5254
     30  N3        14.8020   83.5890   28.7790 N.2   155  ATP155     -0.0055
     31  C4        14.0910   83.4610   27.6560 C.2   155  ATP155      0.3518
@<TRIPOS>BOND
     1    10     9    2
     2    11     9    1
     3    27    26    1
     4    24    23    1
     5    24    25    2
     6     4     1    2
     7     9    12    1
     8     9    13    1
     9     8     1    1
    10     8     5    1
    11    12     5    1
    12    23    22    1
    13    25    26    1
    14    25    31    1
    15    26    28    2
    16    14    13    1
    17    14    15    1
    18     1     3    1
    19     1     2    1
    20     5     6    2
    21     5     7    1
    22    22    31    1
    23    22    21    1
    24    16    15    1
    25    16    21    1
    26    31    30    2
    27    28    29    1
    28    15    17    1
    29    21    19    1
    30    29    30    1
    31    17    19    1
    32    17    18    1
    33    19    20    1
