@<TRIPOS>MOLECULE
7atj_FER_A_1.pdb
 14 14 0 0 0
SMALL
GASTEIGER

@<TRIPOS>ATOM
      1  C4         4.0980   25.6200   29.9950 C.ar  701  FER701      0.2293
      2  C5         4.2440   24.4820   30.7790 C.ar  701  FER701      0.0452
      3  C6         5.2990   24.3290   31.6690 C.ar  701  FER701      0.0035
      4  C3         5.0480   26.6490   30.1080 C.ar  701  FER701      0.1774
      5  C2         6.1090   26.4920   31.0050 C.ar  701  FER701      0.0402
      6  C1         6.2520   25.3340   31.7970 C.ar  701  FER701      0.0034
      7  C10        5.7240   28.8280   29.2540 C.3   701  FER701      0.2526
      8  C7         7.3820   25.2270   32.7170 C.2   701  FER701      0.0069
      9  C8         7.5120   24.1380   33.4610 C.2   701  FER701      0.0861
     10  C9         8.5880   23.8830   34.4290 C.2   701  FER701      0.3880
     11  O1         8.5550   22.7560   35.0690 O.co2 701  FER701     -0.2405
     12  O2         9.4860   24.8150   34.5610 O.co2 701  FER701     -0.2405
     13  O4         3.0410   25.7210   29.1330 O.3   701  FER701     -0.2833
     14  O3         4.7850   27.7170   29.2770 O.3   701  FER701     -0.4682
@<TRIPOS>BOND
     1    13     1    1
     2     7    14    1
     3    14     4    1
     4     1     4   ar
     5     1     2   ar
     6     4     5   ar
     7     2     3   ar
     8     5     6   ar
     9     3     6   ar
    10     6     8    1
    11     8     9    2
    12     9    10    1
    13    10    12   ar
    14    10    11   ar
