@<TRIPOS>MOLECULE
7atj_HEM_A_1.pdb
 43 50 0 0 0
SMALL
GASTEIGER

@<TRIPOS>ATOM
      1 FE          3.2590    1.9540   11.7630 Fe    350  HEM350      0.0000
      2  CHA        0.0650    3.0400   12.0550 C.2   350  HEM350      0.0000
      3  CHB        2.4590    0.3640    8.7720 C.2   350  HEM350      0.0000
      4  CHC        6.5280    0.9540   11.4530 C.2   350  HEM350      0.0000
      5  CHD        4.1710    3.7950   14.5780 C.2   350  HEM350      0.0000
      6  NA         1.5800    1.7820   10.6360 N.ar  350  HEM350      0.0000
      7  C1A        0.3140    2.2870   10.9180 C.ar  350  HEM350      0.0000
      8  C2A       -0.5910    1.9960    9.7960 C.ar  350  HEM350      0.0000
      9  C3A        0.1350    1.2150    8.8600 C.ar  350  HEM350      0.0000
     10  C4A        1.4830    1.0980    9.4190 C.ar  350  HEM350      0.0000
     11  CMA       -0.4250    0.5630    7.6200 C.3   350  HEM350      0.0000
     12  CAA       -2.1350    2.3650    9.8280 C.3   350  HEM350      0.0000
     13  CBA       -2.2730    3.5810    8.9220 C.3   350  HEM350      0.0000
     14  CGA       -3.8920    4.0000    8.7990 C.2   350  HEM350      0.0000
     15  O1A       -4.0890    5.0040    8.2080 O.co2 350  HEM350      0.0000
     16  O2A       -4.6670    3.1030    8.8840 O.co2 350  HEM350      0.0000
     17  NB         4.3100    0.8620   10.4160 N.2   350  HEM350      0.0000
     18  C1B        3.7400    0.2630    9.2920 C.2   350  HEM350      0.0000
     19  C2B        4.7960   -0.4680    8.6130 C.2   350  HEM350      0.0000
     20  C3B        5.9050   -0.5220    9.4080 C.2   350  HEM350      0.0000
     21  C4B        5.6280    0.4370   10.5310 C.2   350  HEM350      0.0000
     22  CMB        4.6290   -1.3740    7.4230 C.3   350  HEM350      0.0000
     23  CAB        7.1970   -1.1690    9.2750 C.2   350  HEM350      0.0000
     24  CBB        8.0630   -1.6330   10.2020 C.2   350  HEM350      0.0000
     25  NC         4.9870    2.2960   12.7790 N.ar  350  HEM350      0.0000
     26  C1C        6.2600    1.8520   12.4740 C.ar  350  HEM350      0.0000
     27  C2C        7.2780    2.4220   13.3550 C.ar  350  HEM350      0.0000
     28  C3C        6.6390    3.2770   14.2180 C.ar  350  HEM350      0.0000
     29  C4C        5.1790    3.2260   13.8040 C.ar  350  HEM350      0.0000
     30  CMC        8.7540    2.1620   13.1690 C.3   350  HEM350      0.0000
     31  CAC        7.1110    4.1630   15.2860 C.2   350  HEM350      0.0000
     32  CBC        8.1850    3.9390   16.0810 C.2   350  HEM350      0.0000
     33  ND         2.2700    3.1330   13.1050 N.2   350  HEM350      0.0000
     34  C1D        2.8240    3.6260   14.2840 C.2   350  HEM350      0.0000
     35  C2D        1.7130    4.2130   15.0140 C.2   350  HEM350      0.0000
     36  C3D        0.5260    4.1280   14.3250 C.2   350  HEM350      0.0000
     37  C4D        0.9070    3.4540   13.0840 C.2   350  HEM350      0.0000
     38  CMD        1.9790    4.6940   16.4310 C.3   350  HEM350      0.0000
     39  CAD       -0.9410    4.5140   14.7870 C.3   350  HEM350      0.0000
     40  CBD       -1.0810    5.9610   14.3230 C.3   350  HEM350      0.0000
     41  CGD       -2.5850    6.6140   14.6680 C.2   350  HEM350      0.0000
     42  O1D       -2.7510    7.6660   14.1240 O.co2 350  HEM350      0.0000
     43  O2D       -3.3560    5.8780   15.2030 O.co2 350  HEM350      0.0000
@<TRIPOS>BOND
     1    22    19    1
     2    11     9    1
     3    15    14   ar
     4    19    18    1
     5    19    20    2
     6     3    18    1
     7     3    10    2
     8    14    16   ar
     9    14    13    1
    10     9    10   ar
    11     9     8   ar
    12    13    12    1
    13    23    20    1
    14    23    24    2
    15    18    17    2
    16    20    21    1
    17    10     6   ar
    18     8    12    1
    19     8     7   ar
    20    17    21    1
    21    17     1    1
    22    21     4    2
    23     6     7   ar
    24     6     1    1
    25     7     2    2
    26     4    26    1
    27     1    25    1
    28     1    33    1
    29     2    37    1
    30    26    25   ar
    31    26    27   ar
    32    25    29   ar
    33    37    33    2
    34    37    36    1
    35    33    34    1
    36    30    27    1
    37    27    28   ar
    38    29    28   ar
    39    29     5    1
    40    42    41   ar
    41    28    31    1
    42    34     5    2
    43    34    35    1
    44    40    41    1
    45    40    39    1
    46    36    39    1
    47    36    35    2
    48    41    43   ar
    49    35    38    1
    50    31    32    2
