@<TRIPOS>MOLECULE
7cat_NDP_A_1.pdb
 48 52 0 0 0
SMALL
GASTEIGER

@<TRIPOS>ATOM
      1  PA        33.4390   11.6300   33.4680 P.3   508  NDP508      0.2189
      2  O1A       33.4890   11.5780   34.9710 O.3   508  NDP508     -0.4371
      3  O2A       34.0900   12.7980   32.9090 O.2   508  NDP508     -0.5170
      4  O5B       31.8280   11.5860   33.1770 O.3   508  NDP508     -0.3112
      5  C5B       31.1120   10.3220   33.6000 C.3   508  NDP508      0.1813
      6  C4B       29.8190   10.3820   32.7800 C.3   508  NDP508      0.1820
      7  O4B       28.7850    9.5870   33.3740 O.3   508  NDP508     -0.3136
      8  C3B       29.2710   11.8140   32.7340 C.3   508  NDP508      0.2157
      9  O3B       29.2120   12.4150   31.4620 O.3   508  NDP508     -0.2175
     10  C2B       27.9190   11.7310   33.4500 C.3   508  NDP508      0.2314
     11  O2B       27.0040   12.6250   32.7490 O.3   508  NDP508     -0.2630
     12  C1B       27.4930   10.3030   33.2090 C.3   508  NDP508      0.3158
     13  N9A       26.5880    9.5190   34.0230 N.pl3 508  NDP508     -0.1439
     14  C8A       26.4250    9.4930   35.3770 C.3   508  NDP508      0.3377
     15  N7A       25.6090    8.5500   35.8130 N.2   508  NDP508     -0.2095
     16  C5A       25.2590    7.8660   34.6780 C.2   508  NDP508      0.2526
     17  C6A       24.3780    6.7790   34.4620 C.2   508  NDP508      0.4393
     18  N6A       23.7200    6.1320   35.4180 N.pl3 508  NDP508      0.2180
     19  N1A       24.2070    6.3760   33.1780 N.2   508  NDP508      0.0021
     20  C2A       24.8660    7.0430   32.1740 C.3   508  NDP508      0.5254
     21  N3A       25.6830    8.0590   32.2740 N.2   508  NDP508     -0.0055
     22  C4A       25.8580    8.4240   33.5690 C.2   508  NDP508      0.3518
     23  O3        33.8510   10.2700   32.7810 O.3   508  NDP508     -0.2703
     24  PN        34.6790    9.6100   31.6820 P.3   508  NDP508      0.2189
     25  O1N       35.9640    9.0430   32.2440 O.3   508  NDP508     -0.4371
     26  O2N       34.9350   10.3280   30.4450 O.2   508  NDP508     -0.5170
     27  O5D       33.7060    8.2860   31.3890 O.3   508  NDP508     -0.3112
     28  C5D       33.8690    7.1880   32.3330 C.3   508  NDP508      0.1813
     29  C4D       32.6660    6.2770   32.2030 C.3   508  NDP508      0.1799
     30  O4D       31.4990    7.1340   32.2910 O.3   508  NDP508     -0.3327
     31  C3D       32.5400    5.5810   30.8230 C.3   508  NDP508      0.2158
     32  O3D       33.0920    4.2900   30.9790 O.3   508  NDP508     -0.2175
     33  C2D       31.0450    5.5230   30.6090 C.3   508  NDP508      0.2309
     34  O2D       30.4680    4.2750   30.9360 O.3   508  NDP508     -0.2158
     35  C1D       30.4840    6.6750   31.4300 C.3   508  NDP508      0.2263
     36  N1N       30.0420    7.7800   30.5930 N.pl3 508  NDP508     -0.2787
     37  C2N       30.9430    8.3180   29.7290 C.3   508  NDP508      0.1244
     38  C3N       30.5560    9.3510   28.8970 C.2   508  NDP508      0.0544
     39  C7N       31.4700   10.0260   27.8320 C.2   508  NDP508      0.2818
     40  O7N       31.0710   10.8510   27.0020 O.2   508  NDP508     -0.2670
     41  N7N       32.7580    9.6150   27.8560 N.am  508  NDP508     -0.0839
     42  C4N       29.2500    9.8770   28.9150 C.2   508  NDP508      0.0033
     43  C5N       28.4280    9.3070   29.8670 C.2   508  NDP508      0.0157
     44  C6N       28.7310    8.2790   30.7270 C.2   508  NDP508      0.0633
     45  P2B       26.1240   13.7950   33.5480 P.3   508  NDP508      0.5328
     46  O1X       26.9790   14.1030   34.7320 O.3   508  NDP508     -0.1145
     47  O2X       24.6950   13.7210   34.0290 O.3   508  NDP508     -0.1145
     48  O3X       26.2920   14.7030   32.3660 O.2   508  NDP508     -0.2224
@<TRIPOS>BOND
     1    40    39    2
     2    39    41   am
     3    39    38    1
     4    38    42    2
     5    38    37    1
     6    42    43    1
     7    37    36    1
     8    43    44    2
     9    26    24    2
    10    36    44    1
    11    36    35    1
    12    33    31    1
    13    33    34    1
    14    33    35    1
    15    31    32    1
    16    31    29    1
    17    27    24    1
    18    27    28    1
    19    35    30    1
    20     9     8    1
    21    24    25    1
    22    24    23    1
    23    20    21    1
    24    20    19    1
    25    29    30    1
    26    29    28    1
    27    21    22    2
    28    48    45    2
    29     8     6    1
    30     8    10    1
    31    11    10    1
    32    11    45    1
    33     6     7    1
    34     6     5    1
    35    23     1    1
    36     3     1    2
    37     4     1    1
    38     4     5    1
    39    19    17    2
    40    12     7    1
    41    12    10    1
    42    12    13    1
    43     1     2    1
    44    45    47    1
    45    45    46    1
    46    22    13    1
    47    22    16    1
    48    13    14    1
    49    17    16    1
    50    17    18    1
    51    16    15    2
    52    14    15    1
