@<TRIPOS>MOLECULE
7cat_HEM_A_1.pdb
 43 50 0 0 0
SMALL
GASTEIGER

@<TRIPOS>ATOM
      1  CHA       13.7200    4.5190   14.9760 C.2   507  HEM507      0.0000
      2  CHB       16.4850    1.2250   12.7040 C.2   507  HEM507      0.0000
      3  CHC       19.9140    1.9230   16.0410 C.2   507  HEM507      0.0000
      4  CHD       17.6590    5.9820   17.4330 C.2   507  HEM507      0.0000
      5  C1A       14.1790    3.5150   14.1360 C.ar  507  HEM507      0.0000
      6  C2A       13.3740    2.9310   13.0770 C.ar  507  HEM507      0.0000
      7  C3A       14.1000    2.0110   12.4680 C.ar  507  HEM507      0.0000
      8  C4A       15.4070    2.0060   13.0860 C.ar  507  HEM507      0.0000
      9  CMA       13.7110    1.1320   11.2500 C.3   507  HEM507      0.0000
     10  CAA       11.9430    3.4410   12.8310 C.3   507  HEM507      0.0000
     11  CBA       11.7900    4.7930   12.1730 C.3   507  HEM507      0.0000
     12  CGA       10.4970    5.0740   11.4890 C.2   507  HEM507      0.0000
     13  O1A        9.7770    4.0480   11.2690 O.co2 507  HEM507      0.0000
     14  O2A       10.2000    6.2570   11.1500 O.co2 507  HEM507      0.0000
     15  C1B       17.7180    1.2090   13.3450 C.2   507  HEM507      0.0000
     16  C2B       18.9220    0.5140   12.8800 C.2   507  HEM507      0.0000
     17  C3B       19.8620    0.7080   13.7960 C.2   507  HEM507      0.0000
     18  C4B       19.3030    1.5360   14.8590 C.2   507  HEM507      0.0000
     19  CMB       18.9740   -0.2130   11.5320 C.3   507  HEM507      0.0000
     20  CAB       21.3210    0.2370   13.8160 C.2   507  HEM507      0.0000
     21  CBB       21.8220   -0.5900   12.9360 C.2   507  HEM507      0.0000
     22  C1C       19.6550    3.1200   16.7120 C.ar  507  HEM507      0.0000
     23  C2C       20.6080    3.8940   17.4650 C.ar  507  HEM507      0.0000
     24  C3C       19.9910    5.0380   17.8220 C.ar  507  HEM507      0.0000
     25  C4C       18.6320    4.9890   17.2870 C.ar  507  HEM507      0.0000
     26  CMC       22.0350    3.4130   17.7010 C.3   507  HEM507      0.0000
     27  CAC       20.5190    6.2170   18.6520 C.2   507  HEM507      0.0000
     28  CBC       21.5220    7.0040   18.2850 C.2   507  HEM507      0.0000
     29  C1D       16.3730    5.9270   16.9140 C.2   507  HEM507      0.0000
     30  C2D       15.2900    6.8410   17.2200 C.2   507  HEM507      0.0000
     31  C3D       14.2200    6.4180   16.5310 C.2   507  HEM507      0.0000
     32  C4D       14.5860    5.2410   15.7770 C.2   507  HEM507      0.0000
     33  CMD       15.4070    8.0550   18.1510 C.3   507  HEM507      0.0000
     34  CAD       12.7960    7.0140   16.5060 C.3   507  HEM507      0.0000
     35  CBD       12.6270    8.1280   15.5050 C.3   507  HEM507      0.0000
     36  CGD       11.3770    8.9500   15.7670 C.2   507  HEM507      0.0000
     37  O1D       11.2580    9.3140   16.9160 O.co2 507  HEM507      0.0000
     38  O2D       10.6920    9.1250   14.7510 O.co2 507  HEM507      0.0000
     39  NA        15.4320    2.9420   14.1010 N.ar  507  HEM507      0.0000
     40  NB        17.9660    1.8030   14.5770 N.2   507  HEM507      0.0000
     41  NC        18.4430    3.7650   16.5940 N.ar  507  HEM507      0.0000
     42  ND        15.9230    4.9540   16.0270 N.2   507  HEM507      0.0000
     43 FE         16.9760    3.4360   15.2660 Fe    507  HEM507      0.0000
@<TRIPOS>BOND
     1    14    12   ar
     2     9     7    1
     3    13    12   ar
     4    12    11    1
     5    19    16    1
     6    11    10    1
     7     7     6   ar
     8     7     8   ar
     9     2     8    2
    10     2    15    1
    11    10     6    1
    12    16    15    1
    13    16    17    2
    14    21    20    2
    15     6     5   ar
    16     8    39   ar
    17    15    40    2
    18    17    20    1
    19    17    18    1
    20    39     5   ar
    21    39    43    1
    22     5     1    2
    23    40    18    1
    24    40    43    1
    25    38    36   ar
    26    18     3    2
    27     1    32    1
    28    43    42    1
    29    43    41    1
    30    35    36    1
    31    35    34    1
    32    36    37   ar
    33    32    42    2
    34    32    31    1
    35    42    29    1
    36     3    22    1
    37    34    31    1
    38    31    30    2
    39    41    22   ar
    40    41    25   ar
    41    22    23   ar
    42    29    30    1
    43    29     4    2
    44    30    33    1
    45    25     4    1
    46    25    24   ar
    47    23    26    1
    48    23    24   ar
    49    24    27    1
    50    28    27    2
