@<TRIPOS>MOLECULE
7ccp_HEM_A_1.pdb
 43 50 0 0 0
SMALL
GASTEIGER

@<TRIPOS>ATOM
      1  CHA       -5.3580   53.8850   22.0830 C.2   296  HEM296      0.0000
      2  CHB       -7.5790   57.9710   23.4460 C.2   296  HEM296      0.0000
      3  CHC       -5.9390   60.1660   19.4450 C.2   296  HEM296      0.0000
      4  CHD       -3.4540   56.1650   18.2930 C.2   296  HEM296      0.0000
      5  C1A       -6.0730   54.8210   22.7930 C.2   296  HEM296      0.0000
      6  C2A       -6.6690   54.5850   24.0980 C.2   296  HEM296      0.0000
      7  C3A       -7.2880   55.7100   24.4710 C.2   296  HEM296      0.0000
      8  C4A       -7.0800   56.6910   23.4100 C.2   296  HEM296      0.0000
      9  CMA       -8.0890   55.9990   25.7600 C.3   296  HEM296      0.0000
     10  CAA       -6.5470   53.2310   24.8320 C.3   296  HEM296      0.0000
     11  CBA       -5.2910   52.9800   25.6680 C.3   296  HEM296      0.0000
     12  CGA       -5.2990   51.6360   26.3680 C.2   296  HEM296      0.0000
     13  O1A       -6.2430   51.4070   27.1810 O.co2 296  HEM296      0.0000
     14  O2A       -4.3650   50.8450   26.0510 O.co2 296  HEM296      0.0000
     15  C1B       -7.3560   58.8740   22.4430 C.ar  296  HEM296      0.0000
     16  C2B       -7.9230   60.2100   22.4170 C.ar  296  HEM296      0.0000
     17  C3B       -7.4610   60.8230   21.3200 C.ar  296  HEM296      0.0000
     18  C4B       -6.6120   59.8820   20.6150 C.ar  296  HEM296      0.0000
     19  CMB       -8.8760   60.7530   23.5070 C.3   296  HEM296      0.0000
     20  CAB       -7.7570   62.2480   20.8200 C.2   296  HEM296      0.0000
     21  CBB       -8.9480   62.7920   21.1250 C.2   296  HEM296      0.0000
     22  C1C       -5.0460   59.2990   18.8450 C.2   296  HEM296      0.0000
     23  C2C       -4.1720   59.6310   17.7480 C.2   296  HEM296      0.0000
     24  C3C       -3.4920   58.5360   17.4370 C.2   296  HEM296      0.0000
     25  C4C       -3.9370   57.4690   18.3150 C.2   296  HEM296      0.0000
     26  CMC       -4.0660   61.0290   17.1140 C.3   296  HEM296      0.0000
     27  CAC       -2.3970   58.3290   16.3490 C.2   296  HEM296      0.0000
     28  CBC       -2.5760   59.0330   15.2040 C.2   296  HEM296      0.0000
     29  C1D       -3.8480   55.1640   19.1460 C.ar  296  HEM296      0.0000
     30  C2D       -3.6140   53.7400   18.9700 C.ar  296  HEM296      0.0000
     31  C3D       -4.1470   53.1090   20.0180 C.ar  296  HEM296      0.0000
     32  C4D       -4.7250   54.1160   20.8850 C.ar  296  HEM296      0.0000
     33  CMD       -2.8580   53.1450   17.7570 C.3   296  HEM296      0.0000
     34  CAD       -4.1520   51.5910   20.3400 C.3   296  HEM296      0.0000
     35  CBD       -2.9420   51.1440   21.1650 C.3   296  HEM296      0.0000
     36  CGD       -2.9130   49.7360   21.6690 C.2   296  HEM296      0.0000
     37  O1D       -2.1150   49.5650   22.6430 O.co2 296  HEM296      0.0000
     38  O2D       -3.6090   48.8430   21.1090 O.co2 296  HEM296      0.0000
     39  NA        -6.3410   56.1120   22.3970 N.2   296  HEM296      0.0000
     40  NB        -6.5540   58.7070   21.3300 N.ar  296  HEM296      0.0000
     41  NC        -4.8890   57.9620   19.1730 N.2   296  HEM296      0.0000
     42  ND        -4.5410   55.3760   20.3300 N.ar  296  HEM296      0.0000
     43 FE         -5.8760   56.9150   20.6020 Fe    296  HEM296      0.0000
@<TRIPOS>BOND
     1    28    27    2
     2    27    24    1
     3    26    23    1
     4    24    23    2
     5    24    25    1
     6    23    22    1
     7    33    30    1
     8     4    25    1
     9     4    29    2
    10    25    41    2
    11    22    41    1
    12    22     3    2
    13    30    29   ar
    14    30    31   ar
    15    29    42   ar
    16    41    43    1
    17     3    18    1
    18    31    34    1
    19    31    32   ar
    20    42    43    1
    21    42    32   ar
    22    34    35    1
    23    43    40    1
    24    43    39    1
    25    18    17   ar
    26    18    40   ar
    27    20    21    2
    28    20    17    1
    29    32     1    2
    30    38    36   ar
    31    35    36    1
    32    17    16   ar
    33    40    15   ar
    34    36    37   ar
    35     1     5    1
    36    39     5    2
    37    39     8    1
    38    16    15   ar
    39    16    19    1
    40    15     2    1
    41     5     6    1
    42     8     2    2
    43     8     7    1
    44     6     7    2
    45     6    10    1
    46     7     9    1
    47    10    11    1
    48    11    12    1
    49    14    12   ar
    50    12    13   ar
