@<TRIPOS>MOLECULE
7cel_BGC_A_1.pdb
 12 12 0 0 0
SMALL
GASTEIGER

@<TRIPOS>ATOM
      1  C2        20.7850   52.5940   95.1850 C.3   452  BGC452      0.2434
      2  C3        22.0680   52.9810   94.4660 C.3   452  BGC452      0.2199
      3  C4        22.8740   53.9890   95.2930 C.3   452  BGC452      0.2144
      4  C5        23.0200   53.5460   96.7570 C.3   452  BGC452      0.1836
      5  C6        23.6130   54.6280   97.6380 C.3   452  BGC452      0.2142
      6  C1        21.1120   52.1470   96.6060 C.3   452  BGC452      0.3024
      7  O1        19.9560   51.8030   97.2850 O.3   452  BGC452     -0.1869
      8  O2        20.1500   51.5370   94.4830 O.3   452  BGC452     -0.2148
      9  O3        21.7440   53.5570   93.2090 O.3   452  BGC452     -0.2174
     10  O4        24.1900   54.1260   94.7200 O.3   452  BGC452     -0.2176
     11  O5        21.7380   53.2140   97.3150 O.3   452  BGC452     -0.3236
     12  O6        22.8990   55.8450   97.5030 O.3   452  BGC452     -0.2176
@<TRIPOS>BOND
     1     9     2    1
     2     2     1    1
     3     2     3    1
     4     8     1    1
     5    10     3    1
     6     1     6    1
     7     3     4    1
     8     6     7    1
     9     6    11    1
    10     4    11    1
    11     4     5    1
    12    12     5    1
