@<TRIPOS>MOLECULE
7cpa_FVF_A_1.pdb
 41 43 0 0 0
SMALL
GASTEIGER

@<TRIPOS>ATOM
      1  C1        50.4520   14.0170   38.8320 C.2   309  FVF309      0.4219
      2  O1        50.5660   13.0150   39.5110 O.2   309  FVF309     -0.2245
      3  OA1       51.1200   15.1080   39.1360 O.3   309  FVF309     -0.4285
      4  CB1       52.4530   15.0610   39.5900 C.3   309  FVF309      0.2368
      5  CG1       53.2970   16.2260   39.4890 C.ar  309  FVF309      0.0213
      6  CDB       54.2900   16.2700   38.5730 C.ar  309  FVF309     -0.0007
      7  CDC       53.1230   17.2780   40.3170 C.ar  309  FVF309     -0.0007
      8  CEB       55.0970   17.3480   38.4740 C.ar  309  FVF309     -0.0002
      9  CEC       53.9570   18.3430   40.2510 C.ar  309  FVF309     -0.0002
     10  CZ1       54.9380   18.3810   39.3240 C.ar  309  FVF309     -0.0000
     11  N2        49.6990   14.0610   37.6930 N.am  309  FVF309     -0.1607
     12  C2        48.4850   16.2040   37.5840 C.2   309  FVF309      0.2622
     13  O2        47.5610   15.9270   38.2770 O.2   309  FVF309     -0.2715
     14  CA2       49.3870   15.2350   36.9420 C.3   309  FVF309      0.1804
     15  CB2       48.9550   14.5660   35.5970 C.3   309  FVF309      0.0575
     16  CG2       50.0130   13.8520   34.9140 C.ar  309  FVF309     -0.0200
     17  CDL       50.0950   12.5020   34.9800 C.ar  309  FVF309     -0.0042
     18  CDM       50.9490   14.5400   34.2240 C.ar  309  FVF309     -0.0042
     19  CEL       51.1000   11.8490   34.3540 C.ar  309  FVF309     -0.0003
     20  CEM       51.9640   13.8890   33.6110 C.ar  309  FVF309     -0.0003
     21  CZ2       52.0350   12.5410   33.6680 C.ar  309  FVF309     -0.0000
     22  N3        48.8200   17.5150   37.4010 N.am  309  FVF309     -0.1932
     23  CA3       48.1640   18.5170   38.1860 C.3   309  FVF309      0.2006
     24  CB3       49.2950   19.1450   39.1790 C.3   309  FVF309      0.0320
     25  CGD       50.4830   19.6330   38.3730 C.3   309  FVF309      0.0024
     26  CGN       49.7240   17.9690   40.0920 C.3   309  FVF309      0.0024
     27  P3        47.3970   19.5450   37.0120 P.3   309  FVF309      0.3891
     28  OPV       46.3340   18.6230   36.2450 O.2   309  FVF309     -0.2537
     29  OPW       46.8510   20.7440   37.7920 O.3   309  FVF309     -0.1383
     30  OPX       48.5740   20.1600   35.9900 O.3   309  FVF309     -0.2821
     31  CA4       48.0680   20.6970   34.7510 C.3   309  FVF309      0.2305
     32  C4        47.7100   19.6540   33.7850 C.2   309  FVF309      0.3922
     33  O4        48.5170   18.7790   33.8180 O.co2 309  FVF309     -0.2429
     34  O11       46.6550   19.5700   33.0140 O.co2 309  FVF309     -0.2429
     35  CB4       49.0220   21.6400   34.0230 C.3   309  FVF309      0.0681
     36  CG4       48.5830   22.3320   32.8510 C.ar  309  FVF309     -0.0191
     37  CD5       47.8680   23.4720   32.9580 C.ar  309  FVF309     -0.0042
     38  CD6       48.8680   21.8260   31.6320 C.ar  309  FVF309     -0.0042
     39  CE5       47.4560   24.1150   31.8440 C.ar  309  FVF309     -0.0003
     40  CE6       48.4400   22.4590   30.5200 C.ar  309  FVF309     -0.0003
     41  CZ4       47.7330   23.6040   30.6250 C.ar  309  FVF309     -0.0000
@<TRIPOS>BOND
     1    40    41   ar
     2    40    38   ar
     3    41    39   ar
     4    38    36   ar
     5    39    37   ar
     6    36    37   ar
     7    36    35    1
     8    34    32   ar
     9    20    21   ar
    10    20    18   ar
    11    21    19   ar
    12    32    33   ar
    13    32    31    1
    14    35    31    1
    15    18    16   ar
    16    19    17   ar
    17    31    30    1
    18    16    17   ar
    19    16    15    1
    20    15    14    1
    21    30    27    1
    22    28    27    2
    23    14    12    1
    24    14    11    1
    25    27    29    1
    26    27    23    1
    27    22    12   am
    28    22    23    1
    29    12    13    2
    30    11     1   am
    31    23    24    1
    32    25    24    1
    33     8     6   ar
    34     8    10   ar
    35     6     5   ar
    36     1     3    1
    37     1     2    2
    38     3     4    1
    39    24    26    1
    40    10     9   ar
    41     5     4    1
    42     5     7   ar
    43     9     7   ar
