@<TRIPOS>MOLECULE
7cpp_HEM_A_1.pdb
 43 50 0 0 0
SMALL
GASTEIGER

@<TRIPOS>ATOM
      1 FE         48.3560   46.3820    8.8770 Fe    417  HEM417      0.0000
      2  CHA       45.2520   44.9420    8.8870 C.2   417  HEM417      0.0000
      3  CHB       49.7550   43.2310    9.2690 C.2   417  HEM417      0.0000
      4  CHC       51.4880   47.7510    9.3390 C.2   417  HEM417      0.0000
      5  CHD       46.9570   49.4150    9.4460 C.2   417  HEM417      0.0000
      6  NA        47.6690   44.4660    9.0670 N.2   417  HEM417      0.0000
      7  C1A       46.3350   44.1150    9.0440 C.2   417  HEM417      0.0000
      8  C2A       46.2410   42.6450    9.0640 C.2   417  HEM417      0.0000
      9  C3A       47.4860   42.1690    9.1710 C.2   417  HEM417      0.0000
     10  C4A       48.3940   43.3290    9.1870 C.2   417  HEM417      0.0000
     11  CMA       47.9450   40.7120    9.2360 C.3   417  HEM417      0.0000
     12  CAA       44.8980   41.9490    8.9640 C.3   417  HEM417      0.0000
     13  CBA       44.3260   41.3570   10.2720 C.3   417  HEM417      0.0000
     14  CGA       43.1050   40.4580   10.0120 C.2   417  HEM417      0.0000
     15  O1A       42.8960   40.0410    8.8390 O.co2 417  HEM417      0.0000
     16  O2A       42.4990   40.2430   11.0810 O.co2 417  HEM417      0.0000
     17  NB        50.2120   45.6780    9.3170 N.ar  417  HEM417      0.0000
     18  C1B       50.5850   44.3120    9.3040 C.ar  417  HEM417      0.0000
     19  C2B       52.0430   44.2130    9.3420 C.ar  417  HEM417      0.0000
     20  C3B       52.5420   45.4490    9.3260 C.ar  417  HEM417      0.0000
     21  C4B       51.3860   46.3570    9.3580 C.ar  417  HEM417      0.0000
     22  CMB       52.7890   42.8660    9.2740 C.3   417  HEM417      0.0000
     23  CAB       53.9890   45.9380    9.3140 C.2   417  HEM417      0.0000
     24  CBB       55.0420   45.2390    8.9720 C.2   417  HEM417      0.0000
     25  NC        49.0660   48.2360    9.3440 N.2   417  HEM417      0.0000
     26  C1C       50.3900   48.5910    9.4270 C.2   417  HEM417      0.0000
     27  C2C       50.4800   50.0460    9.5840 C.2   417  HEM417      0.0000
     28  C3C       49.2250   50.5140    9.5950 C.2   417  HEM417      0.0000
     29  C4C       48.3400   49.3320    9.5350 C.2   417  HEM417      0.0000
     30  CMC       51.8220   50.7940    9.6810 C.3   417  HEM417      0.0000
     31  CAC       48.6640   51.9240    9.7570 C.2   417  HEM417      0.0000
     32  CBC       49.3260   52.9050   10.3560 C.2   417  HEM417      0.0000
     33  ND        46.4890   47.0350    9.1270 N.ar  417  HEM417      0.0000
     34  C1D       46.1030   48.3790    9.2020 C.ar  417  HEM417      0.0000
     35  C2D       44.6770   48.4750    9.0190 C.ar  417  HEM417      0.0000
     36  C3D       44.2150   47.2280    8.8260 C.ar  417  HEM417      0.0000
     37  C4D       45.3220   46.3160    9.0010 C.ar  417  HEM417      0.0000
     38  CMD       43.9490   49.8240    8.9320 C.3   417  HEM417      0.0000
     39  CAD       42.7620   46.7900    8.6010 C.3   417  HEM417      0.0000
     40  CBD       42.1950   46.7260    7.2020 C.3   417  HEM417      0.0000
     41  CGD       40.7420   46.2430    7.1540 C.2   417  HEM417      0.0000
     42  O1D       40.1110   46.4650    6.1220 O.co2 417  HEM417      0.0000
     43  O2D       40.3040   45.6400    8.1500 O.co2 417  HEM417      0.0000
@<TRIPOS>BOND
     1    42    41   ar
     2    41    40    1
     3    41    43   ar
     4    40    39    1
     5    39    36    1
     6    36    37   ar
     7    36    35   ar
     8    15    14   ar
     9     1     6    1
    10     1    33    1
    11     1    17    1
    12     1    25    1
    13     2    37    2
    14     2     7    1
    15    38    35    1
    16    12     8    1
    17    12    13    1
    18    24    23    2
    19    37    33   ar
    20    35    34   ar
    21     7     8    1
    22     7     6    2
    23     8     9    2
    24     6    10    1
    25    33    34   ar
    26     9    10    1
    27     9    11    1
    28    10     3    2
    29    34     5    2
    30     3    18    1
    31    22    19    1
    32    18    17   ar
    33    18    19   ar
    34    23    20    1
    35    17    21   ar
    36    20    19   ar
    37    20    21   ar
    38     4    21    1
    39     4    26    2
    40    25    26    1
    41    25    29    2
    42    26    27    1
    43     5    29    1
    44    29    28    1
    45    27    28    2
    46    27    30    1
    47    28    31    1
    48    31    32    2
    49    14    13    1
    50    14    16   ar
