@<TRIPOS>MOLECULE
7dfr_NAP_A_1.pdb
 48 52 0 0 0
SMALL
GASTEIGER

@<TRIPOS>ATOM
      1  PA        17.0440   28.5340   27.6010 P.3   164  NAP164      0.2189
      2  O1A       15.6170   28.1310   27.5820 O.2   164  NAP164     -0.5170
      3  O2A       17.8470   27.4870   28.2900 O.3   164  NAP164     -0.4371
      4  O5B       17.6810   28.9110   26.0910 O.3   164  NAP164     -0.3112
      5  C5B       16.6790   29.5900   25.2440 C.3   164  NAP164      0.1813
      6  C4B       16.9300   29.4150   23.7560 C.3   164  NAP164      0.1820
      7  O4B       16.2190   28.5230   23.4380 O.3   164  NAP164     -0.3136
      8  C3B       16.5350   30.6110   22.8380 C.3   164  NAP164      0.2157
      9  O3B       17.6830   31.5010   22.6970 O.3   164  NAP164     -0.2175
     10  C2B       16.1950   29.8630   21.5750 C.3   164  NAP164      0.2314
     11  O2B       17.0590   29.7550   20.5570 O.3   164  NAP164     -0.2630
     12  C1B       15.7430   28.5680   22.0870 C.3   164  NAP164      0.3158
     13  N9A       14.2850   28.4100   22.1250 N.pl3 164  NAP164     -0.1439
     14  C8A       13.5330   28.4540   23.2260 C.3   164  NAP164      0.3377
     15  N7A       12.2570   28.2580   22.9130 N.2   164  NAP164     -0.2095
     16  C5A       12.3430   28.0520   21.4790 C.2   164  NAP164      0.2526
     17  C6A       11.3150   27.8250   20.3300 C.2   164  NAP164      0.4393
     18  N6A        9.9750   27.6830   20.5600 N.pl3 164  NAP164      0.2180
     19  N1A       11.7850   27.6360   19.0990 N.2   164  NAP164      0.0021
     20  C2A       13.1010   27.8720   18.9560 C.3   164  NAP164      0.5254
     21  N3A       14.0800   28.1480   19.8020 N.2   164  NAP164     -0.0055
     22  C4A       13.5970   28.1830   21.0770 C.2   164  NAP164      0.3518
     23  O3        17.3530   29.8990   28.2110 O.3   164  NAP164     -0.2703
     24  PN        17.1590   30.8120   29.4960 P.3   164  NAP164      0.2189
     25  O1N       15.7290   30.9050   29.7440 O.3   164  NAP164     -0.4371
     26  O2N       18.0700   31.8270   29.6090 O.2   164  NAP164     -0.5170
     27  O5D       17.7360   29.6610   30.6480 O.3   164  NAP164     -0.3112
     28  C5D       19.2090   29.5050   30.8550 C.3   164  NAP164      0.1813
     29  C4D       19.5130   29.8020   32.3810 C.3   164  NAP164      0.1799
     30  O4D       18.6590   28.8770   33.1410 O.3   164  NAP164     -0.3327
     31  C3D       20.9480   29.3710   32.8520 C.3   164  NAP164      0.2158
     32  O3D       21.5420   30.0810   33.8560 O.3   164  NAP164     -0.2175
     33  C2D       20.7330   27.8730   33.2130 C.3   164  NAP164      0.2309
     34  O2D       21.8200   27.3140   33.8280 O.3   164  NAP164     -0.2158
     35  C1D       19.4810   27.9340   33.9120 C.3   164  NAP164      0.2263
     36  N1N       18.8380   26.5650   34.2000 N.pl3 164  NAP164     -0.2787
     37  C2N       18.4410   26.1790   35.4840 C.3   164  NAP164      0.1244
     38  C3N       17.8570   25.0190   35.7330 C.2   164  NAP164      0.0544
     39  C7N       17.6380   24.6750   37.1320 C.2   164  NAP164      0.2818
     40  O7N       16.9160   23.7070   37.4840 O.2   164  NAP164     -0.2670
     41  N7N       18.0090   25.5110   38.0920 N.am  164  NAP164     -0.0839
     42  C4N       17.3790   24.0620   34.5910 C.2   164  NAP164      0.0033
     43  C5N       17.8230   24.6640   33.2530 C.2   164  NAP164      0.0157
     44  C6N       18.4150   25.7960   33.1500 C.2   164  NAP164      0.0633
     45  P2B       18.2310   30.3660   19.8330 P.3   164  NAP164      0.5328
     46  O1X       18.7410   29.2920   18.8110 O.2   164  NAP164     -0.2224
     47  O2X       17.6590   31.5410   19.0820 O.3   164  NAP164     -0.1145
     48  O3X       19.4610   30.8260   20.5860 O.3   164  NAP164     -0.1145
@<TRIPOS>BOND
     1    46    45    2
     2    20    19    1
     3    20    21    1
     4    47    45    1
     5    19    17    2
     6    21    22    2
     7    45    11    1
     8    45    48    1
     9    17    18    1
    10    17    16    1
    11    11    10    1
    12    22    16    1
    13    22    13    1
    14    16    15    2
    15    10    12    1
    16    10     8    1
    17    12    13    1
    18    12     7    1
    19    13    14    1
    20     9     8    1
    21     8     6    1
    22    15    14    1
    23     7     6    1
    24     6     5    1
    25     5     4    1
    26     4     1    1
    27     2     1    2
    28     1    23    1
    29     1     3    1
    30    23    24    1
    31    24    26    2
    32    24    25    1
    33    24    27    1
    34    27    28    1
    35    28    29    1
    36    29    31    1
    37    29    30    1
    38    31    33    1
    39    31    32    1
    40    30    35    1
    41    44    43    2
    42    44    36    1
    43    33    34    1
    44    33    35    1
    45    43    42    1
    46    35    36    1
    47    36    37    1
    48    42    38    2
    49    37    38    1
    50    38    39    1
    51    39    40    2
    52    39    41   am
