@<TRIPOS>MOLECULE
7dfr_FOL_A_1.pdb
 32 34 0 0 0
SMALL
GASTEIGER

@<TRIPOS>ATOM
      1  N1        17.0000   19.8950   37.7480 N.2   161  FOL161     -0.2672
      2  C2        17.4540   19.7640   38.9950 C.1   161  FOL161      0.2609
      3  NA2       16.7170   19.2520   39.9960 N.pl3 161  FOL161     -0.0220
      4  N3        18.7220   20.3010   39.3100 N.2   161  FOL161     -0.2466
      5  C4        19.5550   20.8820   38.4100 C.1   161  FOL161      0.2569
      6  O4        20.7390   21.2900   38.7000 O.2   161  FOL161     -0.2052
      7  C4A       19.0630   20.9250   37.0050 C.2   161  FOL161      0.2988
      8  N5        19.9150   21.3900   36.0300 N.2   161  FOL161     -0.3839
      9  C6        19.3860   21.4510   34.7970 C.2   161  FOL161      0.1356
     10  C7        18.0890   20.9620   34.6420 C.3   161  FOL161      0.1931
     11  N8        17.2920   20.4770   35.5190 N.2   161  FOL161     -0.1992
     12  C8A       17.8310   20.4880   36.7740 C.1   161  FOL161      0.1401
     13  C9        20.1780   21.9930   33.6600 C.3   161  FOL161      0.1683
     14  N10       21.6590   21.8200   33.8750 N.pl3 161  FOL161     -0.2303
     15  C11       23.7880   18.2930   34.4580 C.ar  161  FOL161      0.0551
     16  C12       24.4030   19.5210   34.4460 C.ar  161  FOL161      0.0059
     17  C13       23.7150   20.7060   34.2030 C.ar  161  FOL161      0.0162
     18  C14       22.3790   20.6250   34.0330 C.ar  161  FOL161      0.0658
     19  C15       21.7280   19.4170   33.9720 C.ar  161  FOL161      0.0162
     20  C16       22.4080   18.2110   34.2510 C.ar  161  FOL161      0.0059
     21  C         24.6690   17.1290   34.6470 C.2   161  FOL161      0.2652
     22  O         25.8860   17.1630   34.7330 O.2   161  FOL161     -0.2684
     23  N         24.0260   15.9890   34.6920 N.am  161  FOL161     -0.1918
     24  CA        24.8060   14.7170   34.9770 C.3   161  FOL161      0.1986
     25  CB        25.1130   14.7430   36.4890 C.3   161  FOL161      0.0451
     26  CG        26.5180   14.9480   37.1130 C.3   161  FOL161      0.1164
     27  CD        27.6630   15.6450   36.4090 C.2   161  FOL161      0.3649
     28  OE1       28.7110   14.8830   36.4000 O.co2 161  FOL161     -0.2457
     29  OE2       27.7200   16.7970   35.9120 O.co2 161  FOL161     -0.2457
     30  CT        23.9030   13.5790   34.5930 C.2   161  FOL161      0.3842
     31  O1        22.6310   13.6880   34.7230 O.co2 161  FOL161     -0.2437
     32  O2        24.4910   12.6010   34.1660 O.co2 161  FOL161     -0.2437
@<TRIPOS>BOND
     1    13    14    1
     2    13     9    1
     3    14    18    1
     4    19    18   ar
     5    19    20   ar
     6    18    17   ar
     7    32    30   ar
     8    17    16   ar
     9    20    15   ar
    10    16    15   ar
    11    15    21    1
    12    30    31   ar
    13    30    24    1
    14    10     9    1
    15    10    11    1
    16    21    23   am
    17    21    22    2
    18    23    24    1
    19     9     8    2
    20    24    25    1
    21    11    12    2
    22    29    27   ar
    23     8     7    2
    24    28    27   ar
    25    27    26    1
    26    25    26    1
    27    12     7    1
    28    12     1    2
    29     7     5    1
    30     1     2    2
    31     5     6    2
    32     5     4    2
    33     2     4    2
    34     2     3    1
