@<TRIPOS>MOLECULE
7enl_2PG_A_1.pdb
 11 10 0 0 0
SMALL
GASTEIGER

@<TRIPOS>ATOM
      1  C1        95.5980   46.2300   26.7660 C.2   439  2PG439      0.3946
      2  C2        94.3070   46.5190   25.9850 C.3   439  2PG439      0.2610
      3  C3        94.4350   47.9560   25.5170 C.3   439  2PG439      0.2237
      4  P         93.2800   45.6650   23.6810 P.3   439  2PG439      0.5331
      5  O1        96.3180   47.2400   27.1070 O.co2 439  2PG439     -0.2428
      6  O2        95.6050   45.0280   27.2650 O.co2 439  2PG439     -0.2428
      7  O3        95.3670   48.7630   26.1930 O.3   439  2PG439     -0.2170
      8  O1P       94.1970   45.5120   24.9390 O.3   439  2PG439     -0.2583
      9  O2P       92.0460   46.3060   24.1130 O.3   439  2PG439     -0.1145
     10  O3P       94.1550   46.5160   22.8100 O.2   439  2PG439     -0.2224
     11  O4P       93.0190   44.3310   23.1950 O.3   439  2PG439     -0.1145
@<TRIPOS>BOND
     1    10     4    2
     2    11     4    1
     3     4     9    1
     4     4     8    1
     5     8     2    1
     6     3     2    1
     7     3     7    1
     8     2     1    1
     9     1     5   ar
    10     1     6   ar
