@<TRIPOS>MOLECULE
7gch_LPF_G_1.pdb
 26 26 0 0 0
SMALL
GASTEIGER

@<TRIPOS>ATOM
      1  C1        34.9640   76.3580   85.4680 C.3   246  LPF246      0.4270
      2  F11       35.0840   74.8140   85.4240 F     246  LPF246     -0.1673
      3  F12       34.4980   76.8280   83.9880 F     246  LPF246     -0.1673
      4  F13       33.7480   76.8190   86.3780 F     246  LPF246     -0.1673
      5  C2        36.1510   77.0760   86.0450 C.3   246  LPF246      0.2660
      6  O2        35.8950   78.5660   86.0070 O.3   246  LPF246     -0.2121
      7  C3        36.1890   76.7310   87.4500 C.3   246  LPF246      0.1386
      8  C4        37.2740   77.6330   88.1070 C.3   246  LPF246      0.0509
      9  CP1       37.7160   77.5960   89.5630 C.ar  246  LPF246     -0.0204
     10  CP2       36.9550   77.1780   90.5620 C.ar  246  LPF246     -0.0042
     11  CP3       37.3930   77.2180   91.8660 C.ar  246  LPF246     -0.0003
     12  CP4       38.6340   77.6800   92.1230 C.ar  246  LPF246     -0.0000
     13  CP5       39.4260   78.1040   91.1030 C.ar  246  LPF246     -0.0003
     14  CP6       38.9260   78.0580   89.8530 C.ar  246  LPF246     -0.0042
     15  N3        36.6690   75.3320   87.5100 N.am  246  LPF246     -0.2025
     16  CN1       35.9430   74.2590   88.0850 C.2   246  LPF246      0.2613
     17  ON1       34.8830   74.4890   88.6240 O.2   246  LPF246     -0.2715
     18  CN2       36.8270   73.0220   87.9090 C.3   246  LPF246      0.1727
     19  NL1       36.9780   72.3140   89.1660 N.am  246  LPF246     -0.1978
     20  CL1       37.0850   72.9250   90.2730 C.2   246  LPF246      0.2423
     21  OL1       37.9670   74.0270   90.6440 O.2   246  LPF246     -0.2733
     22  CL2       36.3980   72.5650   91.2850 C.3   246  LPF246      0.0964
     23  CA1       36.5740   72.0190   86.7960 C.3   246  LPF246      0.0311
     24  CA2       37.6070   70.8850   86.5800 C.3   246  LPF246      0.0022
     25  CA3       38.0190   70.1860   87.9080 C.3   246  LPF246      0.0001
     26  CA4       38.9330   71.4000   85.9270 C.3   246  LPF246      0.0001
@<TRIPOS>BOND
     1     3     1    1
     2     2     1    1
     3     1     5    1
     4     1     4    1
     5    26    24    1
     6     6     5    1
     7     5     7    1
     8    24    23    1
     9    24    25    1
    10    23    18    1
    11     7    15    1
    12     7     8    1
    13    15    16   am
    14    18    16    1
    15    18    19    1
    16    16    17    2
    17     8     9    1
    18    19    20   am
    19     9    14   ar
    20     9    10   ar
    21    14    13   ar
    22    20    21    2
    23    20    22    1
    24    10    11   ar
    25    13    12   ar
    26    11    12   ar
