@<TRIPOS>MOLECULE
7gpb_PLP_A_1.pdb
 15 15 0 0 0
SMALL
GASTEIGER

@<TRIPOS>ATOM
      1  N1        41.2870    3.3720   29.8620 N.ar  999  PLP999     -0.2452
      2  C2        40.9480    2.2870   30.6200 C.ar  999  PLP999      0.0978
      3  C2A       40.8470    2.4350   32.0840 C.3   999  PLP999      0.0555
      4  C3        40.6490    1.1010   30.0150 C.ar  999  PLP999      0.2049
      5  O3        40.3500    0.0000   30.7540 O.3   999  PLP999     -0.2857
      6  C4        40.6330    1.0100   28.6480 C.ar  999  PLP999      0.0182
      7  C4A       40.1880   -0.2420   28.0210 C.3   999  PLP999      0.0342
      8  C5        40.9830    2.0960   27.8830 C.ar  999  PLP999      0.0261
      9  C6        41.3040    3.2770   28.4930 C.ar  999  PLP999      0.0965
     10  C5A       40.9920    2.0150   26.4390 C.3   999  PLP999      0.1815
     11  O4P       40.5840    3.2380   25.8420 O.3   999  PLP999     -0.2653
     12  P         39.7930    3.1480   24.4550 P.3   999  PLP999      0.5329
     13  O1P       40.7270    2.7090   23.4030 O.2   999  PLP999     -0.2224
     14  O2P       38.7910    2.1480   24.7600 O.3   999  PLP999     -0.1145
     15  O3P       39.1330    4.4420   24.2050 O.3   999  PLP999     -0.1145
@<TRIPOS>BOND
     1    13    12    2
     2    15    12    1
     3    12    14    1
     4    12    11    1
     5    11    10    1
     6    10     8    1
     7     8     9   ar
     8     8     6   ar
     9     7     6    1
    10     9     1   ar
    11     6     4   ar
    12     1     2   ar
    13     4     2   ar
    14     4     5    1
    15     2     3    1
