@<TRIPOS>MOLECULE
7gpb_AMP_A_1.pdb
 23 25 0 0 0
SMALL
GASTEIGER

@<TRIPOS>ATOM
      1  P         64.8910  -16.3960   36.4870 P.3   920  AMP920      0.5327
      2  O1P       66.2430  -16.6980   37.0020 O.3   920  AMP920     -0.1145
      3  O2P       64.7460  -16.5060   35.0190 O.2   920  AMP920     -0.2224
      4  O3P       64.2450  -15.2100   37.0990 O.3   920  AMP920     -0.1145
      5  O5'       64.0200  -17.6380   37.0390 O.3   920  AMP920     -0.2675
      6  C5'       62.6460  -17.5170   37.4540 C.3   920  AMP920      0.1860
      7  C4'       62.2170  -18.7880   38.2050 C.3   920  AMP920      0.1823
      8  O4'       62.3670  -19.8890   37.2960 O.3   920  AMP920     -0.3135
      9  C3'       63.0960  -19.1600   39.3960 C.3   920  AMP920      0.2184
     10  O3'       62.6710  -18.3760   40.5190 O.3   920  AMP920     -0.2174
     11  C2'       62.7260  -20.6360   39.5630 C.3   920  AMP920      0.2570
     12  O2'       61.3740  -20.8180   40.0260 O.3   920  AMP920     -0.2130
     13  C1'       62.7430  -21.0370   38.0720 C.3   920  AMP920      0.3186
     14  N9        64.0750  -21.5040   37.5800 N.pl3 920  AMP920     -0.1439
     15  C8        65.1150  -20.7490   37.0670 C.3   920  AMP920      0.3377
     16  N7        66.1420  -21.4600   36.6900 N.2   920  AMP920     -0.2095
     17  C5        65.7650  -22.7670   36.9680 C.2   920  AMP920      0.2526
     18  C6        66.4260  -23.9890   36.7910 C.2   920  AMP920      0.4393
     19  N6        67.6450  -24.0680   36.2650 N.pl3 920  AMP920      0.2180
     20  N1        65.7800  -25.1010   37.1680 N.2   920  AMP920      0.0021
     21  C2        64.5610  -24.9970   37.6840 C.3   920  AMP920      0.5254
     22  N3        63.8300  -23.9130   37.9030 N.2   920  AMP920     -0.0055
     23  C4        64.5090  -22.8080   37.5120 C.2   920  AMP920      0.3518
@<TRIPOS>BOND
     1     3     1    2
     2    19    18    1
     3     1     2    1
     4     1     5    1
     5     1     4    1
     6    16    17    2
     7    16    15    1
     8    18    17    1
     9    18    20    2
    10    17    23    1
    11     5     6    1
    12    15    14    1
    13    20    21    1
    14     8    13    1
    15     8     7    1
    16     6     7    1
    17    23    14    1
    18    23    22    2
    19    14    13    1
    20    21    22    1
    21    13    11    1
    22     7     9    1
    23     9    11    1
    24     9    10    1
    25    11    12    1
