@<TRIPOS>MOLECULE
7gsp_SGP_A_1.pdb
 23 26 0 0 0
SMALL
GASTEIGER

@<TRIPOS>ATOM
      1  P         19.5830   46.0210   46.7520 P.3   107  SGP107      0.4036
      2  S1P       19.0220   45.9890   48.5640 S.3   107  SGP107      0.0393
      3  O1P       19.0630   47.3030   46.2340 O.2   107  SGP107     -0.2449
      4  O5'       22.7640   42.3160   44.8880 O.3   107  SGP107     -0.2176
      5  C5'       23.4250   43.5790   44.9950 C.3   107  SGP107      0.2141
      6  C4'       22.5440   44.8060   44.9510 C.3   107  SGP107      0.1800
      7  O4'       21.8650   44.8280   43.6850 O.3   107  SGP107     -0.3327
      8  C3'       21.4370   44.8170   45.9860 C.3   107  SGP107      0.1860
      9  O3'       21.1100   46.1700   46.3510 O.3   107  SGP107     -0.2835
     10  C2'       20.1370   44.2590   45.1960 C.3   107  SGP107      0.2011
     11  O2'       18.9660   44.9110   45.6650 O.3   107  SGP107     -0.2818
     12  C1'       20.4150   44.8920   43.8380 C.3   107  SGP107      0.2264
     13  N9        19.8010   44.1680   42.7000 N.pl3 107  SGP107     -0.2354
     14  C8        19.0280   44.7180   41.6900 C.3   107  SGP107      0.2246
     15  N7        18.7820   43.8550   40.7150 N.2   107  SGP107     -0.2322
     16  C5        19.4270   42.6750   41.1080 C.2   107  SGP107      0.2182
     17  C6        19.5520   41.4090   40.4700 C.1   107  SGP107      0.2372
     18  O6        19.0690   41.0890   39.3820 O.2   107  SGP107     -0.2069
     19  N1        20.3010   40.4910   41.1770 N.2   107  SGP107     -0.2485
     20  C2        20.8730   40.7330   42.3730 C.1   107  SGP107      0.2531
     21  N2        21.5560   39.7390   42.9340 N.pl3 107  SGP107     -0.0226
     22  N3        20.7600   41.9120   42.9780 N.2   107  SGP107     -0.3074
     23  C4        20.0410   42.8400   42.3150 C.2   107  SGP107      0.2300
@<TRIPOS>BOND
     1    18    17    2
     2    17    16    1
     3    17    19    2
     4    15    16    2
     5    15    14    1
     6    16    23    1
     7    19    20    2
     8    14    13    1
     9    23    13    1
    10    23    22    2
    11    20    21    1
    12    20    22    2
    13    13    12    1
    14     7    12    1
    15     7     6    1
    16    12    10    1
    17     4     5    1
    18     6     5    1
    19     6     8    1
    20    10    11    1
    21    10     8    1
    22    11     1    1
    23     8     9    1
    24     3     1    2
    25     9     1    1
    26     1     2    1
