@<TRIPOS>MOLECULE
7gss_GSH_A_1.pdb
 20 19 0 0 0
SMALL
GASTEIGER

@<TRIPOS>ATOM
      1  N1        75.3840   41.1070    1.8630 N.3   210  GSH210     -0.1208
      2  CA1       76.5980   40.9180    2.7050 C.3   210  GSH210      0.1948
      3  C1        76.3830   39.7740    3.7100 C.2   210  GSH210      0.3819
      4  O11       75.2440   39.2750    3.8000 O.co2 210  GSH210     -0.2441
      5  O12       77.3490   39.3580    4.3800 O.co2 210  GSH210     -0.2441
      6  CB1       76.9350   42.2180    3.4400 C.3   210  GSH210      0.0402
      7  CG1       78.3790   42.2980    3.8900 C.3   210  GSH210      0.0889
      8  CD1       78.7420   43.6510    4.4490 C.2   210  GSH210      0.2418
      9  OE1       77.9510   44.5940    4.3840 O.2   210  GSH210     -0.2733
     10  N2        79.9640   43.7610    4.9550 N.am  210  GSH210     -0.1968
     11  CA2       80.4510   44.9990    5.5470 C.3   210  GSH210      0.1843
     12  C2        81.8410   45.3300    5.0180 C.2   210  GSH210      0.2627
     13  O2        82.6660   44.4330    4.8200 O.2   210  GSH210     -0.2714
     14  CB2       80.4970   44.8590    7.0700 C.3   210  GSH210      0.0997
     15  SG2       78.9130   44.3680    7.8130 S.3   210  GSH210     -0.0797
     16  N3        82.0950   46.6170    4.8080 N.am  210  GSH210     -0.1917
     17  CA3       83.3830   47.0540    4.3080 C.3   210  GSH210      0.2285
     18  C3        83.3020   47.7440    2.9560 C.2   210  GSH210      0.3865
     19  O31       82.3200   47.5210    2.2140 O.co2 210  GSH210     -0.2437
     20  O32       84.2240   48.5260    2.6400 O.co2 210  GSH210     -0.2437
@<TRIPOS>BOND
     1     1     2    1
     2    19    18   ar
     3    20    18   ar
     4     2     6    1
     5     2     3    1
     6    18    17    1
     7     6     7    1
     8     3     4   ar
     9     3     5   ar
    10     7     8    1
    11    17    16    1
    12     9     8    2
    13     8    10   am
    14    16    12   am
    15    13    12    2
    16    10    11    1
    17    12    11    1
    18    11    14    1
    19    14    15    1
