@<TRIPOS>MOLECULE
7hbi_HEM_A_1.pdb
 43 50 0 0 0
SMALL
GASTEIGER

@<TRIPOS>ATOM
      1 FE         42.8680   -2.2350   20.3150 Fe    153  HEM153      0.0000
      2  CHA       41.9770   -0.6290   17.4850 C.2   153  HEM153      0.0000
      3  CHB       39.6350   -2.1360   21.3850 C.2   153  HEM153      0.0000
      4  CHC       43.8370   -3.4360   23.3300 C.2   153  HEM153      0.0000
      5  CHD       46.0000   -2.6840   19.0950 C.2   153  HEM153      0.0000
      6  NA        41.1800   -1.4990   19.6160 N.2   153  HEM153      0.0000
      7  C1A       40.9740   -0.8740   18.4000 C.2   153  HEM153      0.0000
      8  C2A       39.5760   -0.5510   18.1970 C.2   153  HEM153      0.0000
      9  C3A       38.9210   -0.9700   19.3030 C.2   153  HEM153      0.0000
     10  C4A       39.9180   -1.5520   20.1700 C.2   153  HEM153      0.0000
     11  CMA       37.4340   -0.8630   19.6090 C.3   153  HEM153      0.0000
     12  CAA       38.9790    0.0830   16.9480 C.3   153  HEM153      0.0000
     13  CBA       38.8460   -0.9290   15.8090 C.3   153  HEM153      0.0000
     14  CGA       38.6550   -0.3300   14.4200 C.2   153  HEM153      0.0000
     15  O1A       37.8470    0.5700   14.2450 O.co2 153  HEM153      0.0000
     16  O2A       39.3240   -0.7640   13.4900 O.co2 153  HEM153      0.0000
     17  NB        41.9250   -2.7180   21.9770 N.ar  153  HEM153      0.0000
     18  C1B       40.5700   -2.6880   22.2330 C.ar  153  HEM153      0.0000
     19  C2B       40.2520   -3.1920   23.5530 C.ar  153  HEM153      0.0000
     20  C3B       41.4460   -3.5080   24.1420 C.ar  153  HEM153      0.0000
     21  C4B       42.4750   -3.2000   23.1530 C.ar  153  HEM153      0.0000
     22  CMB       38.8310   -3.3310   24.0850 C.3   153  HEM153      0.0000
     23  CAB       41.7110   -4.0600   25.3990 C.3   153  HEM153      0.0000
     24  CBB       41.0470   -3.7270   26.6470 C.3   153  HEM153      0.0000
     25  NC        44.5520   -2.9300   21.0490 N.2   153  HEM153      0.0000
     26  C1C       44.8100   -3.3140   22.3560 C.2   153  HEM153      0.0000
     27  C2C       46.2040   -3.6620   22.5430 C.2   153  HEM153      0.0000
     28  C3C       46.8170   -3.5180   21.3120 C.2   153  HEM153      0.0000
     29  C4C       45.7690   -3.0730   20.4070 C.2   153  HEM153      0.0000
     30  CMC       46.7970   -4.1000   23.8830 C.3   153  HEM153      0.0000
     31  CAC       48.1440   -3.6920   20.8930 C.3   153  HEM153      0.0000
     32  CBC       49.3450   -3.9390   21.6720 C.3   153  HEM153      0.0000
     33  ND        43.7980   -1.7400   18.6610 N.ar  153  HEM153      0.0000
     34  C1D       45.0930   -2.0290   18.2890 C.ar  153  HEM153      0.0000
     35  C2D       45.4210   -1.4400   17.0090 C.ar  153  HEM153      0.0000
     36  C3D       44.3090   -0.7940   16.6090 C.ar  153  HEM153      0.0000
     37  C4D       43.2980   -1.0110   17.6100 C.ar  153  HEM153      0.0000
     38  CMD       46.7510   -1.5210   16.2750 C.3   153  HEM153      0.0000
     39  CAD       44.1610    0.0630   15.3730 C.3   153  HEM153      0.0000
     40  CBD       44.3090    1.5360   15.6690 C.3   153  HEM153      0.0000
     41  CGD       44.0320    2.3410   14.4190 C.2   153  HEM153      0.0000
     42  O1D       44.8870    2.3920   13.5410 O.co2 153  HEM153      0.0000
     43  O2D       42.9410    2.8880   14.3120 O.co2 153  HEM153      0.0000
@<TRIPOS>BOND
     1    16    14   ar
     2    42    41   ar
     3    15    14   ar
     4    43    41   ar
     5    41    40    1
     6    14    13    1
     7    39    40    1
     8    39    36    1
     9    13    12    1
    10    38    35    1
    11    36    35   ar
    12    36    37   ar
    13    12     8    1
    14    35    34   ar
    15     2    37    2
    16     2     7    1
    17    37    33   ar
    18     8     7    1
    19     8     9    2
    20    34    33   ar
    21    34     5    2
    22     7     6    2
    23    33     1    1
    24     5    29    1
    25     9    11    1
    26     9    10    1
    27     6    10    1
    28     6     1    1
    29    10     3    2
    30     1    25    1
    31     1    17    1
    32    29    25    2
    33    29    28    1
    34    31    28    1
    35    31    32    1
    36    25    26    1
    37    28    27    2
    38     3    18    1
    39    17    18   ar
    40    17    21   ar
    41    18    19   ar
    42    26    27    1
    43    26     4    2
    44    27    30    1
    45    21     4    1
    46    21    20   ar
    47    19    22    1
    48    19    20   ar
    49    20    23    1
    50    23    24    1
