@<TRIPOS>MOLECULE
7ins_III_G_1.pdb
 42 41 0 0 0
SMALL
GASTEIGER

@<TRIPOS>ATOM
      1  N         28.7900   31.1540   17.4410 N.3     5  UNK5       -0.1231
      2  CA        28.1540   29.8270   17.2080 C.3     5  UNK5        0.1694
      3  C         27.5170   29.7620   15.8120 C.2     5  UNK5        0.2589
      4  O         28.3450   29.7620   14.8420 O.2     5  UNK5       -0.2718
      5  CB        27.3430   29.4580   18.4450 C.3     5  UNK5        0.0304
      6  N         26.2060   29.7100   15.6140 N.am    6  UNK6       -0.2001
      7  CA        25.5690   29.6140   14.2370 C.3     6  UNK6        0.1592
      8  C         26.1100   30.8560   13.5470 C.3     6  UNK6        0.2067
      9  O         27.3790   31.0500   13.3510 O.3     6  UNK6       -0.2184
     10  CB        24.1960   29.0000   14.4780 C.3     6  UNK6        0.1334
     11  CG        24.4630   27.7590   15.3430 C.3     6  UNK6        0.0825
     12  CD        23.8110   26.5590   15.7930 C.3     6  UNK6        0.2236
     13  NE        24.2680   25.2100   15.5330 N.pl3   6  UNK6       -0.0864
     14  CZ        25.0720   24.2090   15.8500 C.cat   6  UNK6        0.5346
     15  NH1       25.9300   24.1070   16.8560 N.pl3   6  UNK6        0.1354
     16  NH2       25.3010   23.1020   15.1310 N.pl3   6  UNK6        0.1354
     17  N         26.5950   32.6160   14.6930 N.3    25  UNK25      -0.1225
     18  CA        27.5730   33.6560   14.9960 C.3    25  UNK25       0.1811
     19  C         26.7790   34.8230   15.6080 C.2    25  UNK25       0.2280
     20  O         27.4100   35.6680   16.3090 O.2    25  UNK25      -0.2866
     21  N         29.2330   29.4040   13.2500 N.3    41  UNK41      -0.1303
     22  CA        28.2240   28.7240   12.4250 C.3    41  UNK41       0.1214
     23  C         27.8330   27.3920   13.0680 C.3    41  UNK41       0.1615
     24  O         26.9930   26.6500   12.5390 O.3    41  UNK41      -0.3469
     25  CB        28.7860   28.4540   11.0280 C.3    41  UNK41       0.0253
     26  CG        28.2430   27.0420    9.9870 C.3    41  UNK41       0.0485
     27  CD        28.6140   27.2080    8.5480 C.3    41  UNK41       0.2205
     28  NE        28.7320   28.6330    8.2490 N.pl3  41  UNK41      -0.0865
     29  CZ        28.8100   28.9950    6.9650 C.cat  41  UNK41       0.5346
     30  NH1       28.2570   28.1170    6.1340 N.pl3  41  UNK41       0.1354
     31  NH2       29.4340   30.1420    6.7220 N.pl3  41  UNK41       0.1354
     32  N         26.5610   23.7260   13.0430 N.3    43  UNK43       0.0000
     33  CA        26.2080   25.8040   13.3990 C.3    43  UNK43       0.1796
     34  C         26.7060   26.0870   14.8180 C.2    43  UNK43       0.2366
     35  O         26.5390   27.1980   15.3440 O.2    43  UNK43      -0.2856
     36  CB        24.6940   26.0200   13.3520 C.3    43  UNK43       0.0441
     37  CG        24.2800   27.4410   13.7370 C.3    43  UNK43       0.0737
     38  CD        22.7660   27.6570   13.6900 C.3    43  UNK43       0.1707
     39  NE        22.7340   28.9020   14.0440 N.pl3  43  UNK43      -0.1925
     40  CZ        21.4820   29.3640   14.1640 C.cat  43  UNK43       0.4953
     41  NH1       20.4620   28.5710   13.9530 N.pl3  43  UNK43       0.1298
     42  NH2       21.1930   30.6190   14.4720 N.pl3  43  UNK43       0.1298
@<TRIPOS>BOND
     1    30    29    1
     2    31    29    1
     3    29    28    2
     4    28    27    1
     5    27    26    1
     6    26    25    1
     7    25    22    1
     8    22    23    1
     9    22    21    1
    10    24    23    1
    11    24    33    1
    12     9     8    1
    13    36    33    1
    14    36    37    1
    15    33    34    1
    16     8     7    1
    17    38    37    1
    18    38    39    1
    19    37    10    1
    20    37    11    1
    21    41    40    2
    22    39    40    1
    23    39    10    1
    24    40    42    1
    25     7    10    1
    26     7     6    1
    27    10    11    1
    28    17    18    1
    29    34    35    2
    30     4     3    2
    31    18    19    1
    32    16    14    1
    33    11    12    1
    34    13    12    1
    35    13    14    2
    36    19    20    2
    37     6     3   am
    38     3     2    1
    39    14    15    1
    40     2     1    1
    41     2     5    1
