@<TRIPOS>MOLECULE
7ins_UNK_G_1.pdb
 11 10 0 0 0
SMALL
GASTEIGER

@<TRIPOS>ATOM
      1  N         47.6140   34.6810   11.9200 N.3    11  UNK11      -0.1241
      2  CA        47.8820   36.0660   12.3940 C.3    11  UNK11       0.1606
      3  C         47.6180   36.0540   13.9000 C.2    11  UNK11       0.2264
      4  O         46.9890   35.2600   14.6380 O.2    11  UNK11      -0.2867
      5  CB        47.1090   36.9850   11.4360 C.3    11  UNK11       0.0562
      6  CG        45.7650   36.7460   10.7710 C.2    11  UNK11       0.0159
      7  CD        45.5250   37.2370    9.3900 C.2    11  UNK11       0.1886
      8  NE        44.2770   37.3470    8.6880 N.pl3  11  UNK11      -0.0578
      9  CZ        43.7560   36.6900    7.6280 C.cat  11  UNK11       0.5393
     10  NH1       44.5000   35.6600    7.1880 N.pl3  11  UNK11       0.1358
     11  NH2       42.6620   36.9290    6.8290 N.pl3  11  UNK11       0.1358
@<TRIPOS>BOND
     1    11     9    1
     2    10     9    1
     3     9     8    2
     4     8     7    1
     5     7     6    2
     6     6     5    1
     7     5     2    1
     8     1     2    1
     9     2     3    1
    10     3     4    2
