@<TRIPOS>MOLECULE
7jdw_DAV_A_1.pdb
 11 10 0 0 0
SMALL
GASTEIGER

@<TRIPOS>ATOM
      1  OT1       43.9540   73.9800   18.3670 O.co2 500  DAV500     -0.2457
      2  OT2       43.1620   72.2120   17.3370 O.co2 500  DAV500     -0.2457
      3  CB        45.7840   71.1030   17.4780 C.3   500  DAV500      0.0096
      4  CG        47.1580   70.8360   16.9170 C.3   500  DAV500     -0.0233
      5  CD        47.7380   69.6040   17.5400 C.3   500  DAV500     -0.0862
      6  NE        48.0750   68.5420   16.5730 N.4   500  DAV500      0.3804
      7  C         44.1060   72.9390   17.7170 C.2   500  DAV500      0.3649
      8  CA        45.5120   72.5500   17.3590 C.3   500  DAV500      0.1140
      9  HT1       48.7760   68.9010   15.8940 H     500  DAV500     -0.0894
     10  HT2       47.2160   68.2520   16.0630 H     500  DAV500     -0.0894
     11  HT3       48.4700   67.7240   17.0800 H     500  DAV500     -0.0894
@<TRIPOS>BOND
     1     9     6    1
     2    10     6    1
     3     6    11    1
     4     6     5    1
     5     4     3    1
     6     4     5    1
     7     2     7   ar
     8     8     3    1
     9     8     7    1
    10     7     1   ar
