@<TRIPOS>MOLECULE
7kme_III_J_1.pdb
 39 41 0 0 0
SMALL
GASTEIGER

@<TRIPOS>ATOM
      1  C         18.4600  -13.2120   20.0640 C.2   379  ACE379      0.2423
      2  O         18.9700  -13.6290   21.3040 O.2   379  ACE379     -0.2733
      3  CH3       19.3800  -12.9130   18.9610 C.3   379  ACE379      0.0964
      4  N         17.1830  -13.0920   19.9320 N.am  380  PHE380     -0.1974
      5  CA        16.2520  -12.7200   20.8510 C.3   380  PHE380      0.1770
      6  C         15.8890  -13.8980   21.6630 C.2   380  PHE380      0.2619
      7  O         15.7060  -13.8480   22.9360 O.2   380  PHE380     -0.2715
      8  N2        10.0420  -12.1350   24.0130 N.pl3 380  PHE380      0.2047
      9  N3        10.8860  -10.2570   24.5510 N.pl3 380  PHE380      0.2047
     10  C3        13.9100  -11.8440   21.0910 C.ar  380  PHE380     -0.0200
     11  C4        13.8480  -10.7230   21.8400 C.ar  380  PHE380     -0.0039
     12  C5        12.8540  -10.5110   22.8090 C.ar  380  PHE380      0.0077
     13  C6        11.8780  -11.4260   23.0010 C.ar  380  PHE380      0.0975
     14  C7        11.8690  -12.5930   22.1980 C.ar  380  PHE380      0.0077
     15  C8        12.8690  -12.8540   21.2740 C.ar  380  PHE380     -0.0039
     16  C9        14.9020  -12.0870   20.1450 C.3   380  PHE380      0.0574
     17  C10       10.9600  -11.2390   23.8670 C.2   380  PHE380      0.4766
     18  N         15.5850  -14.9890   21.0270 N.am  381  CHG381     -0.1963
     19  CA        15.0130  -16.1900   21.6330 C.3   381  CHG381      0.1727
     20  C         16.1600  -17.0100   22.2910 C.2   381  CHG381      0.2612
     21  O         17.1540  -17.4110   21.6370 O.2   381  CHG381     -0.2715
     22  C1        14.1640  -17.0260   20.6410 C.3   381  CHG381      0.0290
     23  C2        13.5110  -18.1410   21.5080 C.3   381  CHG381      0.0022
     24  C3        12.3520  -18.7530   20.7480 C.3   381  CHG381      0.0001
     25  C4        11.3160  -17.6690   20.4930 C.3   381  CHG381      0.0000
     26  C5        12.0310  -16.7160   19.5180 C.3   381  CHG381      0.0001
     27  C6        13.0980  -16.1210   20.2590 C.3   381  CHG381      0.0022
     28  N         16.1180  -17.1110   23.7880 N.am  382  PRR382     -0.2027
     29  CA        17.1110  -17.9460   24.5690 C.3   382  PRR382      0.1326
     30  C         16.5940  -19.3330   24.7570 C.3   382  PRR382      0.2039
     31  O         15.1360  -19.7050   24.8520 O.3   382  PRR382     -0.2185
     32  N1        21.0380  -15.8350   25.3890 N.pl3 382  PRR382     -0.3011
     33  C2        20.9250  -14.7830   24.4640 C.3   382  PRR382      0.1175
     34  C3        19.6920  -14.5210   23.9610 C.2   382  PRR382     -0.0050
     35  C4        18.5770  -15.2240   24.3420 C.2   382  PRR382     -0.0058
     36  C5        17.4970  -17.0130   25.6500 C.3   382  PRR382      0.0520
     37  C8        18.6740  -16.2240   25.2660 C.2   382  PRR382     -0.0061
     38  C9        19.9290  -16.5860   25.7830 C.2   382  PRR382      0.0573
     39  C10       22.2260  -16.1590   25.8950 C.3   382  PRR382      0.1125
@<TRIPOS>BOND
     1     3     1    1
     2    26    27    1
     3    26    25    1
     4     4     1   am
     5     4     5    1
     6     1     2    2
     7    16     5    1
     8    16    10    1
     9    27    22    1
    10    25    24    1
    11    22    23    1
    12    22    19    1
    13    24    23    1
    14     5     6    1
    15    18    19    1
    16    18     6   am
    17    10    15   ar
    18    10    11   ar
    19    15    14   ar
    20    19    20    1
    21    21    20    2
    22     6     7    2
    23    11    12   ar
    24    14    13   ar
    25    20    28   am
    26    12    13   ar
    27    13    17    1
    28    28    29    1
    29    17     8    2
    30    17     9    1
    31    34    35    2
    32    34    33    1
    33    35    37    1
    34    33    32    1
    35    29    30    1
    36    29    36    1
    37    30    31    1
    38    37    36    1
    39    37    38    2
    40    32    38    1
    41    32    39    1
