@<TRIPOS>MOLECULE
7lpr_III_P_1.pdb
 26 26 0 0 0
SMALL
GASTEIGER

@<TRIPOS>ATOM
      1  N         14.0270   42.0650   18.3700 N.3     4  ALA4        0.0000
      2  CA        14.3310   40.6400   18.2050 C.3     4  ALA4        0.0000
      3  C         13.4040   39.4800   18.5660 C.2     4  ALA4        0.0000
      4  O         12.7240   39.3530   19.6150 O.2     4  ALA4        0.0000
      5  CB        15.5330   40.2290   19.0910 C.3     4  ALA4        0.0000
      6  N         13.4700   38.5160   17.6510 N.am    3  ALA3        0.0000
      7  CA        12.6800   37.2710   17.8890 C.3     3  ALA3        0.0000
      8  C         13.6360   36.1110   17.5940 C.2     3  ALA3        0.0000
      9  O         14.5190   36.4260   16.8030 O.2     3  ALA3        0.0000
     10  CB        11.4660   37.1600   16.9950 C.3     3  ALA3        0.0000
     11  N         13.3670   34.9770   18.1750 N.am    2  PRO2        0.0000
     12  CA        14.1710   33.7820   17.8970 C.3     2  PRO2        0.0000
     13  C         13.8380   33.3480   16.4520 C.2     2  PRO2        0.0000
     14  O         12.6230   33.4390   16.0700 O.2     2  PRO2        0.0000
     15  CB        13.5700   32.7150   18.8440 C.3     2  PRO2        0.0000
     16  CG        12.5920   33.4000   19.7360 C.3     2  PRO2        0.0000
     17  CD        12.2250   34.7340   19.1030 C.3     2  PRO2        0.0000
     18  CA        14.5320   32.3950   14.3130 C.3     1  LEU1        0.0000
     19  CB        15.3410   33.3480   13.3360 C.3     1  LEU1        0.0000
     20  CG        15.0330   34.8400   13.4990 C.3     1  LEU1        0.0000
     21  CD1       16.0010   35.7270   12.7170 C.3     1  LEU1        0.0000
     22  CD2       13.6530   35.0710   12.8710 C.3     1  LEU1        0.0000
     23  N         14.8130   32.8620   15.7120 N.am    1  LEU1        0.0000
     24  B         14.8540   30.8770   14.1120 B       1  LEU1        0.0000
     25  O1        14.8690   30.3800   12.7030 O.3     1  LEU1        0.0000
     26  O2        14.0080   30.0250   14.9890 O.3     1  LEU1        0.0000
@<TRIPOS>BOND
     1    25    24    1
     2    21    20    1
     3    22    20    1
     4    19    20    1
     5    19    18    1
     6    24    18    1
     7    24    26    1
     8    18    23    1
     9    23    13   am
    10    14    13    2
    11    13    12    1
    12     9     8    2
    13    10     7    1
    14     8     7    1
    15     8    11   am
    16     6     7    1
    17     6     3   am
    18    12    11    1
    19    12    15    1
    20    11    17    1
    21     2     1    1
    22     2     3    1
    23     2     5    1
    24     3     4    2
    25    15    16    1
    26    17    16    1
