@<TRIPOS>MOLECULE
7mht_SAH_A_1.pdb
 26 28 0 0 0
SMALL
GASTEIGER

@<TRIPOS>ATOM
      1  N        -18.1960   31.8940   82.2410 N.3   328  SAH328     -0.1159
      2  CA       -18.7080   31.0990   83.3220 C.3   328  SAH328      0.2168
      3  CB       -18.6070   31.8640   84.6480 C.2   328  SAH328      0.0105
      4  CG       -17.1940   32.2140   85.0910 C.2   328  SAH328      0.0284
      5  SD       -17.0500   33.0500   86.7110 S.3   328  SAH328     -0.1108
      6  C        -20.1740   30.9090   82.9130 C.2   328  SAH328      0.3860
      7  O        -20.4880   30.7740   81.6590 O.co2 328  SAH328     -0.2437
      8  OXT      -21.1430   30.9220   83.7820 O.co2 328  SAH328     -0.2437
      9  C5'      -15.6890   32.2690   87.6000 C.3   328  SAH328      0.0945
     10  C4'      -15.7650   30.7720   87.9270 C.3   328  SAH328      0.1634
     11  O4'      -14.4470   30.3130   88.3250 O.3   328  SAH328     -0.3152
     12  C3'      -16.7000   30.4520   89.0930 C.3   328  SAH328      0.2168
     13  O3'      -17.5530   29.3850   88.7180 O.3   328  SAH328     -0.2175
     14  C2'      -15.6570   30.0440   90.1410 C.3   328  SAH328      0.2569
     15  O2'      -16.1930   29.1040   91.0740 O.3   328  SAH328     -0.2130
     16  C1'      -14.6080   29.3420   89.2980 C.3   328  SAH328      0.3185
     17  N9       -13.3020   29.1640   89.9880 N.pl3 328  SAH328     -0.1439
     18  C8       -12.6410   30.0370   90.8370 C.3   328  SAH328      0.3377
     19  N7       -11.4630   29.6110   91.2530 N.2   328  SAH328     -0.2095
     20  C5       -11.3380   28.3640   90.6370 C.2   328  SAH328      0.2526
     21  C6       -10.3120   27.4030   90.6650 C.2   328  SAH328      0.4393
     22  N6        -9.2000   27.5790   91.3790 N.pl3 328  SAH328      0.2180
     23  N1       -10.4560   26.2740   89.9600 N.2   328  SAH328      0.0021
     24  C2       -11.5960   26.1450   89.2750 C.3   328  SAH328      0.5254
     25  N3       -12.6400   26.9560   89.1610 N.2   328  SAH328     -0.0055
     26  C4       -12.4430   28.0800   89.8780 C.2   328  SAH328      0.3518
@<TRIPOS>BOND
     1     7     6   ar
     2     1     2    1
     3     6     2    1
     4     6     8   ar
     5     2     3    1
     6     3     4    2
     7     4     5    1
     8     5     9    1
     9     9    10    1
    10    10    11    1
    11    10    12    1
    12    11    16    1
    13    13    12    1
    14    12    14    1
    15    25    24    1
    16    25    26    2
    17    24    23    1
    18    16    17    1
    19    16    14    1
    20    26    17    1
    21    26    20    1
    22    23    21    2
    23    17    18    1
    24    14    15    1
    25    20    21    1
    26    20    19    2
    27    21    22    1
    28    18    19    1
