@<TRIPOS>MOLECULE
7nse_DA2_A_1.pdb
 14 13 0 0 0
SMALL
GASTEIGER

@<TRIPOS>ATOM
      1  C1         8.5980   10.7220   30.4630 C.3   710  DA2710      0.2208
      2  C2         6.3730   10.9280   29.2520 C.3   710  DA2710      0.2208
      3  N          7.9140   15.7930   35.3830 N.3   710  DA2710     -0.1208
      4  CA         8.4330   16.3050   34.0860 C.3   710  DA2710      0.1944
      5  CB         8.3650   15.2060   33.0270 C.3   710  DA2710      0.0343
      6  CG         9.1190   13.9460   33.4070 C.3   710  DA2710      0.0490
      7  CD         8.7630   12.8000   32.4790 C.3   710  DA2710      0.2203
      8  NE         7.3120   12.6240   32.3700 N.pl3 710  DA2710     -0.0920
      9  CZ         6.6430   11.9290   31.4420 C.cat 710  DA2710      0.4635
     10  NH2        5.3170   11.9240   31.5240 N.pl3 710  DA2710      0.1283
     11  NH1        7.2140   11.2620   30.4200 N.pl3 710  DA2710     -0.2224
     12  C          7.6340   17.5150   33.6130 C.2   710  DA2710      0.3819
     13  OA1        6.5000   17.7030   34.1060 O.co2 710  DA2710     -0.2441
     14  OA2        8.1490   18.2550   32.7470 O.co2 710  DA2710     -0.2441
@<TRIPOS>BOND
     1     2    11    1
     2    11     1    1
     3    11     9    1
     4     9    10    2
     5     9     8    1
     6     8     7    1
     7     7     6    1
     8    14    12   ar
     9     5     6    1
    10     5     4    1
    11    12     4    1
    12    12    13   ar
    13     4     3    1
