@<TRIPOS>MOLECULE
7nse_HEM_A_1.pdb
 43 50 0 0 0
SMALL
GASTEIGER

@<TRIPOS>ATOM
      1  CHA        9.1370    8.9730   34.8660 C.2   500  HEM500      0.0000
      2  CHB        4.6090    9.0290   33.3760 C.2   500  HEM500      0.0000
      3  CHC        6.0480    7.2080   29.1540 C.2   500  HEM500      0.0000
      4  CHD       10.4540    6.5810   30.8760 C.2   500  HEM500      0.0000
      5  C1A        7.7970    9.2630   34.7730 C.2   500  HEM500      0.0000
      6  C2A        7.0570   10.1330   35.6890 C.2   500  HEM500      0.0000
      7  C3A        5.7740   10.0530   35.3300 C.2   500  HEM500      0.0000
      8  C4A        5.7190    9.2280   34.1270 C.2   500  HEM500      0.0000
      9  CMA        4.6420   10.6570   36.1620 C.3   500  HEM500      0.0000
     10  CAA        7.5380   11.0340   36.8500 C.3   500  HEM500      0.0000
     11  CBA        8.3920   12.2270   36.4310 C.3   500  HEM500      0.0000
     12  CGA        8.5990   13.2600   37.5320 C.2   500  HEM500      0.0000
     13  O1A        7.8480   13.2520   38.5380 O.co2 500  HEM500      0.0000
     14  O2A        9.5150   14.1000   37.3640 O.co2 500  HEM500      0.0000
     15  C1B        4.5990    8.3790   32.1510 C.ar  500  HEM500      0.0000
     16  C2B        3.4340    8.3770   31.2930 C.ar  500  HEM500      0.0000
     17  C3B        3.8020    7.8170   30.1080 C.ar  500  HEM500      0.0000
     18  C4B        5.2280    7.5270   30.2290 C.ar  500  HEM500      0.0000
     19  CMB        2.0900    8.9800   31.6700 C.3   500  HEM500      0.0000
     20  CAB        2.9410    7.6570   29.0390 C.2   500  HEM500      0.0000
     21  CBB        3.0660    6.7820   28.0050 C.2   500  HEM500      0.0000
     22  C1C        7.3940    6.9820   29.2200 C.2   500  HEM500      0.0000
     23  C2C        8.2170    6.5550   28.0940 C.2   500  HEM500      0.0000
     24  C3C        9.4630    6.2700   28.5870 C.2   500  HEM500      0.0000
     25  C4C        9.3830    6.5980   30.0180 C.2   500  HEM500      0.0000
     26  CMC        7.7560    6.5200   26.6490 C.3   500  HEM500      0.0000
     27  CAC       10.5980    5.7400   27.9580 C.2   500  HEM500      0.0000
     28  CBC       10.7280    5.1340   26.7480 C.2   500  HEM500      0.0000
     29  C1D       10.4190    7.1310   32.1430 C.ar  500  HEM500      0.0000
     30  C2D       11.6180    7.2910   32.9580 C.ar  500  HEM500      0.0000
     31  C3D       11.2360    7.9770   34.0400 C.ar  500  HEM500      0.0000
     32  C4D        9.8300    8.2670   33.9130 C.ar  500  HEM500      0.0000
     33  CMD       13.0260    6.7290   32.7400 C.3   500  HEM500      0.0000
     34  CAD       12.1560    8.3340   35.1880 C.3   500  HEM500      0.0000
     35  CBD       12.6390    9.7780   35.0740 C.3   500  HEM500      0.0000
     36  CGD       13.6890   10.1470   36.1140 C.2   500  HEM500      0.0000
     37  O1D       14.4170    9.2450   36.6070 O.co2 500  HEM500      0.0000
     38  O2D       13.7930   11.3560   36.4200 O.co2 500  HEM500      0.0000
     39  NA         6.9550    8.7340   33.7800 N.2   500  HEM500      0.0000
     40  NB         5.6980    7.8170   31.5270 N.ar  500  HEM500      0.0000
     41  NC         8.1060    7.0210   30.4140 N.2   500  HEM500      0.0000
     42  ND         9.2930    7.7020   32.7540 N.ar  500  HEM500      0.0000
     43 FE          7.4340    7.5490   32.2610 Fe    500  HEM500      0.0000
@<TRIPOS>BOND
     1    26    23    1
     2    28    27    2
     3    27    24    1
     4    21    20    2
     5    23    24    2
     6    23    22    1
     7    24    25    1
     8    20    17    1
     9     3    22    2
    10     3    18    1
    11    22    41    1
    12    25    41    2
    13    25     4    1
    14    17    18   ar
    15    17    16   ar
    16    18    40   ar
    17    41    43    1
    18     4    29    2
    19    16    19    1
    20    16    15   ar
    21    40    15   ar
    22    40    43    1
    23    29    42   ar
    24    29    30   ar
    25    15     2    1
    26    43    42    1
    27    43    39    1
    28    33    30    1
    29    42    32   ar
    30    30    31   ar
    31     2     8    2
    32    39     8    1
    33    39     5    2
    34    32    31   ar
    35    32     1    2
    36    31    34    1
    37     8     7    1
    38     5     1    1
    39     5     6    1
    40    35    34    1
    41    35    36    1
    42     7     6    2
    43     7     9    1
    44     6    10    1
    45    36    38   ar
    46    36    37   ar
    47    11    10    1
    48    11    12    1
    49    14    12   ar
    50    12    13   ar
