@<TRIPOS>MOLECULE
7odc_PLP_A_1.pdb
 15 15 0 0 0
SMALL
GASTEIGER

@<TRIPOS>ATOM
      1  N1       -14.3330   14.0520   -8.3860 N.2   425  PLP425     -0.2505
      2  C2       -13.0670   14.1640   -7.9320 C.2   425  PLP425      0.0675
      3  C2A      -12.5230   15.5540   -7.6740 C.3   425  PLP425      0.0499
      4  C3       -12.3130   12.9900   -7.7180 C.3   425  PLP425      0.1913
      5  O3       -11.0530   13.1590   -7.2400 O.3   425  PLP425     -0.2167
      6  C4       -12.8690   11.7450   -7.9410 C.3   425  PLP425      0.0581
      7  C4A      -12.0000   10.5750   -8.1130 C.3   425  PLP425      0.0075
      8  C5       -14.2050   11.7230   -8.4280 C.2   425  PLP425      0.0073
      9  C6       -14.9090   12.8520   -8.6360 C.2   425  PLP425      0.0921
     10  C5A      -14.8540   10.3400   -8.6840 C.3   425  PLP425      0.1776
     11  O4P      -14.9550    9.6800   -7.4040 O.3   425  PLP425     -0.2656
     12  P        -15.9170    8.4130   -7.1770 P.3   425  PLP425      0.5329
     13  O1P      -15.4670    7.4080   -8.2390 O.2   425  PLP425     -0.2224
     14  O2P      -15.6850    7.9810   -5.7620 O.3   425  PLP425     -0.1145
     15  O3P      -17.2790    8.8940   -7.4180 O.3   425  PLP425     -0.1145
@<TRIPOS>BOND
     1    10     8    1
     2    10    11    1
     3     9     8    2
     4     9     1    1
     5     8     6    1
     6     1     2    2
     7    13    12    2
     8     7     6    1
     9     6     4    1
    10     2     4    1
    11     2     3    1
    12     4     5    1
    13    15    12    1
    14    11    12    1
    15    12    14    1
