@<TRIPOS>MOLECULE
7prc_MQ7_M_1.pdb
 48 49 0 0 0
SMALL
GASTEIGER

@<TRIPOS>ATOM
      1  C1       125.4320   82.2880    7.8610 C.2   501  MQ7501      0.1915
      2  O1       125.4500   81.5590    6.8560 O.2   501  MQ7501     -0.2869
      3  C2       124.6180   81.9500    9.0200 C.2   501  MQ7501      0.0165
      4  C2M      123.6950   80.7800    8.8320 C.3   501  MQ7501      0.0342
      5  C3       124.7030   82.6940   10.1810 C.2   501  MQ7501      0.0202
      6  C4       125.5700   83.8460   10.2140 C.2   501  MQ7501      0.1918
      7  O4       125.4660   84.6260   11.1670 O.2   501  MQ7501     -0.2869
      8  C5       126.3810   84.1840    9.0560 C.ar  501  MQ7501      0.0417
      9  C6       127.2430   85.2830    9.0830 C.ar  501  MQ7501      0.0033
     10  C7       128.0160   85.6060    7.9750 C.ar  501  MQ7501      0.0001
     11  C8       127.9330   84.8380    6.8350 C.ar  501  MQ7501      0.0001
     12  C9       127.0840   83.7410    6.8120 C.ar  501  MQ7501      0.0033
     13  C10      126.3130   83.4250    7.9270 C.ar  501  MQ7501      0.0417
     14  C11      123.8890   82.3700   11.4310 C.3   501  MQ7501      0.0547
     15  C12      124.4550   81.2640   12.1830 C.2   501  MQ7501     -0.0298
     16  C13      125.1680   81.3820   13.3510 C.2   501  MQ7501     -0.0475
     17  C14      125.3350   82.7250   13.9650 C.3   501  MQ7501      0.0260
     18  C15      125.7730   80.2220   14.0960 C.3   501  MQ7501      0.0264
     19  C16      125.0180   79.8770   15.3440 C.3   501  MQ7501      0.0297
     20  C17      123.7370   79.3580   14.9800 C.2   501  MQ7501     -0.0342
     21  C18      123.1060   78.2080   15.4190 C.2   501  MQ7501     -0.0478
     22  C19      123.6750   77.2240   16.4870 C.3   501  MQ7501      0.0260
     23  C20      121.7740   77.8580   14.8830 C.3   501  MQ7501      0.0263
     24  C21      120.8310   78.0350   16.0740 C.3   501  MQ7501      0.0297
     25  C22      120.6050   79.3570   16.4980 C.2   501  MQ7501     -0.0342
     26  C23      120.0770   79.6590   17.7300 C.2   501  MQ7501     -0.0478
     27  C24      119.5930   78.5950   18.6280 C.3   501  MQ7501      0.0260
     28  C25      119.7960   80.9880   18.3320 C.3   501  MQ7501      0.0263
     29  C26      118.2820   81.1930   18.2400 C.3   501  MQ7501      0.0297
     30  C27      117.8480   82.5950   18.5290 C.2   501  MQ7501     -0.0342
     31  C28      116.5790   83.1460   18.4850 C.2   501  MQ7501     -0.0478
     32  C29      115.3110   82.3930   18.1560 C.3   501  MQ7501      0.0260
     33  C30      116.1890   84.5730   18.7930 C.3   501  MQ7501      0.0263
     34  C31      115.7560   84.8260   20.2410 C.3   501  MQ7501      0.0297
     35  C32      115.3240   86.2510   20.4540 C.2   501  MQ7501     -0.0342
     36  C33      114.1060   86.8520   20.8000 C.2   501  MQ7501     -0.0478
     37  C34      112.8710   86.0260   21.0790 C.3   501  MQ7501      0.0260
     38  C35      113.7720   88.3480   20.9790 C.3   501  MQ7501      0.0263
     39  C36      113.8470   89.0880   19.6550 C.3   501  MQ7501      0.0297
     40  C37      113.7750   90.5580   19.8080 C.2   501  MQ7501     -0.0342
     41  C38      112.7910   91.3300   19.2130 C.2   501  MQ7501     -0.0478
     42  C39      111.6630   90.7250   18.3470 C.3   501  MQ7501      0.0260
     43  C40      112.6910   92.8220   19.3660 C.3   501  MQ7501      0.0263
     44  C41      111.9140   93.1850   20.6270 C.3   501  MQ7501      0.0297
     45  C42      112.8490   92.7800   21.6520 C.2   501  MQ7501     -0.0342
     46  C43      112.9460   92.3590   22.9730 C.2   501  MQ7501     -0.0478
     47  C44      111.8390   92.1620   24.0220 C.3   501  MQ7501      0.0260
     48  C45      114.3290   92.0260   23.5370 C.3   501  MQ7501      0.0260
@<TRIPOS>BOND
     1    12    11   ar
     2    12    13   ar
     3    11    10   ar
     4     2     1    2
     5     1    13    1
     6     1     3    1
     7    13     8   ar
     8    10     9   ar
     9     4     3    1
    10     3     5    2
    11     8     9   ar
    12     8     6    1
    13     5     6    1
    14     5    14    1
    15     6     7    2
    16    14    15    1
    17    15    16    2
    18    16    17    1
    19    16    18    1
    20    18    19    1
    21    23    21    1
    22    23    24    1
    23    20    19    1
    24    20    21    2
    25    21    22    1
    26    24    25    1
    27    25    26    2
    28    26    28    1
    29    26    27    1
    30    32    31    1
    31    29    28    1
    32    29    30    1
    33    42    41    1
    34    31    30    2
    35    31    33    1
    36    33    34    1
    37    41    43    1
    38    41    40    2
    39    43    44    1
    40    39    40    1
    41    39    38    1
    42    34    35    1
    43    35    36    2
    44    44    45    1
    45    36    38    1
    46    36    37    1
    47    45    46    2
    48    46    48    1
    49    46    47    1
