@<TRIPOS>MOLECULE
7prc_CET_L_1.pdb
 17 17 0 0 0
SMALL
GASTEIGER

@<TRIPOS>ATOM
      1  N1       132.0550   70.7860   -2.6830 N.2   502  CET502     -0.2480
      2  C2       131.5200   69.7050   -2.1990 C.1   502  CET502      0.2271
      3 CL2       131.1710   69.7820   -0.4740 Cl    502  CET502      0.0258
      4  N3       131.2010   68.5720   -2.7680 N.2   502  CET502     -0.2480
      5  C4       131.4810   68.5820   -4.1020 C.1   502  CET502      0.2424
      6  N5       132.0340   69.6060   -4.7680 N.2   502  CET502     -0.2438
      7  C6       132.3000   70.6750   -4.0290 C.1   502  CET502      0.2416
      8  N7       131.1740   67.4980   -4.8070 N.pl3 502  CET502     -0.1396
      9  C8       130.5390   66.2900   -4.2840 C.3   502  CET502      0.1662
     10  C9       131.4040   65.6450   -3.2890 C.1   502  CET502      0.0923
     11  N9       132.0690   65.0980   -2.4640 N.1   502  CET502     -0.1942
     12  C10      129.2150   66.6890   -3.6510 C.3   502  CET502      0.0353
     13  C11      128.3000   67.2250   -4.7240 C.3   502  CET502      0.0029
     14  C12      130.3090   65.3050   -5.4500 C.3   502  CET502      0.0381
     15  N13      132.8510   71.7500   -4.6160 N.pl3 502  CET502     -0.1506
     16  C14      133.1950   72.9960   -3.9250 C.3   502  CET502      0.1263
     17  C15      133.6730   74.0740   -4.8530 C.3   502  CET502      0.0261
@<TRIPOS>BOND
     1    14     9    1
     2    17    16    1
     3     8     9    1
     4     8     5    1
     5     6     5    2
     6     6     7    2
     7    13    12    1
     8    15     7    1
     9    15    16    1
    10     9    12    1
    11     9    10    1
    12     5     4    2
    13     7     1    2
    14    10    11    3
    15     4     2    2
    16     1     2    2
    17     2     3    1
