@<TRIPOS>MOLECULE
7prc_NS5_M_1.pdb
 40 39 0 0 0
SMALL
GASTEIGER

@<TRIPOS>ATOM
      1  C1       121.3900   44.2580   -7.4640 C.3   600  NS5600      0.0000
      2  CM1      121.5040   44.8110   -8.8770 C.3   600  NS5600      0.0000
      3  CM2      120.5690   42.9810   -7.4460 C.3   600  NS5600      0.0000
      4  C2       122.7830   44.0290   -6.8600 C.3   600  NS5600      0.0000
      5  C3       123.4470   45.3010   -6.3210 C.3   600  NS5600      0.0000
      6  C4       124.9780   45.1870   -6.2820 C.3   600  NS5600      0.0000
      7  C5       125.5820   45.8230   -5.0530 C.3   600  NS5600      0.0000
      8  C6       126.7830   46.7420   -5.3050 C.3   600  NS5600      0.0000
      9  C7       125.2010   45.3940   -3.8220 C.3   600  NS5600      0.0000
     10  C8       125.6320   45.9640   -2.5060 C.3   600  NS5600      0.0003
     11  C9       125.2330   45.0450   -1.3600 C.3   600  NS5600      0.0043
     12  C10      124.4080   45.7580   -0.3600 C.3   600  NS5600      0.0217
     13  C11      123.2020   46.4310   -0.8940 C.3   600  NS5600      0.0047
     14  C12      124.7650   45.7570    0.9420 C.2   600  NS5600     -0.0310
     15  C13      124.2200   46.5540    2.0130 C.2   600  NS5600     -0.0307
     16  C14      124.6590   46.5560    3.2780 C.3   600  NS5600      0.0260
     17  C15      124.4560   47.6110    4.2670 C.3   600  NS5600      0.0087
     18  C16      123.3380   48.5730    3.9490 C.3   600  NS5600      0.0007
     19  C17      125.0790   47.5330    5.4670 C.3   600  NS5600      0.0264
     20  C18      125.1720   48.5420    6.4680 C.2   600  NS5600     -0.0261
     21  C19      125.9390   48.5590    7.5720 C.2   600  NS5600     -0.0049
     22  C20      126.7680   47.5000    8.1020 C.2   600  NS5600     -0.0046
     23  C21      127.5440   47.6920    9.2030 C.2   600  NS5600     -0.0222
     24  C22      127.7300   48.9980    9.8030 C.3   600  NS5600      0.0310
     25  C23      128.3850   46.6450    9.7820 C.2   600  NS5600     -0.0085
     26  C24      129.5970   46.8820   10.3130 C.2   600  NS5600     -0.0221
     27  C25      130.5470   45.8750   10.7530 C.3   600  NS5600      0.0476
     28  C26      131.8690   46.0360   10.9560 C.2   600  NS5600     -0.0438
     29  C27      132.6720   47.0770   10.2370 C.3   600  NS5600      0.0264
     30  C28      132.6420   44.9700   11.5420 C.2   600  NS5600     -0.0343
     31  C29      133.9890   44.9090   11.4890 C.3   600  NS5600      0.0254
     32  C30      134.8050   43.8090   12.0040 C.3   600  NS5600      0.0047
     33  C31      136.0770   43.8240   12.4760 C.3   600  NS5600      0.0007
     34  C32      137.0330   44.9570   12.2430 C.3   600  NS5600      0.0000
     35  C33      136.3560   42.9960   13.6920 C.3   600  NS5600      0.0047
     36  C34      137.8200   42.6890   13.8610 C.3   600  NS5600      0.0254
     37  C35      138.1810   41.4040   13.1840 C.2   600  NS5600     -0.0346
     38  C36      138.5750   40.2770   13.8190 C.2   600  NS5600     -0.0478
     39  CM3      138.6860   40.1810   15.2990 C.3   600  NS5600      0.0260
     40  CM4      138.9450   39.0460   13.0830 C.3   600  NS5600      0.0260
@<TRIPOS>BOND
     1     2     1    1
     2     1     3    1
     3     1     4    1
     4     4     5    1
     5     5     6    1
     6     6     7    1
     7     8     7    1
     8     7     9    1
     9     9    10    1
    10    10    11    1
    11    11    12    1
    12    13    12    1
    13    12    14    1
    14    14    15    2
    15    15    16    1
    16    16    17    1
    17    18    17    1
    18    17    19    1
    19    19    20    1
    20    20    21    2
    21    21    22    1
    22    22    23    2
    23    23    25    1
    24    23    24    1
    25    25    26    2
    26    29    28    1
    27    26    27    1
    28    27    28    1
    29    28    30    2
    30    31    30    1
    31    31    32    1
    32    32    33    1
    33    34    33    1
    34    33    35    1
    35    40    38    1
    36    37    38    2
    37    37    36    1
    38    35    36    1
    39    38    39    1
