@<TRIPOS>MOLECULE
7prc_HEM_C_1.pdb
 43 50 0 0 0
SMALL
GASTEIGER

@<TRIPOS>ATOM
      1  CHA       79.3410    9.5920   18.1420 C.2   337  HEM337      0.0000
      2  CHB       75.7260   10.5230   15.0340 C.2   337  HEM337      0.0000
      3  CHC       78.5620   13.4370   12.4910 C.2   337  HEM337      0.0000
      4  CHD       82.2760   12.1760   15.3510 C.2   337  HEM337      0.0000
      5  C1A       78.1330    9.5230   17.4470 C.ar  337  HEM337      0.0000
      6  C2A       77.0170    8.6680   17.8140 C.ar  337  HEM337      0.0000
      7  C3A       75.9860    8.9810   16.9950 C.ar  337  HEM337      0.0000
      8  C4A       76.4840    9.9650   16.0450 C.ar  337  HEM337      0.0000
      9  CMA       74.5740    8.3390   17.0590 C.3   337  HEM337      0.0000
     10  CAA       76.9620    7.5210   18.8410 C.3   337  HEM337      0.0000
     11  CBA       77.2920    6.1550   18.2450 C.3   337  HEM337      0.0000
     12  CGA       77.7570    5.1790   19.2920 C.2   337  HEM337      0.0000
     13  O1A       78.9860    5.0820   19.5030 O.co2 337  HEM337      0.0000
     14  O2A       76.8970    4.5570   19.9540 O.co2 337  HEM337      0.0000
     15  C1B       76.1940   11.3790   14.0750 C.2   337  HEM337      0.0000
     16  C2B       75.4440   11.8500   12.9350 C.2   337  HEM337      0.0000
     17  C3B       76.1440   12.8640   12.4170 C.2   337  HEM337      0.0000
     18  C4B       77.4690   12.7470   12.9370 C.2   337  HEM337      0.0000
     19  CMB       74.1160   11.3300   12.4080 C.3   337  HEM337      0.0000
     20  CAB       75.7930   13.9990   11.5410 C.3   337  HEM337      0.0000
     21  CBB       74.4180   14.5780   11.8680 C.3   337  HEM337      0.0000
     22  C1C       79.8230   13.3400   13.0530 C.ar  337  HEM337      0.0000
     23  C2C       80.9900   13.9870   12.5310 C.ar  337  HEM337      0.0000
     24  C3C       82.0460   13.5110   13.2220 C.ar  337  HEM337      0.0000
     25  C4C       81.5190   12.7070   14.3090 C.ar  337  HEM337      0.0000
     26  CMC       80.9390   14.9680   11.4070 C.3   337  HEM337      0.0000
     27  CAC       83.5310   13.7260   13.0280 C.3   337  HEM337      0.0000
     28  CBC       83.9640   15.1780   12.8770 C.3   337  HEM337      0.0000
     29  C1D       81.8070   11.4100   16.4130 C.2   337  HEM337      0.0000
     30  C2D       82.5710   11.0360   17.6000 C.2   337  HEM337      0.0000
     31  C3D       81.7130   10.3870   18.4330 C.2   337  HEM337      0.0000
     32  C4D       80.4490   10.3070   17.7360 C.2   337  HEM337      0.0000
     33  CMD       84.0480   11.3660   17.9570 C.3   337  HEM337      0.0000
     34  CAD       82.0740    9.9400   19.8280 C.3   337  HEM337      0.0000
     35  CBD       81.3330   10.7690   20.8860 C.3   337  HEM337      0.0000
     36  CGD       81.9130   10.6310   22.2920 C.2   337  HEM337      0.0000
     37  O1D       81.3510   11.2550   23.2260 O.co2 337  HEM337      0.0000
     38  O2D       82.9080    9.8900   22.4770 O.co2 337  HEM337      0.0000
     39  NA        77.8310   10.1910   16.2730 N.ar  337  HEM337      0.0000
     40  NB        77.4800   11.8500   13.9840 N.2   337  HEM337      0.0000
     41  NC        80.1590   12.5740   14.1500 N.ar  337  HEM337      0.0000
     42  ND        80.4940   11.0210   16.5610 N.2   337  HEM337      0.0000
     43 FE         79.0060   11.4080   15.2410 Fe    337  HEM337      0.0000
@<TRIPOS>BOND
     1    26    23    1
     2    20    21    1
     3    20    17    1
     4    19    16    1
     5    17    16    2
     6    17    18    1
     7     3    18    2
     8     3    22    1
     9    23    22   ar
    10    23    24   ar
    11    28    27    1
    12    16    15    1
    13    18    40    1
    14    27    24    1
    15    22    41   ar
    16    24    25   ar
    17    40    15    2
    18    40    43    1
    19    15     2    1
    20    41    25   ar
    21    41    43    1
    22    25     4    1
    23     2     8    2
    24    43    39    1
    25    43    42    1
    26     4    29    2
    27     8    39   ar
    28     8     7   ar
    29    39     5   ar
    30    29    42    1
    31    29    30    1
    32    42    32    2
    33     7     9    1
    34     7     6   ar
    35     5     6   ar
    36     5     1    2
    37    30    33    1
    38    30    31    2
    39    32     1    1
    40    32    31    1
    41     6    10    1
    42    11    10    1
    43    11    12    1
    44    31    34    1
    45    12    13   ar
    46    12    14   ar
    47    34    35    1
    48    35    36    1
    49    36    38   ar
    50    36    37   ar
