@<TRIPOS>MOLECULE
7prn_C8E_A_1.pdb
 21 20 0 0 0
SMALL
GASTEIGER

@<TRIPOS>ATOM
      1  C1         4.4730   59.9810   44.5310 C.3   290  C8E290      0.0000
      2  C2         3.5740   58.9870   43.9840 C.3   290  C8E290      0.0000
      3  C3         2.1630   58.8290   44.4100 C.3   290  C8E290      0.0000
      4  C4         2.0500   57.7280   45.3510 C.3   290  C8E290      0.0000
      5  C5         1.9770   58.2610   46.7360 C.3   290  C8E290      0.0001
      6  C6         0.7700   57.7540   47.3590 C.3   290  C8E290      0.0026
      7  C7         1.2460   57.7570   48.7260 C.3   290  C8E290      0.0321
      8  C8         0.2690   57.0210   49.5630 C.3   290  C8E290      0.1423
      9  O9         0.5430   56.8600   50.9420 O.3   290  C8E290     -0.3511
     10  C10        0.7400   58.0510   51.7160 C.3   290  C8E290      0.1741
     11  C11        0.9670   57.6140   53.1530 C.3   290  C8E290      0.1743
     12  O12       -0.1600   56.9010   53.7210 O.3   290  C8E290     -0.3471
     13  C13       -0.3260   55.4530   53.4580 C.3   290  C8E290      0.1894
     14  C14       -1.4590   54.9480   52.5080 C.3   290  C8E290      0.2376
     15  O15       -2.2610   53.7290   52.4920 O.2   290  C8E290     -0.4666
     16  C16       -1.7320   52.7480   51.5810 C.2   290  C8E290      0.2124
     17  C17       -1.7910   52.9910   50.0650 C.2   290  C8E290      0.2124
     18  O18       -1.5930   52.0750   48.9980 O.2   290  C8E290     -0.4665
     19  C19       -2.0600   50.6990   49.1790 C.3   290  C8E290      0.2411
     20  C20       -3.1740   49.9750   48.3340 C.3   290  C8E290      0.2292
     21  O21       -3.1720   50.2810   46.9000 O.3   290  C8E290     -0.2162
@<TRIPOS>BOND
     1     2     3    1
     2     2     1    1
     3     3     4    1
     4     4     5    1
     5     5     6    1
     6    21    20    1
     7     6     7    1
     8    20    19    1
     9     7     8    1
    10    18    19    1
    11    18    17    1
    12     8     9    1
    13    17    16    2
    14     9    10    1
    15    16    15    1
    16    10    11    1
    17    15    14    1
    18    14    13    1
    19    11    12    1
    20    13    12    1
