@<TRIPOS>MOLECULE
7r1r_III_P_1.pdb
 31 31 0 0 0
SMALL
GASTEIGER

@<TRIPOS>ATOM
      1  N         -4.5990   64.7380   31.7380 N.3     1  TYR1       -0.1227
      2  CA        -4.1020   63.8960   30.6210 C.3     1  TYR1        0.1736
      3  C         -3.7010   64.4800   29.2680 C.2     1  TYR1        0.2595
      4  O         -3.9090   65.6070   28.8450 O.2     1  TYR1       -0.2718
      5  CB        -5.0730   62.7860   30.3190 C.3     1  TYR1        0.0548
      6  CG        -6.4380   63.1460   29.8600 C.ar    1  TYR1       -0.0200
      7  CD1       -7.3730   63.7190   30.6960 C.ar    1  TYR1       -0.0009
      8  CD2       -6.7860   62.8550   28.5520 C.ar    1  TYR1       -0.0009
      9  CE1       -8.6450   64.0120   30.2270 C.ar    1  TYR1        0.0417
     10  CE2       -8.0550   63.1480   28.0840 C.ar    1  TYR1        0.0417
     11  CZ        -8.9740   63.7210   28.9260 C.ar    1  TYR1        0.1957
     12  OH       -10.2210   63.9890   28.4080 O.3     1  TYR1       -0.2866
     13  N         -3.0330   63.6050   28.5090 N.am    2  LEU2       -0.1966
     14  CA        -2.3740   63.9170   27.2630 C.3     2  LEU2        0.1728
     15  C         -2.8110   63.1650   26.0240 C.2     2  LEU2        0.2616
     16  O         -2.0520   62.3440   25.5000 O.2     2  LEU2       -0.2715
     17  CB        -0.9020   63.5330   27.4030 C.3     2  LEU2        0.0311
     18  CG         0.2780   64.4490   27.5470 C.3     2  LEU2        0.0022
     19  CD1        1.2770   64.1300   26.4480 C.3     2  LEU2        0.0001
     20  CD2       -0.1120   65.9120   27.5620 C.3     2  LEU2        0.0001
     21  N         -3.9840   63.3910   25.4830 N.am    3  VAL3       -0.1963
     22  CA        -4.4740   62.8620   24.2260 C.3     3  VAL3        0.1727
     23  C         -4.3290   61.4410   23.7310 C.2     3  VAL3        0.2616
     24  O         -5.3860   60.9460   23.2230 O.2     3  VAL3       -0.2715
     25  CB        -3.8050   63.8510   23.1840 C.3     3  VAL3        0.0290
     26  CG1       -3.5540   63.2970   21.7980 C.3     3  VAL3        0.0023
     27  CG2       -4.6740   65.1050   23.2060 C.3     3  VAL3        0.0023
     28  N         -3.1640   60.7880   23.6300 N.am    4  GLY4       -0.1955
     29  CA        -3.0630   59.4450   23.0750 C.3     4  GLY4        0.1869
     30  C         -3.0830   59.2950   21.5540 C.2     4  GLY4        0.2309
     31  O         -2.9390   58.1300   21.0650 O.2     4  GLY4       -0.2863
@<TRIPOS>BOND
     1    31    30    2
     2    30    29    1
     3    26    25    1
     4    29    28    1
     5    25    27    1
     6    25    22    1
     7    24    23    2
     8    28    23   am
     9    23    22    1
    10    22    21    1
    11    21    15   am
    12    16    15    2
    13    15    14    1
    14    19    18    1
    15    14    17    1
    16    14    13    1
    17    17    18    1
    18    18    20    1
    19    10     8   ar
    20    10    11   ar
    21    12    11    1
    22    13     3   am
    23     8     6   ar
    24     4     3    2
    25    11     9   ar
    26     3     2    1
    27     6     5    1
    28     6     7   ar
    29     9     7   ar
    30     5     2    1
    31     2     1    1
