@<TRIPOS>MOLECULE
7rnt_2AM_A_1.pdb
 22 24 0 0 0
SMALL
GASTEIGER

@<TRIPOS>ATOM
      1  P         20.0290   13.5830    1.1880 P.3   105  2AM105      0.5328
      2  O1P       19.8450   12.2050    1.7610 O.3   105  2AM105     -0.1145
      3  O2P       18.7530   14.3500    1.0860 O.2   105  2AM105     -0.2224
      4  O3P       21.1320   14.3320    1.8750 O.3   105  2AM105     -0.1145
      5  C5'       24.6550   14.2090   -2.2710 C.3   105  2AM105      0.0350
      6  C4'       23.2880   13.5930   -2.4950 C.3   105  2AM105      0.1523
      7  O4'       23.3060   12.2090   -2.0460 O.3   105  2AM105     -0.3162
      8  C3'       22.1840   14.2810   -1.7060 C.3   105  2AM105      0.2132
      9  O3'       21.0770   14.6010   -2.5530 O.3   105  2AM105     -0.2176
     10  C2'       21.8130   13.2390   -0.6480 C.3   105  2AM105      0.2313
     11  O2'       20.4560   13.3380   -0.3230 O.3   105  2AM105     -0.2630
     12  C1'       22.0830   11.9490   -1.4090 C.3   105  2AM105      0.3158
     13  N9        22.2440   10.7280   -0.6140 N.pl3 105  2AM105     -0.1439
     14  C8        22.9820   10.5100    0.5110 C.3   105  2AM105      0.3377
     15  N7        22.9370    9.2710    0.9440 N.2   105  2AM105     -0.2095
     16  C5        22.1260    8.6230    0.0380 C.2   105  2AM105      0.2526
     17  C6        21.6860    7.2850   -0.0450 C.2   105  2AM105      0.4393
     18  N6        22.0380    6.3520    0.8510 N.pl3 105  2AM105      0.2180
     19  N1        20.8760    6.9480   -1.0830 N.2   105  2AM105      0.0021
     20  C2        20.5410    7.9000   -1.9720 C.3   105  2AM105      0.5254
     21  N3        20.8930    9.1960   -1.9890 N.2   105  2AM105     -0.0055
     22  C4        21.6960    9.4970   -0.9440 C.2   105  2AM105      0.3518
@<TRIPOS>BOND
     1     9     8    1
     2     6     5    1
     3     6     7    1
     4     6     8    1
     5     7    12    1
     6    21    20    1
     7    21    22    2
     8    20    19    1
     9     8    10    1
    10    12    10    1
    11    12    13    1
    12    19    17    2
    13    22    13    1
    14    22    16    1
    15    10    11    1
    16    13    14    1
    17    11     1    1
    18    17    16    1
    19    17    18    1
    20    16    15    2
    21    14    15    1
    22     3     1    2
    23     1     2    1
    24     1     4    1
