@<TRIPOS>MOLECULE
7tln_INC_A_1.pdb
 14 13 0 0 0
SMALL
GASTEIGER

@<TRIPOS>ATOM
      1  CA1       51.2410   20.0930   -3.9190 C.3   322  INC322      0.0561
      2  C1        51.8810   19.8090   -5.2450 C.2   322  INC322      0.0683
      3  O1        51.7040   20.4170   -6.3590 O.2   322  INC322     -0.5413
      4  N2        52.5800   18.7720   -5.1430 N.am  322  INC322     -0.2759
      5  OH2       53.2330   18.3760   -6.2530 O.3   322  INC322     -0.4194
      6  CA2       52.7560   18.0530   -3.8130 C.3   322  INC322      0.1780
      7  CB2       53.8070   18.7230   -2.9630 C.3   322  INC322      0.0318
      8  CG2       53.7010   18.3710   -1.4820 C.3   322  INC322      0.0022
      9  CD1       52.3270   18.5990   -0.7610 C.3   322  INC322      0.0001
     10  CD2       54.8120   19.1990   -0.9090 C.3   322  INC322      0.0001
     11  C2        53.2760   16.6130   -3.9640 C.2   322  INC322      0.3358
     12  O2        54.4870   16.5200   -3.7020 O.2   322  INC322     -0.2482
     13  O3        52.4140   15.5780   -4.4500 O.3   322  INC322     -0.4433
     14  C3        53.0120   14.2330   -4.4720 C.3   322  INC322      0.2557
@<TRIPOS>BOND
     1     3     2    2
     2     5     4    1
     3     2     4   am
     4     2     1    1
     5     4     6    1
     6    14    13    1
     7    13    11    1
     8    11     6    1
     9    11    12    2
    10     6     7    1
    11     7     8    1
    12     8    10    1
    13     8     9    1
