@<TRIPOS>MOLECULE
7upj_INU_A_1.pdb
 34 38 0 0 0
SMALL
GASTEIGER

@<TRIPOS>ATOM
      1  CA        12.9630   24.1000    5.3730 C.3   100  INU100      0.1639
      2  CA2       12.5940   22.8440    5.9470 C.2   100  INU100      0.3244
      3  OA2       11.4470   22.5440    6.0220 O.2   100  INU100     -0.2496
      4  OA3       13.4860   21.9770    6.4690 O.3   100  INU100     -0.4476
      5  CA4       14.8300   22.4030    6.4230 C.3   100  INU100      0.1899
      6  CA5       15.2710   23.6230    5.8890 C.2   100  INU100      0.0303
      7  CA6       14.3120   24.4820    5.3550 C.2   100  INU100      0.1791
      8  OA6       14.7250   25.6750    4.8300 O.2   100  INU100     -0.2913
      9  CB1       11.2720   25.8560    5.9360 C.ar  100  INU100     -0.0202
     10  CB2       12.0820   26.4400    6.9430 C.ar  100  INU100     -0.0042
     11  CB3       11.4870   27.2460    7.9300 C.ar  100  INU100      0.0011
     12  CB4       10.1100   27.4950    7.9530 C.ar  100  INU100      0.0180
     13  CB5        9.2800   26.9260    6.9500 C.ar  100  INU100      0.0907
     14  CB6        9.8720   26.1000    5.9490 C.ar  100  INU100      0.0138
     15  CG1       11.9100   25.0510    4.8330 C.3   100  INU100      0.0403
     16  CG2       10.9340   24.3880    3.8370 C.3   100  INU100      0.0050
     17  CG3       11.3620   24.2700    2.3830 C.3   100  INU100      0.0004
     18  CG4       10.2150   25.1970    2.7750 C.3   100  INU100      0.0004
     19  CD1       15.7680   21.3830    7.0500 C.3   100  INU100      0.0481
     20  CD2       15.9780   21.5560    8.5390 C.3   100  INU100      0.0041
     21  CD3       16.2140   22.9870    8.9940 C.3   100  INU100      0.0001
     22  CD4       17.4920   23.6590    8.4420 C.3   100  INU100      0.0003
     23  CD5       17.3020   24.6280    7.2520 C.3   100  INU100      0.0046
     24  CD6       16.7370   24.0090    5.9090 C.3   100  INU100      0.0284
     25  N          7.8910   27.2770    6.9080 N.pl3 100  INU100     -0.0966
     26  S          7.5030   28.6780    6.0930 S.O2  100  INU100      0.0928
     27  O1         6.1590   28.9700    6.5430 O.2   100  INU100     -0.1483
     28  O2         8.5110   29.6400    6.4390 O.2   100  INU100     -0.1483
     29  CE1        7.4840   28.2200    4.4120 C.ar  100  INU100      0.1270
     30  CE2        6.3970   27.4300    3.9370 C.ar  100  INU100      0.0202
     31  CE3        6.3680   27.0320    2.6040 C.ar  100  INU100      0.0014
     32  CE4        7.4070   27.4080    1.7260 C.ar  100  INU100      0.0001
     33  CE5        8.4890   28.1860    2.1890 C.ar  100  INU100      0.0014
     34  CE6        8.5390   28.5960    3.5280 C.ar  100  INU100      0.0202
@<TRIPOS>BOND
     1    32    33   ar
     2    32    31   ar
     3    33    34   ar
     4    17    18    1
     5    17    16    1
     6    31    30   ar
     7    18    16    1
     8    34    29   ar
     9    16    15    1
    10    30    29   ar
    11    29    26    1
    12     8     7    1
    13    15     1    1
    14    15     9    1
    15     7     1    1
    16     7     6    2
    17     1     2    1
    18     6    24    1
    19     6     5    1
    20    24    23    1
    21     9    14   ar
    22     9    10   ar
    23     2     3    2
    24     2     4    1
    25    14    13   ar
    26    26    28    2
    27    26    27    2
    28    26    25    1
    29     5     4    1
    30     5    19    1
    31    25    13    1
    32    10    11   ar
    33    13    12   ar
    34    19    20    1
    35    23    22    1
    36    11    12   ar
    37    22    21    1
    38    20    21    1
