@<TRIPOS>MOLECULE
821p_GNP_A_1.pdb
 45 47 0 0 0
SMALL
GASTEIGER

@<TRIPOS>ATOM
      1  PG         5.0810   32.0530   21.9020 P.3   167  GNP167      0.4710
      2  O1G        4.8660   32.6250   23.2280 O.3   167  GNP167     -0.1250
      3  O2G        4.1340   32.5730   20.9490 O.2   167  GNP167     -0.2347
      4  O3G        4.6410   30.5110   21.9330 O.3   167  GNP167     -0.1250
      5  N3B        6.6570   32.1580   21.4800 N.3   167  GNP167     -0.1200
      6  PB         7.2810   31.8080   19.9940 P.3   167  GNP167      0.4495
      7  O1B        7.4390   30.3600   19.7450 O.3   167  GNP167     -0.1263
      8  O2B        6.6630   32.5360   18.8710 O.2   167  GNP167     -0.2367
      9  O3A        8.7740   32.3780   20.0480 O.3   167  GNP167     -0.2370
     10  PA         9.2120   33.9020   19.5510 P.3   167  GNP167      0.2213
     11  O1A        9.2140   33.9900   18.0540 O.2   167  GNP167     -0.5170
     12  O2A        8.4850   34.9490   20.3170 O.3   167  GNP167     -0.4371
     13  O5'       10.7200   33.8790   20.0580 O.3   167  GNP167     -0.3245
     14  C5'       11.0720   33.5600   21.4110 C.3   167  GNP167      0.0836
     15  C4'       12.4820   34.0560   21.7320 C.3   167  GNP167      0.1131
     16  O4'       13.4730   33.3210   20.9610 O.3   167  GNP167     -0.3474
     17  C3'       12.6330   35.5600   21.3590 C.3   167  GNP167      0.1133
     18  O3'       13.5490   36.2430   22.2610 O.3   167  GNP167     -0.3864
     19  C2'       13.2250   35.4370   19.9390 C.3   167  GNP167      0.1266
     20  O2'       14.0350   36.5560   19.5450 O.3   167  GNP167     -0.3849
     21  C1'       14.1480   34.2180   20.0710 C.3   167  GNP167      0.1617
     22  N9        14.3700   33.5460   18.7640 N.pl3 167  GNP167     -0.2241
     23  C8        13.4210   33.1000   17.8750 C.2   167  GNP167      0.1451
     24  N7        13.8830   32.4300   16.8950 N.2   167  GNP167     -0.3865
     25  C5        15.2440   32.4450   17.0900 C.2   167  GNP167      0.2296
     26  C6        16.2640   31.8780   16.3020 C.2   167  GNP167      0.2859
     27  O6        16.1430   31.2800   15.2290 O.2   167  GNP167     -0.2668
     28  N1        17.5210   32.0820   16.8800 N.am  167  GNP167     -0.2418
     29  C2        17.7660   32.7830   18.0390 C.2   167  GNP167      0.2395
     30  N2        19.0420   32.8980   18.4210 N.pl3 167  GNP167     -0.3206
     31  N3        16.7890   33.3400   18.7620 N.2   167  GNP167     -0.3551
     32  C4        15.5640   33.1320   18.2310 C.2   167  GNP167      0.2272
     33 HNB3        6.8670   33.1380   21.6080 H     167  GNP167      0.1458
     34 H5'2       10.3640   34.0760   22.0600 H     167  GNP167      0.0591
     35 H5'1       10.9980   32.4910   21.6090 H     167  GNP167      0.0591
     36  H4'       12.6780   33.9310   22.7970 H     167  GNP167      0.0647
     37  H3'       11.6680   36.0700   21.3790 H     167  GNP167      0.0647
     38 HO3'       13.2170   36.1320   23.1540 H     167  GNP167      0.2100
     39  H2'       12.4040   35.2260   19.2490 H     167  GNP167      0.0663
     40 HO2'       13.4430   37.2800   19.3240 H     167  GNP167      0.2101
     41  H1'       15.0970   34.5490   20.4850 H     167  GNP167      0.0841
     42  H8        12.3590   33.3100   17.9990 H     167  GNP167      0.1149
     43  HN1       18.2990   31.6480   16.4200 H     167  GNP167      0.1589
     44 HN21       19.2700   33.4050   19.2630 H     167  GNP167      0.1459
     45 HN22       19.7860   32.4810   17.8770 H     167  GNP167      0.1459
@<TRIPOS>BOND
     1    27    26    2
     2    26    28   am
     3    26    25    1
     4    43    28    1
     5    28    29    1
     6    24    25    2
     7    24    23    2
     8    25    32    1
     9    23    42    1
    10    23    22    1
    11    45    30    1
    12    29    30    1
    13    29    31    2
    14    11    10    2
    15    32    31    2
    16    32    22    1
    17    30    44    1
    18    22    21    1
    19     8     6    2
    20    39    19    1
    21    40    20    1
    22    20    19    1
    23    10     9    1
    24    10    13    1
    25    10    12    1
    26     7     6    1
    27    19    21    1
    28    19    17    1
    29     6     9    1
    30     6     5    1
    31    13    14    1
    32    21    41    1
    33    21    16    1
    34     3     1    2
    35    16    15    1
    36    17    37    1
    37    17    15    1
    38    17    18    1
    39    14    35    1
    40    14    15    1
    41    14    34    1
    42     5    33    1
    43     5     1    1
    44    15    36    1
    45     1     4    1
    46     1     2    1
    47    18    38    1
