@<TRIPOS>MOLECULE
830c_RS1_A_1.pdb
 48 50 0 0 0
SMALL
GASTEIGER

@<TRIPOS>ATOM
      1  C1        -7.5670   27.8520   49.3020 C.ar    1  RS11       -0.0399
      2  C2        -8.8400   27.6210   48.8430 C.ar    1  RS11        0.0412
      3  C3        -9.7960   26.8980   49.5520 C.ar    1  RS11       -0.0399
      4  C4        -9.4490   26.3890   50.7850 C.ar    1  RS11       -0.0180
      5  C5        -8.1740   26.5880   51.2560 C.ar    1  RS11        0.1285
      6  C6        -7.2200   27.3250   50.5210 C.ar    1  RS11       -0.0180
      7  O11       -7.9490   25.9670   52.4690 O.3     1  RS11       -0.4560
      8  C12       -7.3430   26.6340   53.4810 C.ar    1  RS11        0.1285
      9  C13       -6.8690   25.8010   54.4830 C.ar    1  RS11       -0.0175
     10  C14       -6.2710   26.3220   55.6000 C.ar    1  RS11       -0.0334
     11  C15       -6.1960   27.7030   55.7310 C.ar    1  RS11        0.0884
     12  C16       -6.6340   28.5470   54.7140 C.ar    1  RS11       -0.0334
     13  C17       -7.2090   28.0220   53.5770 C.ar    1  RS11       -0.0175
     14  S22       -5.5190   28.4130   57.2150 S.O2    1  RS11       -0.0021
     15  O23       -5.5820   27.5070   58.3390 O.2     1  RS11       -0.1693
     16  O24       -6.2980   29.6010   57.3620 O.2     1  RS11       -0.1693
     17  C25       -3.8780   28.9410   56.7980 C.3     1  RS11        0.0849
     18  C26       -2.6760   27.9890   57.0640 C.3     1  RS11        0.0726
     19  C29       -2.6850   27.4130   58.5200 C.3     1  RS11       -0.0138
     20  C30       -1.3450   26.8280   58.9610 C.3     1  RS11        0.0487
     21  O31       -0.3120   27.8030   58.7340 O.3     1  RS11       -0.3797
     22  C32       -0.1380   28.1300   57.3600 C.3     1  RS11        0.0487
     23  C33       -1.3990   28.8550   56.8740 C.3     1  RS11       -0.0138
     24  C40       -2.6820   26.8850   55.9850 C.2     1  RS11        0.2433
     25  N41       -2.7380   25.5740   56.2570 N.am    1  RS11       -0.1970
     26  O42       -2.5940   27.1550   54.7780 O.2     1  RS11       -0.2731
     27  O43       -2.5310   24.7710   55.1030 O.3     1  RS11       -0.2952
     28 CL2        -9.3060   28.2050   47.3000 Cl      1  RS11       -0.0835
     29  H1        -6.8310   28.3840   48.7190 H       1  RS11        0.0633
     30  H3       -10.7890   26.7210   49.1550 H       1  RS11        0.0633
     31  H4       -10.1590   25.8230   51.3680 H       1  RS11        0.0655
     32  H6        -6.2240   27.4830   50.8900 H       1  RS11        0.0655
     33  H13       -6.9600   24.7240   54.3960 H       1  RS11        0.0655
     34  H14       -5.8960   25.6480   56.3610 H       1  RS11        0.0638
     35  H16       -6.5200   29.6190   54.8150 H       1  RS11        0.0638
     36  H17       -7.5390   28.6930   52.8100 H       1  RS11        0.0655
     37 H251       -3.7430   29.7730   57.4760 H       1  RS11        0.0514
     38 H252       -3.8740   29.3970   55.8160 H       1  RS11        0.0514
     39 H291       -3.4330   26.6600   58.6530 H       1  RS11        0.0298
     40 H292       -2.9360   28.2030   59.2100 H       1  RS11        0.0298
     41 H301       -1.3580   26.5430   60.0040 H       1  RS11        0.0560
     42 H302       -1.1300   25.9060   58.4320 H       1  RS11        0.0560
     43 H321        0.1040   27.2410   56.7950 H       1  RS11        0.0560
     44 H322        0.7370   28.7590   57.2840 H       1  RS11        0.0560
     45 H331       -1.4560   29.7510   57.4800 H       1  RS11        0.0298
     46 H332       -1.2680   29.2100   55.8620 H       1  RS11        0.0298
     47  HN        -3.0870   25.1880   57.1340 H       1  RS11        0.1822
     48  HO        -2.7900   23.8550   55.3840 H       1  RS11        0.2414
@<TRIPOS>BOND
     1    28     2    1
     2    29     1    1
     3     2     1   ar
     4     2     3   ar
     5    30     3    1
     6     1     6   ar
     7     3     4   ar
     8     6    32    1
     9     6     5   ar
    10     4     5   ar
    11     4    31    1
    12     5     7    1
    13     7     8    1
    14    36    13    1
    15     8    13   ar
    16     8     9   ar
    17    13    12   ar
    18    33     9    1
    19     9    10   ar
    20    12    35    1
    21    12    11   ar
    22    26    24    2
    23    27    48    1
    24    27    25    1
    25    10    11   ar
    26    10    34    1
    27    11    14    1
    28    38    17    1
    29    46    23    1
    30    24    25   am
    31    24    18    1
    32    25    47    1
    33    43    22    1
    34    17    18    1
    35    17    14    1
    36    17    37    1
    37    23    18    1
    38    23    22    1
    39    23    45    1
    40    18    19    1
    41    14    16    2
    42    14    15    2
    43    44    22    1
    44    22    21    1
    45    42    20    1
    46    19    39    1
    47    19    20    1
    48    19    40    1
    49    21    20    1
    50    20    41    1
