@<TRIPOS>MOLECULE
8a3h_IDC_A_1.pdb
 25 27 0 0 0
SMALL
GASTEIGER

@<TRIPOS>ATOM
      1  C1A       60.7210   46.8410   36.9070 C.3   500  IDC500      0.2695
      2  C2A       61.0520   48.2560   36.5130 C.3   500  IDC500      0.2406
      3  C3A       60.4620   49.2150   37.5340 C.3   500  IDC500      0.2198
      4  C4A       58.9580   48.9890   37.6380 C.3   500  IDC500      0.2144
      5  C5A       58.7260   47.5060   38.0050 C.3   500  IDC500      0.1835
      6  C6A       57.2960   47.0880   38.0840 C.3   500  IDC500      0.2142
      7  O2A       62.4950   48.3600   36.4680 O.3   500  IDC500     -0.2149
      8  O3A       60.6970   50.5800   37.1370 O.3   500  IDC500     -0.2174
      9  O4A       58.4120   49.8290   38.6670 O.3   500  IDC500     -0.2176
     10  O5A       59.3050   46.6870   36.9510 O.3   500  IDC500     -0.3256
     11  O6A       56.6540   47.2650   36.8140 O.3   500  IDC500     -0.2176
     12  C1B       61.6240   41.9130   36.4280 C.ar  500  IDC500      0.1538
     13  C2B       60.5480   42.3120   35.4530 C.3   500  IDC500      0.2404
     14  C3B       60.6870   43.7830   35.0390 C.3   500  IDC500      0.2183
     15  C4B       61.1990   44.5900   36.2520 C.3   500  IDC500      0.1742
     16  C5B       62.6230   44.1860   36.5810 C.3   500  IDC500      0.1493
     17  C6B       63.2620   44.9630   37.7590 C.3   500  IDC500      0.2071
     18  O2B       60.4970   41.4310   34.3250 O.3   500  IDC500     -0.2121
     19  O3B       59.4320   44.2030   34.6000 O.3   500  IDC500     -0.2172
     20  O4B       61.1810   45.9910   35.8830 O.3   500  IDC500     -0.3263
     21  N1B       62.5550   42.7540   36.9350 N.ar  500  IDC500     -0.3083
     22  O6B       62.4410   44.8280   38.9460 O.3   500  IDC500     -0.2182
     23  N2B       61.7790   40.7160   36.9890 N.ar  500  IDC500     -0.2266
     24  C7B       62.8540   40.7640   37.8690 C.ar  500  IDC500      0.1189
     25  C8B       63.3150   42.0400   37.8410 C.ar  500  IDC500      0.0979
@<TRIPOS>BOND
     1    18    13    1
     2    19    14    1
     3    14    13    1
     4    14    15    1
     5    13    12    1
     6    20    15    1
     7    20     1    1
     8    15    16    1
     9    12    21   ar
    10    12    23   ar
    11     7     2    1
    12     2     1    1
    13     2     3    1
    14    16    21    1
    15    16    17    1
    16    11     6    1
    17     1    10    1
    18    21    25   ar
    19    10     5    1
    20    23    24   ar
    21     8     3    1
    22     3     4    1
    23     4     5    1
    24     4     9    1
    25    17    22    1
    26    25    24   ar
    27     5     6    1
