@<TRIPOS>MOLECULE
8aat_PLP_A_1.pdb
 15 15 0 0 0
SMALL
GASTEIGER

@<TRIPOS>ATOM
      1  N1         7.4100   -1.0970   11.5960 N.2   411  PLP411     -0.2505
      2  C2         8.0560   -1.1290   10.4090 C.2   411  PLP411      0.0675
      3  C2A        7.7120   -2.2540    9.4610 C.3   411  PLP411      0.0499
      4  C3         8.9880   -0.1020   10.1670 C.3   411  PLP411      0.1913
      5  O3         9.6120   -0.1610    8.9680 O.3   411  PLP411     -0.2167
      6  C4         9.2410    0.8960   11.0960 C.3   411  PLP411      0.0581
      7  C4A        9.8770    2.1390   10.7230 C.3   411  PLP411      0.0075
      8  C5         8.5130    0.8210   12.3070 C.2   411  PLP411      0.0073
      9  C6         7.6090   -0.1700   12.5410 C.2   411  PLP411      0.0921
     10  C5A        8.6610    1.8590   13.4150 C.3   411  PLP411      0.1776
     11  O4P        9.7870    2.6820   13.3460 O.3   411  PLP411     -0.2656
     12  P          9.9720    3.9740   14.2670 P.3   411  PLP411      0.5329
     13  O1P        8.7830    4.7890   14.0420 O.3   411  PLP411     -0.1145
     14  O2P       11.2840    4.5680   13.8830 O.2   411  PLP411     -0.2224
     15  O3P        9.9730    3.4300   15.7350 O.3   411  PLP411     -0.1145
@<TRIPOS>BOND
     1     5     4    1
     2     3     2    1
     3     4     2    1
     4     4     6    1
     5     2     1    2
     6     7     6    1
     7     6     8    1
     8     1     9    1
     9     8     9    2
    10     8    10    1
    11    11    10    1
    12    11    12    1
    13    14    12    2
    14    13    12    1
    15    12    15    1
