@<TRIPOS>MOLECULE
8abp_GAL_A_1.pdb
 12 12 0 0 0
SMALL
GASTEIGER

@<TRIPOS>ATOM
      1  C1        14.2510   56.4930   55.0380 C.3   308  GAL308      0.3024
      2  C2        12.8510   57.0690   54.7330 C.3   308  GAL308      0.2434
      3  C3        12.3730   56.3420   53.6570 C.3   308  GAL308      0.2199
      4  C4        13.2730   56.3920   52.3470 C.3   308  GAL308      0.2144
      5  C5        14.6900   56.0110   52.7680 C.3   308  GAL308      0.1836
      6  C6        15.7230   56.2850   51.6840 C.3   308  GAL308      0.2142
      7  O1        14.8070   57.1910   56.0980 O.3   308  GAL308     -0.1869
      8  O2        11.9730   56.8460   55.8490 O.3   308  GAL308     -0.2148
      9  O3        10.9950   56.6440   53.1580 O.3   308  GAL308     -0.2174
     10  O4        13.2180   57.7300   51.8090 O.3   308  GAL308     -0.2176
     11  O5        15.0850   56.8240   53.8990 O.3   308  GAL308     -0.3236
     12  O6        17.0180   55.7880   52.0510 O.3   308  GAL308     -0.2176
@<TRIPOS>BOND
     1     6    12    1
     2     6     5    1
     3    10     4    1
     4     4     5    1
     5     4     3    1
     6     5    11    1
     7     9     3    1
     8     3     2    1
     9    11     1    1
    10     2     1    1
    11     2     8    1
    12     1     7    1
