@<TRIPOS>MOLECULE
8abp_GLA_A_1.pdb
 12 12 0 0 0
SMALL
GASTEIGER

@<TRIPOS>ATOM
      1  C1        14.3120   56.8460   55.1160 C.3   307  GLA307      0.3024
      2  C2        12.8730   57.1400   54.7490 C.3   307  GLA307      0.2434
      3  C3        12.3730   56.2560   53.6260 C.3   307  GLA307      0.2199
      4  C4        13.3340   56.3640   52.4010 C.3   307  GLA307      0.2144
      5  C5        14.7350   56.0540   52.8460 C.3   307  GLA307      0.1836
      6  C6        15.6850   56.3570   51.6840 C.3   307  GLA307      0.2142
      7  O1        14.4010   55.5650   55.6850 O.3   307  GLA307     -0.1869
      8  O2        12.0230   56.9890   55.9270 O.3   307  GLA307     -0.2148
      9  O3        11.0680   56.6300   53.2440 O.3   307  GLA307     -0.2174
     10  O4        13.1840   57.6940   51.7930 O.3   307  GLA307     -0.2176
     11  O5        15.1350   56.8820   53.9220 O.3   307  GLA307     -0.3236
     12  O6        16.8900   55.7810   52.0740 O.3   307  GLA307     -0.2176
@<TRIPOS>BOND
     1     6    12    1
     2     6     5    1
     3    10     4    1
     4     4     5    1
     5     4     3    1
     6     5    11    1
     7     9     3    1
     8     3     2    1
     9    11     1    1
    10     2     1    1
    11     2     8    1
    12     1     7    1
