@<TRIPOS>MOLECULE
8acn_NIC_A_1.pdb
 13 12 0 0 0
SMALL
GASTEIGER

@<TRIPOS>ATOM
      1  C1        35.4250   34.7760   69.9560 C.2   755  NIC755      0.3968
      2  O1        35.3280   36.0110   70.0430 O.co2 755  NIC755     -0.2428
      3  O2        34.8870   34.1870   69.0170 O.co2 755  NIC755     -0.2428
      4  C2        36.2810   33.9420   70.9550 C.3   755  NIC755      0.2816
      5  C3        35.7450   34.1780   72.4070 C.3   755  NIC755      0.2187
      6  O7        36.4460   32.5570   70.6350 O.3   755  NIC755     -0.2086
      7  C4        36.6340   33.9480   73.5720 C.3   755  NIC755      0.1468
      8  C5        37.8090   34.8360   73.2970 C.2   755  NIC755      0.3671
      9  O3        37.8770   36.0730   73.0770 O.co2 755  NIC755     -0.2456
     10  O4        38.8830   34.2060   73.3250 O.co2 755  NIC755     -0.2456
     11  N6        34.3000   33.9290   72.6530 N.pl3 755  NIC755      0.0361
     12  O5        33.4330   33.9580   71.7680 O.2   755  NIC755     -0.1309
     13  O6        33.8590   33.6510   73.7490 O.2   755  NIC755     -0.1309
@<TRIPOS>BOND
     1     3     1   ar
     2     1     2   ar
     3     1     4    1
     4     6     4    1
     5     4     5    1
     6    12    11    2
     7     5    11    1
     8     5     7    1
     9    11    13    2
    10     9     8   ar
    11     8    10   ar
    12     8     7    1
