@<TRIPOS>MOLECULE
8at1_CTP_B_1.pdb
 29 30 0 0 0
SMALL
GASTEIGER

@<TRIPOS>ATOM
      1  N1        13.3940   82.8170   26.6620 N.am  155  CTP155     -0.1778
      2  C2        14.1870   83.6850   27.2870 C.1   155  CTP155      0.2756
      3  N3        14.5760   84.8980   26.9100 N.2   155  CTP155     -0.3024
      4  C4        14.1260   85.2830   25.7200 C.2   155  CTP155      0.2346
      5  C5        13.2770   84.4730   24.9860 C.2   155  CTP155      0.0687
      6  C6        12.9440   83.2350   25.5040 C.2   155  CTP155      0.0836
      7  O2        14.6300   83.4070   28.3810 O.2   155  CTP155     -0.1925
      8  N4        14.5300   86.4290   25.1650 N.pl3 155  CTP155     -0.0921
      9  C1'       13.2090   81.4280   27.1290 C.3   155  CTP155      0.2400
     10  C2'       12.0800   81.4290   28.0810 C.3   155  CTP155      0.2319
     11  O2'       12.6910   81.4540   29.3760 O.3   155  CTP155     -0.2157
     12  C3'       11.2830   80.1680   27.7830 C.3   155  CTP155      0.2158
     13  C4'       12.0110   79.5470   26.6000 C.3   155  CTP155      0.1799
     14  O4'       12.8880   80.5260   26.0740 O.3   155  CTP155     -0.3320
     15  O3'       11.3440   79.2050   28.8390 O.3   155  CTP155     -0.2175
     16  C5'       11.0550   79.0890   25.5210 C.3   155  CTP155      0.1813
     17  O5'       10.6860   80.1860   24.7010 O.3   155  CTP155     -0.3112
     18  PA         9.2170   80.8920   24.9680 P.3   155  CTP155      0.2189
     19  O1A        9.4640   82.4450   25.1100 O.3   155  CTP155     -0.4371
     20  O2A        8.3030   80.5520   23.7210 O.2   155  CTP155     -0.5170
     21  O3A        8.5540   80.3830   26.3920 O.3   155  CTP155     -0.2700
     22  PB         7.4600   79.1920   26.0980 P.3   155  CTP155      0.2277
     23  O1B        6.3700   79.6760   25.0630 O.2   155  CTP155     -0.5168
     24  O2B        6.7840   78.8260   27.4780 O.3   155  CTP155     -0.4368
     25  O3B        8.2540   77.8940   25.4590 O.3   155  CTP155     -0.2258
     26  PG         7.4530   76.5040   25.8150 P.3   155  CTP155      0.5373
     27  O1G        5.9020   76.7940   25.7430 O.3   155  CTP155     -0.1143
     28  O2G        7.8910   76.0770   27.2710 O.3   155  CTP155     -0.1143
     29  O3G        7.8740   75.4060   24.7550 O.2   155  CTP155     -0.2221
@<TRIPOS>BOND
     1    20    18    2
     2    17    18    1
     3    17    16    1
     4    29    26    2
     5    18    19    1
     6    18    21    1
     7     5     6    2
     8     5     4    1
     9    23    22    2
    10     8     4    1
    11    25    26    1
    12    25    22    1
    13     6     1    1
    14    16    13    1
    15     4     3    2
    16    27    26    1
    17    26    28    1
    18    14    13    1
    19    14     9    1
    20    22    21    1
    21    22    24    1
    22    13    12    1
    23     1     9    1
    24     1     2   am
    25     3     2    2
    26     9    10    1
    27     2     7    2
    28    12    10    1
    29    12    15    1
    30    10    11    1
