@<TRIPOS>MOLECULE
8atc_PAL_A_1.pdb
 16 15 0 0 0
SMALL
GASTEIGER

@<TRIPOS>ATOM
      1  P         68.4100   49.7510   64.1640 P.3   311  PAL311      0.1264
      2  O1P       67.8750   49.7140   62.7830 O.2   311  PAL311     -0.4596
      3  O2P       69.2610   48.6080   64.4780 O.3   311  PAL311     -0.3568
      4  O3P       67.2330   49.6840   65.2410 O.3   311  PAL311     -0.3568
      5  C1P       69.2570   51.3090   64.5020 C.3   311  PAL311      0.1454
      6  C1        68.4210   52.4910   64.1610 C.2   311  PAL311      0.2492
      7  O1        67.3560   52.6890   64.8280 O.2   311  PAL311     -0.2728
      8  N2        68.6460   53.1320   63.0560 N.am  311  PAL311     -0.1946
      9  C2        68.1090   54.3180   62.5270 C.3   311  PAL311      0.2090
     10  C4        66.7570   54.2120   61.8890 C.2   311  PAL311      0.3848
     11  O2        66.1700   53.1060   61.9070 O.co2 311  PAL311     -0.2437
     12  O3        66.1400   55.2610   61.6960 O.co2 311  PAL311     -0.2437
     13  C3        69.0420   54.9350   61.4400 C.3   311  PAL311      0.1472
     14  C5        69.3910   54.0460   60.2770 C.2   311  PAL311      0.3672
     15  O4        70.3290   54.4860   59.5300 O.co2 311  PAL311     -0.2456
     16  O5        68.5000   53.1830   59.9610 O.co2 311  PAL311     -0.2456
@<TRIPOS>BOND
     1    15    14   ar
     2    16    14   ar
     3    14    13    1
     4    13     9    1
     5    12    10   ar
     6    10    11   ar
     7    10     9    1
     8     9     8    1
     9     2     1    2
    10     8     6   am
    11     6     5    1
    12     6     7    2
    13     1     3    1
    14     1     5    1
    15     1     4    1
