@<TRIPOS>MOLECULE
8cat_NDP_A_1.pdb
 48 52 0 0 0
SMALL
GASTEIGER

@<TRIPOS>ATOM
      1  PA        33.4020   11.5840   33.4520 P.3   508  NDP508      0.2189
      2  O1A       33.5270   11.5490   34.9440 O.3   508  NDP508     -0.4371
      3  O2A       34.0780   12.7250   32.8640 O.2   508  NDP508     -0.5170
      4  O5B       31.7810   11.6010   33.2080 O.3   508  NDP508     -0.3112
      5  C5B       31.0240   10.3990   33.7060 C.3   508  NDP508      0.1813
      6  C4B       29.8370   10.2620   32.7910 C.3   508  NDP508      0.1820
      7  O4B       28.7310    9.5100   33.3630 O.3   508  NDP508     -0.3136
      8  C3B       29.2120   11.5160   32.3290 C.3   508  NDP508      0.2157
      9  O3B       29.4610   12.4780   31.4810 O.3   508  NDP508     -0.2175
     10  C2B       28.0900   11.6730   33.3650 C.3   508  NDP508      0.2314
     11  O2B       27.1170   12.5840   32.6470 O.3   508  NDP508     -0.2630
     12  C1B       27.4330   10.3270   33.2140 C.3   508  NDP508      0.3158
     13  N9A       26.5840    9.5370   34.0610 N.pl3 508  NDP508     -0.1439
     14  C8A       26.4600    9.5020   35.4190 C.3   508  NDP508      0.3377
     15  N7A       25.6520    8.5550   35.8720 N.2   508  NDP508     -0.2095
     16  C5A       25.2580    7.8860   34.7420 C.2   508  NDP508      0.2526
     17  C6A       24.3970    6.7810   34.5470 C.2   508  NDP508      0.4393
     18  N6A       23.7460    6.1420   35.5170 N.pl3 508  NDP508      0.2180
     19  N1A       24.1970    6.3740   33.2660 N.2   508  NDP508      0.0021
     20  C2A       24.8250    7.0520   32.2490 C.3   508  NDP508      0.5254
     21  N3A       25.6280    8.0800   32.3290 N.2   508  NDP508     -0.0055
     22  C4A       25.8170    8.4550   33.6190 C.2   508  NDP508      0.3518
     23  O3        33.7210   10.1910   32.7480 O.3   508  NDP508     -0.2703
     24  PN        34.6750    9.6080   31.6770 P.3   508  NDP508      0.2189
     25  O1N       35.9420    9.1340   32.3350 O.3   508  NDP508     -0.4371
     26  O2N       34.9490   10.4420   30.5210 O.2   508  NDP508     -0.5170
     27  O5D       33.8510    8.2460   31.2260 O.3   508  NDP508     -0.3112
     28  C5D       33.9980    7.1260   32.1430 C.3   508  NDP508      0.1813
     29  C4D       32.7570    6.2820   32.1100 C.3   508  NDP508      0.1799
     30  O4D       31.5980    7.1250   32.2290 O.3   508  NDP508     -0.3327
     31  C3D       32.5700    5.4410   30.8280 C.3   508  NDP508      0.2158
     32  O3D       32.9250    4.1000   31.2100 O.3   508  NDP508     -0.2175
     33  C2D       31.0810    5.5160   30.5610 C.3   508  NDP508      0.2309
     34  O2D       30.4120    4.2890   30.8670 O.3   508  NDP508     -0.2158
     35  C1D       30.5560    6.6610   31.4080 C.3   508  NDP508      0.2263
     36  N1N       30.0850    7.7680   30.5840 N.pl3 508  NDP508     -0.2787
     37  C2N       30.9750    8.3110   29.7090 C.3   508  NDP508      0.1244
     38  C3N       30.5740    9.3460   28.8880 C.2   508  NDP508      0.0544
     39  C7N       31.4780   10.0310   27.8210 C.2   508  NDP508      0.2818
     40  O7N       31.0740   10.8840   27.0250 O.2   508  NDP508     -0.2670
     41  N7N       32.7560    9.5960   27.8070 N.am  508  NDP508     -0.0839
     42  C4N       29.2670    9.8680   28.9210 C.2   508  NDP508      0.0033
     43  C5N       28.4540    9.2810   29.8760 C.2   508  NDP508      0.0157
     44  C6N       28.7710    8.2490   30.7280 C.2   508  NDP508      0.0633
     45  P2B       26.1550   13.7700   33.5040 P.3   508  NDP508      0.5328
     46  O1X       26.9360   14.0620   34.7420 O.3   508  NDP508     -0.1145
     47  O2X       24.6970   13.6580   33.8920 O.3   508  NDP508     -0.1145
     48  O3X       26.3470   14.7480   32.3850 O.2   508  NDP508     -0.2224
@<TRIPOS>BOND
     1    40    39    2
     2    41    39   am
     3    39    38    1
     4    38    42    2
     5    38    37    1
     6    42    43    1
     7    37    36    1
     8    43    44    2
     9    26    24    2
    10    33    31    1
    11    33    34    1
    12    33    35    1
    13    36    44    1
    14    36    35    1
    15    31    32    1
    16    31    29    1
    17    27    24    1
    18    27    28    1
    19    35    30    1
    20     9     8    1
    21    24    25    1
    22    24    23    1
    23    29    28    1
    24    29    30    1
    25    20    21    1
    26    20    19    1
    27     8     6    1
    28     8    10    1
    29    21    22    2
    30    48    45    2
    31    11    10    1
    32    11    45    1
    33    23     1    1
    34     6     7    1
    35     6     5    1
    36     3     1    2
    37     4     1    1
    38     4     5    1
    39    12     7    1
    40    12    10    1
    41    12    13    1
    42    19    17    2
    43     1     2    1
    44    45    47    1
    45    45    46    1
    46    22    13    1
    47    22    16    1
    48    13    14    1
    49    17    16    1
    50    17    18    1
    51    16    15    2
    52    14    15    1
