@<TRIPOS>MOLECULE
8cat_HEM_A_1.pdb
 43 50 0 0 0
SMALL
GASTEIGER

@<TRIPOS>ATOM
      1  CHA       13.8360    4.6570   14.9480 C.2   507  HEM507      0.0000
      2  CHB       16.6210    1.2840   12.8610 C.2   507  HEM507      0.0000
      3  CHC       20.1330    2.1570   16.2170 C.2   507  HEM507      0.0000
      4  CHD       17.7720    6.1240   17.3900 C.2   507  HEM507      0.0000
      5  C1A       14.2830    3.6040   14.1490 C.ar  507  HEM507      0.0000
      6  C2A       13.4560    2.9290   13.1940 C.ar  507  HEM507      0.0000
      7  C3A       14.2300    2.0110   12.5940 C.ar  507  HEM507      0.0000
      8  C4A       15.5490    2.1140   13.1520 C.ar  507  HEM507      0.0000
      9  CMA       13.8430    1.0770   11.4030 C.3   507  HEM507      0.0000
     10  CAA       12.0230    3.3670   12.8480 C.2   507  HEM507      0.0000
     11  CBA       11.8090    4.6230   12.0680 C.2   507  HEM507      0.0000
     12  CGA       10.5800    5.0970   11.4380 C.2   507  HEM507      0.0000
     13  O1A        9.6130    4.3510   11.1390 O.co2 507  HEM507      0.0000
     14  O2A       10.3980    6.2970   11.0640 O.co2 507  HEM507      0.0000
     15  C1B       17.8310    1.2390   13.5760 C.2   507  HEM507      0.0000
     16  C2B       18.9950    0.5040   13.1400 C.2   507  HEM507      0.0000
     17  C3B       19.9780    0.8070   14.0010 C.2   507  HEM507      0.0000
     18  C4B       19.4480    1.6610   15.0400 C.2   507  HEM507      0.0000
     19  CMB       19.0040   -0.3020   11.8050 C.3   507  HEM507      0.0000
     20  CAB       21.3980    0.2280   13.9760 C.2   507  HEM507      0.0000
     21  CBB       21.6870   -0.5950   12.9130 C.2   507  HEM507      0.0000
     22  C1C       19.9030    3.4130   17.0650 C.ar  507  HEM507      0.0000
     23  C2C       20.7670    4.1460   17.8260 C.ar  507  HEM507      0.0000
     24  C3C       20.0410    5.2580   18.0860 C.ar  507  HEM507      0.0000
     25  C4C       18.7860    5.1700   17.3380 C.ar  507  HEM507      0.0000
     26  CMC       22.1560    3.6910   18.1780 C.3   507  HEM507      0.0000
     27  CAC       20.4730    6.5020   18.9000 C.2   507  HEM507      0.0000
     28  CBC       21.7210    6.9820   18.6770 C.2   507  HEM507      0.0000
     29  C1D       16.4780    6.0610   16.9250 C.2   507  HEM507      0.0000
     30  C2D       15.3640    6.9380   17.2580 C.2   507  HEM507      0.0000
     31  C3D       14.3060    6.5060   16.5540 C.2   507  HEM507      0.0000
     32  C4D       14.7250    5.3850   15.7610 C.2   507  HEM507      0.0000
     33  CMD       15.4290    8.1090   18.2230 C.3   507  HEM507      0.0000
     34  CAD       12.8770    7.0790   16.5580 C.3   507  HEM507      0.0000
     35  CBD       12.5660    7.9920   15.3640 C.3   507  HEM507      0.0000
     36  CGD       11.4500    8.9330   15.7390 C.2   507  HEM507      0.0000
     37  O1D       11.4740    9.2150   16.9450 O.co2 507  HEM507      0.0000
     38  O2D       10.7330    9.3160   14.7850 O.co2 507  HEM507      0.0000
     39  NA        15.5920    3.0960   14.1240 N.ar  507  HEM507      0.0000
     40  NB        18.0890    1.8720   14.7600 N.2   507  HEM507      0.0000
     41  NC        18.8540    3.9240   16.5060 N.ar  507  HEM507      0.0000
     42  ND        16.0770    5.0840   16.0410 N.2   507  HEM507      0.0000
     43 FE         17.0750    3.4820   15.4280 Fe    507  HEM507      0.0000
@<TRIPOS>BOND
     1    14    12   ar
     2    13    12   ar
     3     9     7    1
     4    12    11    1
     5    19    16    1
     6    11    10    2
     7     7     8   ar
     8     7     6   ar
     9    10     6    1
    10     2     8    2
    11     2    15    1
    12    21    20    2
    13    16    15    1
    14    16    17    2
    15     8    39   ar
    16     6     5   ar
    17    15    40    2
    18    20    17    1
    19    17    18    1
    20    39     5   ar
    21    39    43    1
    22     5     1    2
    23    40    18    1
    24    40    43    1
    25    38    36   ar
    26     1    32    1
    27    18     3    2
    28    35    36    1
    29    35    34    1
    30    43    42    1
    31    43    41    1
    32    36    37   ar
    33    32    42    2
    34    32    31    1
    35    42    29    1
    36     3    22    1
    37    41    22   ar
    38    41    25   ar
    39    31    34    1
    40    31    30    2
    41    29    30    1
    42    29     4    2
    43    22    23   ar
    44    30    33    1
    45    25     4    1
    46    25    24   ar
    47    23    24   ar
    48    23    26    1
    49    24    27    1
    50    28    27    2
