@<TRIPOS>MOLECULE
8cpa_AGF_A_1.pdb
 32 33 0 0 0
SMALL
GASTEIGER

@<TRIPOS>ATOM
      1  C1        46.7100   17.1130   40.5290 C.2   309  AGF309      0.4218
      2  O1        46.7610   16.1530   41.2350 O.2   309  AGF309     -0.2245
      3  O1A       47.2090   18.2740   40.8520 O.3   309  AGF309     -0.4285
      4  CB1       47.9000   18.4490   42.0590 C.3   309  AGF309      0.2368
      5  CG1       48.5500   19.7190   42.0950 C.ar  309  AGF309      0.0213
      6  CDB       48.0700   20.7140   42.8680 C.ar  309  AGF309     -0.0007
      7  CDL       49.6350   19.9250   41.3260 C.ar  309  AGF309     -0.0007
      8  CEB       48.6810   21.9170   42.8770 C.ar  309  AGF309     -0.0002
      9  CEL       50.2430   21.1270   41.3340 C.ar  309  AGF309     -0.0002
     10  CZ1       49.7670   22.1270   42.1030 C.ar  309  AGF309     -0.0000
     11  C2        44.9570   19.1400   38.9360 C.2   309  AGF309      0.2619
     12  O2        43.8560   18.9480   39.3440 O.2   309  AGF309     -0.2715
     13  CA2       45.8600   18.1140   38.4590 C.3   309  AGF309      0.1762
     14  CB2       45.3150   17.6400   37.1060 C.3   309  AGF309      0.0335
     15  N2        46.1190   17.0230   39.3400 N.am  309  AGF309     -0.1611
     16  CA3       44.6690   21.5380   39.2050 C.3   309  AGF309      0.2322
     17  N3        45.4030   20.4330   38.8030 N.am  309  AGF309     -0.1907
     18  P3        44.0300   22.5200   38.0000 P.3   309  AGF309      0.3915
     19  O1P       42.8040   21.8510   37.3320 O.2   309  AGF309     -0.2536
     20  O2P       43.8180   23.8440   38.7850 O.3   309  AGF309     -0.1382
     21  O3P       45.2180   22.9160   36.9320 O.3   309  AGF309     -0.2821
     22  CA4       44.8320   23.5220   35.6680 C.3   309  AGF309      0.2305
     23  C4        44.6070   22.3510   34.8640 C.2   309  AGF309      0.3922
     24  O41       45.2630   21.3640   34.9840 O.co2 309  AGF309     -0.2429
     25  O42       43.6360   22.4110   33.9860 O.co2 309  AGF309     -0.2429
     26  CB4       45.9910   24.1600   34.9060 C.3   309  AGF309      0.0681
     27  CG4       45.7090   24.8210   33.6600 C.ar  309  AGF309     -0.0191
     28  CDE       45.1190   26.0360   33.6430 C.ar  309  AGF309     -0.0042
     29  CDO       46.0030   24.2090   32.4940 C.ar  309  AGF309     -0.0042
     30  CEE       44.8530   26.6560   32.4720 C.ar  309  AGF309     -0.0003
     31  CEO       45.7290   24.8190   31.3240 C.ar  309  AGF309     -0.0003
     32  CZ4       45.1500   26.0400   31.3020 C.ar  309  AGF309     -0.0000
@<TRIPOS>BOND
     1    32    31   ar
     2    32    30   ar
     3    31    29   ar
     4    30    28   ar
     5    29    27   ar
     6    28    27   ar
     7    27    26    1
     8    25    23   ar
     9    23    24   ar
    10    23    22    1
    11    26    22    1
    12    22    21    1
    13    21    18    1
    14    14    13    1
    15    19    18    2
    16    18    20    1
    17    18    16    1
    18    13    11    1
    19    13    15    1
    20    17    11   am
    21    17    16    1
    22    11    12    2
    23    15     1   am
    24     1     3    1
    25     1     2    2
    26     3     4    1
    27     7     9   ar
    28     7     5   ar
    29     9    10   ar
    30     4     5    1
    31     5     6   ar
    32    10     8   ar
    33     6     8   ar
