@<TRIPOS>MOLECULE
8cpp_TCM_A_1.pdb
 11 12 0 0 0
SMALL
GASTEIGER

@<TRIPOS>ATOM
      1  C1        46.1050   44.2190   13.0320 C.3   422  TCM422      0.0212
      2  C2        46.9940   45.4950   13.1100 C.2   422  TCM422     -0.0093
      3  C3        47.4380   45.6200   14.5900 C.3   422  TCM422      0.0290
      4  C4        46.7470   44.3560   15.2050 C.3   422  TCM422      0.0049
      5  C5        45.1940   44.6420   15.3060 C.3   422  TCM422      0.0007
      6  C6        44.7530   44.5540   13.7950 C.3   422  TCM422      0.0043
      7  C7        46.8470   43.2700   14.0720 C.3   422  TCM422      0.0040
      8  C8        48.2680   42.8010   13.7100 C.3   422  TCM422      0.0003
      9  C9        46.2170   41.8870   14.3350 C.3   422  TCM422      0.0003
     10  C10       45.8040   43.6720   11.6660 C.3   422  TCM422      0.0046
     11  S2        47.3290   46.2430   12.1970 S.2   422  TCM422     -0.0600
@<TRIPOS>BOND
     1    10     1    1
     2    11     2    2
     3     1     2    1
     4     1     6    1
     5     1     7    1
     6     2     3    1
     7     8     7    1
     8     6     5    1
     9     7     9    1
    10     7     4    1
    11     3     4    1
    12     4     5    1
