@<TRIPOS>MOLECULE
8cpp_HEM_A_1.pdb
 43 50 0 0 0
SMALL
GASTEIGER

@<TRIPOS>ATOM
      1 FE         48.3440   46.2820    8.7700 Fe    417  HEM417      0.0000
      2  CHA       45.2860   44.9160    8.6320 C.2   417  HEM417      0.0000
      3  CHB       49.7730   43.0780    9.1750 C.2   417  HEM417      0.0000
      4  CHC       51.4190   47.6260    9.3140 C.2   417  HEM417      0.0000
      5  CHD       46.9350   49.3820    9.3250 C.2   417  HEM417      0.0000
      6  NA        47.6670   44.4020    8.9780 N.ar  417  HEM417      0.0000
      7  C1A       46.3540   44.0270    8.6800 C.ar  417  HEM417      0.0000
      8  C2A       46.2630   42.5990    8.7440 C.ar  417  HEM417      0.0000
      9  C3A       47.4730   42.0930    8.9730 C.ar  417  HEM417      0.0000
     10  C4A       48.3910   43.2350    9.0530 C.ar  417  HEM417      0.0000
     11  CMA       47.9280   40.6330    8.9840 C.3   417  HEM417      0.0000
     12  CAA       44.9210   41.8190    8.6420 C.2   417  HEM417      0.0000
     13  CBA       44.3490   41.3260    9.9440 C.2   417  HEM417      0.0000
     14  CGA       43.0780   40.4950    9.8610 C.2   417  HEM417      0.0000
     15  O1A       42.7680   39.9710    8.7660 O.co2 417  HEM417      0.0000
     16  O2A       42.6260   40.2490   10.9980 O.co2 417  HEM417      0.0000
     17  NB        50.2450   45.4970    9.2740 N.2   417  HEM417      0.0000
     18  C1B       50.6030   44.1810    9.2110 C.2   417  HEM417      0.0000
     19  C2B       52.0800   44.1180    9.1930 C.2   417  HEM417      0.0000
     20  C3B       52.5380   45.3630    9.2540 C.2   417  HEM417      0.0000
     21  C4B       51.3600   46.2560    9.2740 C.2   417  HEM417      0.0000
     22  CMB       52.8510   42.8070    9.1240 C.3   417  HEM417      0.0000
     23  CAB       53.9520   45.9370    9.1460 C.2   417  HEM417      0.0000
     24  CBB       55.0580   45.2640    9.2350 C.2   417  HEM417      0.0000
     25  NC        49.0440   48.1370    9.2930 N.ar  417  HEM417      0.0000
     26  C1C       50.3660   48.5000    9.4140 C.ar  417  HEM417      0.0000
     27  C2C       50.4670   49.9360    9.4630 C.ar  417  HEM417      0.0000
     28  C3C       49.2270   50.4060    9.5320 C.ar  417  HEM417      0.0000
     29  C4C       48.3100   49.2520    9.5130 C.ar  417  HEM417      0.0000
     30  CMC       51.8000   50.7440    9.4650 C.3   417  HEM417      0.0000
     31  CAC       48.7260   51.8720    9.5710 C.2   417  HEM417      0.0000
     32  CBC       48.4140   52.3590   10.7650 C.2   417  HEM417      0.0000
     33  ND        46.4510   47.0050    8.9920 N.2   417  HEM417      0.0000
     34  C1D       46.0960   48.3360    9.0180 C.2   417  HEM417      0.0000
     35  C2D       44.6680   48.4400    8.8250 C.2   417  HEM417      0.0000
     36  C3D       44.2030   47.2050    8.6610 C.2   417  HEM417      0.0000
     37  C4D       45.3140   46.2760    8.7870 C.2   417  HEM417      0.0000
     38  CMD       43.9270   49.7980    8.7490 C.3   417  HEM417      0.0000
     39  CAD       42.7410   46.7480    8.4690 C.3   417  HEM417      0.0000
     40  CBD       42.1300   46.6300    7.1220 C.3   417  HEM417      0.0000
     41  CGD       40.6720   46.0980    7.1630 C.2   417  HEM417      0.0000
     42  O1D       40.0480   46.3140    6.1590 O.co2 417  HEM417      0.0000
     43  O2D       40.3270   45.4070    8.1640 O.co2 417  HEM417      0.0000
@<TRIPOS>BOND
     1    42    41   ar
     2    40    41    1
     3    40    39    1
     4    41    43   ar
     5    39    36    1
     6     2     7    2
     7     2    37    1
     8    12     8    1
     9    12    13    2
    10    36    37    1
    11    36    35    2
    12     7     8   ar
    13     7     6   ar
    14     8     9   ar
    15    38    35    1
    16    15    14   ar
    17     1     6    1
    18     1    33    1
    19     1    17    1
    20     1    25    1
    21    37    33    2
    22    35    34    1
    23     9    11    1
    24     9    10   ar
    25     6    10   ar
    26    33    34    1
    27    34     5    2
    28    10     3    2
    29    22    19    1
    30    23    24    2
    31    23    20    1
    32     3    18    1
    33    19    18    1
    34    19    20    2
    35    18    17    2
    36    20    21    1
    37    17    21    1
    38    21     4    2
    39    25    26   ar
    40    25    29   ar
    41     4    26    1
    42     5    29    1
    43    26    27   ar
    44    27    30    1
    45    27    28   ar
    46    29    28   ar
    47    28    31    1
    48    31    32    2
    49    14    13    1
    50    14    16   ar
