@<TRIPOS>MOLECULE
8dfr_NDP_A_1.pdb
 48 52 0 0 0
SMALL
GASTEIGER

@<TRIPOS>ATOM
      1  PA        21.7800    5.1700   17.9110 P.3   191  NDP191      0.2189
      2  O1A       21.0430    3.9280   18.1340 O.3   191  NDP191     -0.4371
      3  O2A       21.1600    6.3240   17.1590 O.2   191  NDP191     -0.5170
      4  O5B       22.2150    5.9080   19.3610 O.3   191  NDP191     -0.3112
      5  C5B       22.6730    4.9470   20.3930 C.3   191  NDP191      0.1813
      6  C4B       22.2540    5.6060   21.7360 C.3   191  NDP191      0.1820
      7  O4B       21.0080    5.6460   21.7860 O.3   191  NDP191     -0.3136
      8  C3B       22.6750    4.5380   22.8970 C.3   191  NDP191      0.2157
      9  O3B       24.0580    5.0420   23.2000 O.3   191  NDP191     -0.2175
     10  C2B       21.6230    5.0040   23.9240 C.3   191  NDP191      0.2314
     11  O2B       21.8220    6.2810   24.3930 O.3   191  NDP191     -0.2630
     12  C1B       20.4060    5.1040   22.9720 C.3   191  NDP191      0.3158
     13  N9A       19.7650    3.8290   22.7410 N.pl3 191  NDP191     -0.1439
     14  C8A       19.8890    3.1100   21.6040 C.3   191  NDP191      0.3377
     15  N7A       19.1020    2.0640   21.5820 N.2   191  NDP191     -0.2095
     16  C5A       18.4810    2.1760   22.8870 C.2   191  NDP191      0.2526
     17  C6A       17.4580    1.3050   23.6750 C.2   191  NDP191      0.4393
     18  N6A       16.9940    0.1740   23.1420 N.pl3 191  NDP191      0.2180
     19  N1A       17.0530    1.7460   24.8700 N.2   191  NDP191      0.0021
     20  C2A       17.6080    2.8900   25.2890 C.3   191  NDP191      0.5254
     21  N3A       18.4980    3.6890   24.7340 N.2   191  NDP191     -0.0055
     22  C4A       18.8990    3.2490   23.5150 C.2   191  NDP191      0.3518
     23  O3        23.2340    4.9990   17.3500 O.3   191  NDP191     -0.2703
     24  PN        23.9550    4.2050   16.1800 P.3   191  NDP191      0.2189
     25  O1N       23.6510    2.8340   16.1220 O.2   191  NDP191     -0.5170
     26  O2N       25.3790    4.4940   16.2920 O.3   191  NDP191     -0.4371
     27  O5D       23.4340    4.9900   14.8600 O.3   191  NDP191     -0.3112
     28  C5D       23.7300    6.3310   14.4990 C.3   191  NDP191      0.1813
     29  C4D       24.5290    6.1660   13.2020 C.3   191  NDP191      0.1799
     30  O4D       23.6510    5.4430   12.2450 O.3   191  NDP191     -0.3327
     31  C3D       24.9360    7.4900   12.4790 C.3   191  NDP191      0.2158
     32  O3D       26.1080    7.2340   11.6580 O.3   191  NDP191     -0.2175
     33  C2D       23.6140    7.7090   11.6480 C.3   191  NDP191      0.2309
     34  O2D       23.9640    8.5380   10.5440 O.3   191  NDP191     -0.2158
     35  C1D       23.3670    6.3200   11.1160 C.3   191  NDP191      0.2263
     36  N1N       21.9290    6.0400   10.6280 N.pl3 191  NDP191     -0.2787
     37  C2N       21.7200    5.3800    9.3840 C.3   191  NDP191      0.1244
     38  C3N       20.4750    5.0380    9.0360 C.2   191  NDP191      0.0544
     39  C7N       20.3000    4.4110    7.6920 C.2   191  NDP191      0.2818
     40  O7N       19.1730    4.0340    7.4080 O.2   191  NDP191     -0.2670
     41  N7N       21.3990    4.1890    6.9350 N.am  191  NDP191     -0.0839
     42  C4N       19.2450    5.1830    9.9770 C.2   191  NDP191      0.0033
     43  C5N       19.6590    5.8230   11.2770 C.2   191  NDP191      0.0157
     44  C6N       20.9020    6.1610   11.5650 C.2   191  NDP191      0.0633
     45  P2B       22.5540    6.5340   25.9240 P.3   191  NDP191      0.5328
     46  O1X       22.3600    7.9720   26.1340 O.3   191  NDP191     -0.1145
     47  O2X       21.8560    5.4970   26.6850 O.3   191  NDP191     -0.1145
     48  O3X       23.9770    6.1630   25.6150 O.2   191  NDP191     -0.2224
@<TRIPOS>BOND
     1    41    39   am
     2    40    39    2
     3    39    38    1
     4    38    37    1
     5    38    42    2
     6    37    36    1
     7    42    43    1
     8    34    33    1
     9    36    35    1
    10    36    44    1
    11    35    33    1
    12    35    30    1
    13    43    44    2
    14    33    31    1
    15    32    31    1
    16    30    29    1
    17    31    29    1
    18    29    28    1
    19    28    27    1
    20    27    24    1
    21    25    24    2
    22    24    26    1
    23    24    23    1
    24     3     1    2
    25    23     1    1
    26     1     2    1
    27     1     4    1
    28     4     5    1
    29     5     6    1
    30    15    14    1
    31    15    16    2
    32    14    13    1
    33     6     7    1
    34     6     8    1
    35     7    12    1
    36    13    12    1
    37    13    22    1
    38    16    22    1
    39    16    17    1
    40     8     9    1
    41     8    10    1
    42    12    10    1
    43    18    17    1
    44    22    21    2
    45    17    19    2
    46    10    11    1
    47    11    45    1
    48    21    20    1
    49    19    20    1
    50    48    45    2
    51    45    46    1
    52    45    47    1
