@<TRIPOS>MOLECULE
8est_GIS_E_1.pdb
 19 19 0 0 0
SMALL
GASTEIGER

@<TRIPOS>ATOM
      1  C1        -6.6560   22.4880   38.6100 C.2   269  GIS269      0.2340
      2  O1        -5.7050   22.3220   39.3940 O.2   269  GIS269     -0.2832
      3  C2        -6.9120   21.5560   37.6130 C.ar  269  GIS269      0.0428
      4  C3        -5.8290   20.9920   36.9930 C.ar  269  GIS269      0.0401
      5  C4        -6.0240   20.1020   35.9180 C.ar  269  GIS269      0.1593
      6  C6        -7.3240   19.7160   35.5720 C.ar  269  GIS269      0.0368
      7  C7        -8.4370   20.2660   36.2530 C.ar  269  GIS269      0.0006
      8  C8        -8.2250   21.2010   37.2520 C.ar  269  GIS269      0.0066
      9  C9        -9.4560   21.7240   37.9500 C.3   269  GIS269      0.2004
     10  C10       -9.9950   23.0150   37.3580 C.2   269  GIS269      0.3362
     11  O2        -9.5740   23.4000   36.2550 O.2   269  GIS269     -0.2484
     12  O3       -10.7460   23.7450   38.1960 O.3   269  GIS269     -0.4474
     13  C11      -11.2710   24.9870   37.7220 C.3   269  GIS269      0.2086
     14  C12      -11.4420   25.9220   38.8950 C.3   269  GIS269      0.0513
     15  N1        -4.9370   19.6060   35.2070 N.pl3 269  GIS269     -0.0605
     16  C5        -3.9320   20.4380   34.7860 C.cat 269  GIS269      0.5393
     17  N2        -2.8200   19.9610   34.1560 N.pl3 269  GIS269      0.1358
     18  N3        -4.2440   21.7340   34.5200 N.pl3 269  GIS269      0.1358
     19 CL        -10.7500   20.6060   38.2050 Cl    269  GIS269     -0.0981
@<TRIPOS>BOND
     1    17    16    1
     2    18    16    1
     3    16    15    2
     4    15     5    1
     5     6     5   ar
     6     6     7   ar
     7     5     4   ar
     8     7     8   ar
     9    11    10    2
    10     4     3   ar
    11     8     3   ar
    12     8     9    1
    13    10     9    1
    14    10    12    1
    15     3     1    1
    16    13    12    1
    17    13    14    1
    18     9    19    1
    19     1     2    2
