@<TRIPOS>MOLECULE
8gch_III_C_1.pdb
 24 25 0 0 0
SMALL
GASTEIGER

@<TRIPOS>ATOM
      1  N         32.2860    1.8820   43.2060 N.3   250  GLY250     -0.1210
      2  CA        32.3650    1.0860   41.9690 C.3   250  GLY250      0.1956
      3  C         31.5380    1.7350   40.8640 C.2   250  GLY250      0.2612
      4  O         30.6210    2.5270   41.1520 O.2   250  GLY250     -0.2717
      5  N         31.8730    1.3760   39.6480 N.am  251  ALA251     -0.1965
      6  CA        31.2120    1.8500   38.4310 C.3   251  ALA251      0.1728
      7  C         29.7780    1.3170   38.4420 C.2   251  ALA251      0.2617
      8  O         29.5260    0.1520   38.7800 O.2   251  ALA251     -0.2715
      9  CB        31.9690    1.3740   37.2030 C.3   251  ALA251      0.0334
     10  N         28.8740    2.2010   38.0560 N.am  252  TRP252     -0.1938
     11  CA        27.4290    1.8000   38.0400 C.3   252  TRP252      0.2018
     12  C         27.1140    1.2230   36.6840 C.2   252  TRP252      0.3845
     13  O         25.9180    1.2300   36.2810 O.co2 252  TRP252     -0.2437
     14  CB        26.6050    2.9550   38.5710 C.3   252  TRP252      0.0575
     15  CG        26.5840    2.9620   40.0710 C.2   252  TRP252     -0.0136
     16  CD1       26.9330    1.8970   40.8680 C.2   252  TRP252      0.0907
     17  CD2       26.1680    4.0100   40.9490 C.3   252  TRP252      0.0819
     18  NE1       26.7740    2.2350   42.1940 N.2   252  TRP252     -0.2482
     19  CE2       26.2940    3.5180   42.2660 C.2   252  TRP252      0.0665
     20  CE3       25.7040    5.3050   40.7610 C.2   252  TRP252     -0.0164
     21  CZ2       25.9800    4.2590   43.4070 C.2   252  TRP252      0.0153
     22  CZ3       25.3880    6.0580   41.8780 C.2   252  TRP252     -0.0038
     23  CH2       25.5160    5.5600   43.1850 C.2   252  TRP252      0.0009
     24  OXT       28.0910    0.7540   36.0460 O.co2 252  TRP252     -0.2437
@<TRIPOS>BOND
     1    24    12   ar
     2    13    12   ar
     3    12    11    1
     4     9     6    1
     5    11    10    1
     6    11    14    1
     7    10     7   am
     8     6     7    1
     9     6     5    1
    10     7     8    2
    11    14    15    1
    12     5     3   am
    13    15    16    2
    14    15    17    1
    15    20    17    1
    16    20    22    2
    17     3     4    2
    18     3     2    1
    19    16    18    1
    20    17    19    1
    21    22    23    1
    22     2     1    1
    23    18    19    2
    24    19    21    1
    25    23    21    2
