@<TRIPOS>MOLECULE
8gpb_PLP_A_1.pdb
 15 15 0 0 0
SMALL
GASTEIGER

@<TRIPOS>ATOM
      1  N1        24.7880   25.5820   30.1570 N.ar  999  PLP999     -0.2452
      2  C2        23.6710   24.8990   30.3850 C.ar  999  PLP999      0.0978
      3  C2A       22.6670   25.3680   31.4200 C.3   999  PLP999      0.0555
      4  C3        23.4250   23.7260   29.7990 C.ar  999  PLP999      0.2049
      5  O3        22.3070   23.0650   30.1690 O.3   999  PLP999     -0.2857
      6  C4        24.3230   23.2420   28.8460 C.ar  999  PLP999      0.0182
      7  C4A       24.0880   21.9400   28.1680 C.3   999  PLP999      0.0342
      8  C5        25.4170   23.9960   28.5200 C.ar  999  PLP999      0.0261
      9  C6        25.6510   25.1650   29.1610 C.ar  999  PLP999      0.0965
     10  C5A       26.3660   23.6060   27.4250 C.3   999  PLP999      0.1815
     11  O4P       25.9640   24.3160   26.2240 O.3   999  PLP999     -0.2653
     12  P         27.0320   24.6610   25.1090 P.3   999  PLP999      0.5329
     13  O1P       27.6950   23.3780   24.8080 O.3   999  PLP999     -0.1145
     14  O2P       26.2760   25.1990   23.9690 O.2   999  PLP999     -0.2224
     15  O3P       27.9050   25.6470   25.7530 O.3   999  PLP999     -0.1145
@<TRIPOS>BOND
     1    14    12    2
     2    13    12    1
     3    12    15    1
     4    12    11    1
     5    11    10    1
     6    10     8    1
     7     7     6    1
     8     8     6   ar
     9     8     9   ar
    10     6     4   ar
    11     9     1   ar
    12     4     5    1
    13     4     2   ar
    14     1     2   ar
    15     2     3    1
