@<TRIPOS>MOLECULE
8gpb_AMP_A_1.pdb
 23 25 0 0 0
SMALL
GASTEIGER

@<TRIPOS>ATOM
      1  P         31.1120    1.9730   51.2100 P.3   930  AMP930      0.5327
      2  O1P       32.3750    1.2580   51.2420 O.3   930  AMP930     -0.1145
      3  O2P       30.6820    2.4470   49.8470 O.2   930  AMP930     -0.2224
      4  O3P       31.1330    3.1420   52.1560 O.3   930  AMP930     -0.1145
      5  O5'       30.0490    0.9560   51.8310 O.3   930  AMP930     -0.2675
      6  C5'       29.5220   -0.1750   51.0700 C.3   930  AMP930      0.1860
      7  C4'       28.2040   -0.8740   51.6510 C.3   930  AMP930      0.1823
      8  O4'       28.5290   -2.3020   51.6600 O.3   930  AMP930     -0.3135
      9  C3'       27.7830   -0.6400   53.0620 C.3   930  AMP930      0.2184
     10  O3'       26.8320    0.4460   53.1210 O.3   930  AMP930     -0.2174
     11  C2'       27.0570   -1.9970   53.3820 C.3   930  AMP930      0.2570
     12  O2'       25.8840   -2.2770   52.6140 O.3   930  AMP930     -0.2130
     13  C1'       28.0570   -2.9710   52.8390 C.3   930  AMP930      0.3186
     14  N9        29.2200   -3.1970   53.7270 N.pl3 930  AMP930     -0.1439
     15  C8        30.3640   -2.4050   53.8760 C.3   930  AMP930      0.3377
     16  N7        31.2240   -2.7410   54.7850 N.2   930  AMP930     -0.2095
     17  C5        30.5860   -3.8780   55.2940 C.2   930  AMP930      0.2526
     18  C6        30.9850   -4.7110   56.3420 C.2   930  AMP930      0.4393
     19  N6        32.1450   -4.3900   56.9790 N.pl3 930  AMP930      0.2180
     20  N1        30.1560   -5.7330   56.6900 N.2   930  AMP930      0.0021
     21  C2        29.0360   -5.9130   55.9610 C.3   930  AMP930      0.5254
     22  N3        28.5210   -5.1670   54.9700 N.2   930  AMP930     -0.0055
     23  C4        29.3570   -4.1400   54.6990 C.2   930  AMP930      0.3518
@<TRIPOS>BOND
     1     3     1    2
     2     6     7    1
     3     6     5    1
     4     1     2    1
     5     1     5    1
     6     1     4    1
     7     7     8    1
     8     7     9    1
     9     8    13    1
    10    12    11    1
    11    13    11    1
    12    13    14    1
    13     9    10    1
    14     9    11    1
    15    14    15    1
    16    14    23    1
    17    15    16    1
    18    23    22    2
    19    23    17    1
    20    16    17    2
    21    22    21    1
    22    17    18    1
    23    21    20    1
    24    18    20    2
    25    18    19    1
