@<TRIPOS>MOLECULE
8gss_GSH_A_1.pdb
 20 19 0 0 0
SMALL
GASTEIGER

@<TRIPOS>ATOM
      1  N1        20.6310    5.1150   19.0190 N.3   211  GSH211     -0.1208
      2  CA1       20.1640    6.2360   19.8770 C.3   211  GSH211      0.1948
      3  C1        21.2120    6.4270   20.9620 C.2   211  GSH211      0.3819
      4  O11       21.9010    5.4280   21.2430 O.co2 211  GSH211     -0.2441
      5  O12       21.3530    7.5580   21.4790 O.co2 211  GSH211     -0.2441
      6  CB1       18.7950    5.9080   20.4860 C.3   211  GSH211      0.0402
      7  CG1       18.2000    7.0270   21.3360 C.3   211  GSH211      0.0889
      8  CD1       16.7020    6.8770   21.5350 C.2   211  GSH211      0.2418
      9  OE1       16.1450    5.7880   21.3740 O.2   211  GSH211     -0.2733
     10  N2        16.0400    7.9770   21.8740 N.am  211  GSH211     -0.1968
     11  CA2       14.5980    7.9550   22.0750 C.3   211  GSH211      0.1843
     12  C2        13.9730    9.3030   21.7380 C.2   211  GSH211      0.2627
     13  O2        14.6670   10.3320   21.6900 O.2   211  GSH211     -0.2714
     14  CB2       14.2570    7.5680   23.5110 C.3   211  GSH211      0.0997
     15  SG2       14.8860    8.7110   24.7390 S.3   211  GSH211     -0.0797
     16  N3        12.6620    9.2750   21.5090 N.am  211  GSH211     -0.1917
     17  CA3       11.9310   10.4770   21.1680 C.3   211  GSH211      0.2285
     18  C3        11.4160   10.3580   19.7470 C.2   211  GSH211      0.3865
     19  O31       11.8670    9.4400   19.0280 O.co2 211  GSH211     -0.2437
     20  O32       10.5460   11.1670   19.3540 O.co2 211  GSH211     -0.2437
@<TRIPOS>BOND
     1     1     2    1
     2    19    18   ar
     3    20    18   ar
     4    18    17    1
     5     2     6    1
     6     2     3    1
     7     6     7    1
     8     3     4   ar
     9     3     5   ar
    10    17    16    1
    11     7     8    1
    12     9     8    2
    13    16    12   am
    14     8    10   am
    15    13    12    2
    16    12    11    1
    17    10    11    1
    18    11    14    1
    19    14    15    1
