@<TRIPOS>MOLECULE
8icd_ICT_A_1.pdb
 13 12 0 0 0
SMALL
GASTEIGER

@<TRIPOS>ATOM
      1  C1        85.2230   67.5940    3.4310 C.2   418  ICT418      0.3952
      2  O1        85.8160   66.9110    4.2310 O.co2 418  ICT418     -0.2428
      3  O2        84.6090   68.5900    3.8010 O.co2 418  ICT418     -0.2428
      4  C2        85.2330   67.2250    1.9640 C.3   418  ICT418      0.2651
      5  O7        84.7570   68.2690    1.1080 O.3   418  ICT418     -0.2103
      6  C3        84.2900   66.0430    1.7810 C.3   418  ICT418      0.1561
      7  C4        84.4060   65.3780    0.3890 C.3   418  ICT418      0.1285
      8  C5        85.7870   64.7120    0.2600 C.2   418  ICT418      0.3655
      9  O3        86.3890   64.7480   -0.8210 O.co2 418  ICT418     -0.2456
     10  O4        86.2250   64.1310    1.2820 O.co2 418  ICT418     -0.2456
     11  C6        82.8570   66.3930    2.1950 C.2   418  ICT418      0.3680
     12  O5        82.5060   66.1760    3.3520 O.co2 418  ICT418     -0.2455
     13  O6        82.1460   66.8930    1.3490 O.co2 418  ICT418     -0.2455
@<TRIPOS>BOND
     1     9     8   ar
     2     8     7    1
     3     8    10   ar
     4     7     6    1
     5     5     4    1
     6    13    11   ar
     7     6     4    1
     8     6    11    1
     9     4     1    1
    10    11    12   ar
    11     1     3   ar
    12     1     2   ar
