@<TRIPOS>MOLECULE
8icf_DTP_A_1.pdb
 13 12 0 0 0
SMALL
GASTEIGER

@<TRIPOS>ATOM
      1  PG        73.9070   35.4500   52.8210 P.3   338  DTP338      0.5373
      2  O1G       74.3060   35.4740   51.3940 O.2   338  DTP338     -0.2221
      3  O2G       74.8440   34.8170   53.7760 O.3   338  DTP338     -0.1143
      4  O3G       72.4200   34.8750   52.9680 O.3   338  DTP338     -0.1143
      5  PB        73.9820   38.2630   52.4540 P.3   338  DTP338      0.2317
      6  O1B       74.5850   39.2840   53.3420 O.3   338  DTP338     -0.4368
      7  O2B       74.7010   37.8400   51.2210 O.2   338  DTP338     -0.5167
      8  O3B       73.6780   36.9770   53.2800 O.3   338  DTP338     -0.2257
      9  PA        71.5410   38.1480   50.8500 P.3   338  DTP338      0.5373
     10  O1A       71.9080   36.7460   50.5390 O.3   338  DTP338     -0.1143
     11  O2A       70.1010   38.4590   51.1150 O.3   338  DTP338     -0.1143
     12  O3A       72.4590   38.6620   52.0490 O.3   338  DTP338     -0.2257
     13  O5'       72.0850   39.0790   49.6750 O.2   338  DTP338     -0.2221
@<TRIPOS>BOND
     1    13     9    2
     2    10     9    1
     3     9    11    1
     4     9    12    1
     5     7     5    2
     6     2     1    2
     7    12     5    1
     8     5     8    1
     9     5     6    1
    10     1     4    1
    11     1     8    1
    12     1     3    1
