@<TRIPOS>MOLECULE
8icl_DTP_A_1.pdb
 13 12 0 0 0
SMALL
GASTEIGER

@<TRIPOS>ATOM
      1  PG        73.9360   36.2730   53.3920 P.3   338  DTP338      0.5373
      2  O1G       74.5910   35.1860   52.6410 O.2   338  DTP338     -0.2221
      3  O2G       74.7490   37.0300   54.3950 O.3   338  DTP338     -0.1143
      4  O3G       72.6170   35.6950   54.0510 O.3   338  DTP338     -0.1143
      5  PB        73.4510   37.5590   50.7940 P.3   338  DTP338      0.2317
      6  O1B       73.7680   38.9860   50.5580 O.3   338  DTP338     -0.4368
      7  O2B       74.3760   36.5380   50.2460 O.2   338  DTP338     -0.5167
      8  O3B       73.2680   37.3310   52.3550 O.3   338  DTP338     -0.2257
      9  PA        71.1420   35.9620   49.8640 P.3   338  DTP338      0.5373
     10  O1A       71.8320   34.8250   50.5300 O.3   338  DTP338     -0.1143
     11  O2A       69.6880   36.1510   50.1430 O.3   338  DTP338     -0.1143
     12  O3A       71.9320   37.2930   50.2580 O.3   338  DTP338     -0.2257
     13  O5'       71.3900   35.9050   48.2930 O.2   338  DTP338     -0.2221
@<TRIPOS>BOND
     1    13     9    2
     2     9    11    1
     3     9    12    1
     4     9    10    1
     5     7     5    2
     6    12     5    1
     7     6     5    1
     8     5     8    1
     9     8     1    1
    10     2     1    2
    11     1     4    1
    12     1     3    1
