@<TRIPOS>MOLECULE
8icn_ATP_A_1.pdb
 11 11 0 0 0
SMALL
GASTEIGER

@<TRIPOS>ATOM
      1  PA        71.2930   34.5200   49.4400 P.3   337  ATP337      0.5327
      2  O1A       70.9660   33.1120   49.7930 O.3   337  ATP337     -0.1145
      3  O2A       70.1970   35.5400   49.4690 O.2   337  ATP337     -0.2224
      4  O3A       72.5180   34.9950   50.3410 O.3   337  ATP337     -0.1145
      5  O5'       72.1010   34.5080   48.0560 O.3   337  ATP337     -0.2676
      6  C5'       71.5490   34.8170   46.8050 C.3   337  ATP337      0.1831
      7  C4'       72.4070   35.8470   46.1280 C.3   337  ATP337      0.1454
      8  O4'       71.5450   36.8380   45.5260 O.3   337  ATP337     -0.3537
      9  C3'       73.3410   36.6100   47.0640 C.3   337  ATP337      0.0348
     10  C2'       72.7580   38.0280   47.0600 C.3   337  ATP337      0.0346
     11  C1'       72.0660   38.1040   45.7310 C.3   337  ATP337      0.1422
@<TRIPOS>BOND
     1     8    11    1
     2     8     7    1
     3    11    10    1
     4     7     6    1
     5     7     9    1
     6     6     5    1
     7    10     9    1
     8     5     1    1
     9     1     3    2
    10     1     2    1
    11     1     4    1
