@<TRIPOS>MOLECULE
8ico_AZT_A_1.pdb
 30 31 0 0 0
SMALL
GASTEIGER

@<TRIPOS>ATOM
      1  PA        70.9580   36.1670   50.8560 P.3   338  AZT338      0.2189
      2  O1A       71.5180   34.8010   50.9980 O.2   338  AZT338     -0.5170
      3  O2A       69.6430   36.4640   51.4630 O.3   338  AZT338     -0.4371
      4  O3A       72.0430   37.2340   51.3290 O.3   338  AZT338     -0.2700
      5  PB        73.6030   37.5540   50.9600 P.3   338  AZT338      0.2277
      6  O1B       73.6600   38.8930   50.3470 O.3   338  AZT338     -0.4368
      7  O2B       74.3030   36.4210   50.2820 O.2   338  AZT338     -0.5168
      8  O3B       74.1830   37.6750   52.4190 O.3   338  AZT338     -0.2258
      9  PG        74.4400   36.5720   53.5640 P.3   338  AZT338      0.5373
     10  O1G       73.9790   35.2610   53.0400 O.2   338  AZT338     -0.2221
     11  O2G       75.8600   36.7120   54.0160 O.3   338  AZT338     -0.1143
     12  O3G       73.3990   37.1420   54.6310 O.3   338  AZT338     -0.1143
     13  O5'       70.8860   36.5130   49.3130 O.3   338  AZT338     -0.3112
     14  C5'       71.1380   35.4680   48.4130 C.3   338  AZT338      0.1800
     15  C4'       71.0090   35.9720   47.0020 C.3   338  AZT338      0.1646
     16  O4'       69.7360   35.5470   46.4710 O.3   338  AZT338     -0.3351
     17  C3'       71.0710   37.5000   46.8890 C.3   338  AZT338      0.1272
     18  N3'       71.9510   38.0720   45.9860 N.3   338  AZT338     -0.1114
     19  N4'       72.7120   38.7190   45.1690 N.3   338  AZT338     -0.0204
     20  C2'       69.6310   37.8980   46.5340 C.3   338  AZT338      0.0736
     21  C1'       69.0830   36.6530   45.8730 C.3   338  AZT338      0.2078
     22  N1        67.5940   36.4770   46.0810 N.am  338  AZT338     -0.1794
     23  C2        66.5160   36.4710   45.1740 C.1   338  AZT338      0.2844
     24  O2        66.7110   36.0470   43.9860 O.2   338  AZT338     -0.1918
     25  N3        65.2800   36.8850   45.6250 N.2   338  AZT338     -0.2455
     26  C4        65.1080   37.3190   46.9050 C.1   338  AZT338      0.2134
     27  O4        63.8840   37.7250   47.3310 O.2   338  AZT338     -0.2088
     28  C5        66.1860   37.3500   47.8180 C.2   338  AZT338      0.0891
     29  C5A       65.8570   37.6780   49.2620 C.3   338  AZT338      0.0462
     30  C6        67.4330   36.9350   47.3920 C.2   338  AZT338      0.0877
@<TRIPOS>BOND
     1    24    23    2
     2    19    18    1
     3    23    25    2
     4    23    22   am
     5    25    26    2
     6    21    22    1
     7    21    16    1
     8    21    20    1
     9    18    17    1
    10    22    30    1
    11    16    15    1
    12    20    17    1
    13    17    15    1
    14    26    27    2
    15    26    28    1
    16    15    14    1
    17    30    28    2
    18    28    29    1
    19    14    13    1
    20    13     1    1
    21     7     5    2
    22     6     5    1
    23     1     2    2
    24     1     4    1
    25     1     3    1
    26     5     4    1
    27     5     8    1
    28     8     9    1
    29    10     9    2
    30     9    11    1
    31     9    12    1
