@<TRIPOS>MOLECULE
8ics_DCP_A_1.pdb
 15 13 0 0 0
SMALL
GASTEIGER

@<TRIPOS>ATOM
      1  O3'       71.1360   38.2440   45.7890 O.3   338  DCP338      0.0000
      2  C5'       70.2830   36.1240   47.4210 C.3   338  DCP338      0.1815
      3  O5'       71.2820   35.6170   48.2710 O.3   338  DCP338     -0.3112
      4  PA        71.0410   35.6530   49.8410 P.3   338  DCP338      0.2189
      5  O1A       71.7470   34.5190   50.4770 O.3   338  DCP338     -0.4371
      6  O2A       69.5970   35.8190   50.1340 O.2   338  DCP338     -0.5170
      7  O3A       71.8090   36.9990   50.2000 O.3   338  DCP338     -0.2700
      8  PB        73.3650   37.3660   50.5150 P.3   338  DCP338      0.2277
      9  O1B       73.5700   38.7720   50.0980 O.3   338  DCP338     -0.4368
     10  O2B       74.2850   36.3500   49.9370 O.2   338  DCP338     -0.5168
     11  O3B       73.4100   37.2410   52.1060 O.3   338  DCP338     -0.2258
     12  PG        74.1930   36.2110   53.0870 P.3   338  DCP338      0.5373
     13  O1G       75.0030   35.3200   52.2370 O.2   338  DCP338     -0.2221
     14  O2G       74.8970   36.9550   54.1590 O.3   338  DCP338     -0.1143
     15  O3G       72.9570   35.4130   53.6610 O.3   338  DCP338     -0.1143
@<TRIPOS>BOND
     1     2     3    1
     2     3     4    1
     3     4     6    2
     4     4     7    1
     5     4     5    1
     6    10     8    2
     7     9     8    1
     8     7     8    1
     9     8    11    1
    10    11    12    1
    11    13    12    2
    12    12    15    1
    13    12    14    1
