@<TRIPOS>MOLECULE
8ict_DCP_A_1.pdb
 20 20 0 0 0
SMALL
GASTEIGER

@<TRIPOS>ATOM
      1  C1'       69.9030   38.9480   45.9060 C.3   338  DCP338      0.1450
      2  C2'       71.1540   39.0870   46.7730 C.3   338  DCP338      0.0676
      3  C3'       71.9090   37.7950   46.4930 C.3   338  DCP338      0.1839
      4  C4'       70.7880   36.8070   46.3390 C.3   338  DCP338      0.1753
      5  O4'       69.6450   37.5310   45.8040 O.3   338  DCP338     -0.3510
      6  O3'       72.5450   37.9560   45.2370 O.3   338  DCP338     -0.2204
      7  C5'       70.3070   36.1210   47.6520 C.3   338  DCP338      0.1811
      8  O5'       71.4560   35.5970   48.3740 O.3   338  DCP338     -0.3112
      9  PA        71.2510   35.6480   49.9730 P.3   338  DCP338      0.2189
     10  O1A       71.8990   34.5380   50.6780 O.3   338  DCP338     -0.4371
     11  O2A       69.8050   35.8180   50.2680 O.2   338  DCP338     -0.5170
     12  O3A       72.0880   36.9790   50.3100 O.3   338  DCP338     -0.2700
     13  PB        73.6860   37.3600   50.5010 P.3   338  DCP338      0.2277
     14  O1B       73.8460   38.7760   50.1090 O.3   338  DCP338     -0.4368
     15  O2B       74.5770   36.3840   49.8240 O.2   338  DCP338     -0.5168
     16  O3B       73.8710   37.2140   52.0810 O.3   338  DCP338     -0.2258
     17  PG        74.6820   36.1630   53.0450 P.3   338  DCP338      0.5373
     18  O1G       75.4060   35.1630   52.2240 O.2   338  DCP338     -0.2221
     19  O2G       75.4800   36.9260   54.0390 O.3   338  DCP338     -0.1143
     20  O3G       73.4440   35.4720   53.7620 O.3   338  DCP338     -0.1143
@<TRIPOS>BOND
     1     6     3    1
     2     5     1    1
     3     5     4    1
     4     1     2    1
     5     4     3    1
     6     4     7    1
     7     3     2    1
     8     7     8    1
     9     8     9    1
    10    15    13    2
    11     9    11    2
    12     9    12    1
    13     9    10    1
    14    14    13    1
    15    12    13    1
    16    13    16    1
    17    16    17    1
    18    18    17    2
    19    17    20    1
    20    17    19    1
