@<TRIPOS>MOLECULE
8icu_DAD_A_1.pdb
 13 12 0 0 0
SMALL
GASTEIGER

@<TRIPOS>ATOM
      1  PG        74.5530   35.9940   53.0790 P.3   338  DAD338      0.5373
      2  O1G       75.2140   35.2050   52.0050 O.2   338  DAD338     -0.2221
      3  O2G       75.4030   36.7090   54.0870 O.3   338  DAD338     -0.1143
      4  O3G       73.4700   35.0960   53.8100 O.3   338  DAD338     -0.1143
      5  PB        73.7600   37.5100   50.8330 P.3   338  DAD338      0.2317
      6  O1B       73.9220   38.9690   50.8120 O.3   338  DAD338     -0.4368
      7  O2B       74.8290   36.6800   50.2150 O.2   338  DAD338     -0.5167
      8  O3B       73.6070   37.0480   52.3160 O.3   338  DAD338     -0.2257
      9  PA        71.5680   35.7420   49.8570 P.3   338  DAD338      0.5373
     10  O1A       72.3230   34.6340   50.5300 O.3   338  DAD338     -0.1143
     11  O2A       70.0800   35.8290   50.0850 O.3   338  DAD338     -0.1143
     12  O3A       72.2880   37.1230   50.2610 O.3   338  DAD338     -0.2257
     13  O5'       71.8630   35.7000   48.2930 O.2   338  DAD338     -0.2221
@<TRIPOS>BOND
     1    13     9    2
     2     9    11    1
     3     9    12    1
     4     9    10    1
     5     7     5    2
     6    12     5    1
     7     6     5    1
     8     5     8    1
     9     2     1    2
    10     8     1    1
    11     1     4    1
    12     1     3    1
