@<TRIPOS>MOLECULE
8icv_DGT_A_1.pdb
 13 12 0 0 0
SMALL
GASTEIGER

@<TRIPOS>ATOM
      1  PG        74.3030   36.5790   53.4130 P.3   338  DGT338      0.5373
      2  O1G       75.1330   35.6300   52.6460 O.2   338  DGT338     -0.2221
      3  O2G       74.9440   37.4410   54.4520 O.3   338  DGT338     -0.1143
      4  O3G       73.1360   35.7650   54.0560 O.3   338  DGT338     -0.1143
      5  O3B       73.4780   37.5170   52.3710 O.3   338  DGT338     -0.2257
      6  PB        73.4580   37.5790   50.7810 P.3   338  DGT338      0.2317
      7  O1B       73.8020   38.9430   50.3290 O.3   338  DGT338     -0.4368
      8  O2B       74.2480   36.4570   50.1990 O.2   338  DGT338     -0.5167
      9  O3A       71.8620   37.3900   50.4900 O.3   338  DGT338     -0.2257
     10  PA        70.9680   36.1880   49.9300 P.3   338  DGT338      0.5373
     11  O1A       71.3060   35.0060   50.7500 O.3   338  DGT338     -0.1143
     12  O2A       69.5310   36.6210   49.8910 O.3   338  DGT338     -0.1143
     13  O5'       71.5540   35.9970   48.4530 O.2   338  DGT338     -0.2221
@<TRIPOS>BOND
     1    13    10    2
     2    12    10    1
     3    10     9    1
     4    10    11    1
     5     8     6    2
     6     7     6    1
     7     9     6    1
     8     6     5    1
     9     5     1    1
    10     2     1    2
    11     1     4    1
    12     1     3    1
