@<TRIPOS>MOLECULE
8icw_TTP_A_1.pdb
 20 20 0 0 0
SMALL
GASTEIGER

@<TRIPOS>ATOM
      1  PA        71.2520   35.8700   49.9600 P.3   338  TTP338      0.2189
      2  O1A       71.6340   34.5670   50.5020 O.3   338  TTP338     -0.4371
      3  O2A       69.8330   36.3070   50.1050 O.2   338  TTP338     -0.5170
      4  O3A       72.2200   36.8260   50.8050 O.3   338  TTP338     -0.2700
      5  PB        73.7060   37.4860   50.6670 P.3   338  TTP338      0.2277
      6  O1B       73.5110   38.7960   50.0360 O.2   338  TTP338     -0.5168
      7  O2B       74.7050   36.5720   50.0500 O.3   338  TTP338     -0.4368
      8  O3B       74.0470   37.7060   52.2080 O.3   338  TTP338     -0.2258
      9  PG        74.7550   36.8160   53.3900 P.3   338  TTP338      0.5373
     10  O1G       75.6170   35.7750   52.7800 O.2   338  TTP338     -0.2221
     11  O2G       75.4060   37.7290   54.3780 O.3   338  TTP338     -0.1143
     12  O3G       73.4750   36.1180   54.0250 O.3   338  TTP338     -0.1143
     13  O5'       71.6490   36.0700   48.4210 O.3   338  TTP338     -0.3112
     14  C5'       70.6680   36.8070   47.6740 C.3   338  TTP338      0.1811
     15  C4'       71.2680   37.4280   46.4280 C.3   338  TTP338      0.1753
     16  O4'       70.2950   38.3110   45.7960 O.3   338  TTP338     -0.3510
     17  C3'       72.4950   38.2590   46.6620 C.3   338  TTP338      0.1839
     18  O3'       72.9530   38.3920   45.3980 O.3   338  TTP338     -0.2204
     19  C2'       71.9060   39.6430   46.8720 C.3   338  TTP338      0.0676
     20  C1'       70.7900   39.6440   45.8580 C.3   338  TTP338      0.1450
@<TRIPOS>BOND
     1    18    17    1
     2    16    20    1
     3    16    15    1
     4    20    19    1
     5    15    17    1
     6    15    14    1
     7    17    19    1
     8    14    13    1
     9    13     1    1
    10     1     3    2
    11     1     2    1
    12     1     4    1
    13     6     5    2
    14     7     5    1
    15     5     4    1
    16     5     8    1
    17     8     9    1
    18    10     9    2
    19     9    12    1
    20     9    11    1
