@<TRIPOS>MOLECULE
8icx_TTP_A_1.pdb
 20 20 0 0 0
SMALL
GASTEIGER

@<TRIPOS>ATOM
      1  PA        71.4190   36.0790   50.0690 P.3   338  TTP338      0.2189
      2  O1A       72.0620   34.8560   50.6080 O.3   338  TTP338     -0.4371
      3  O2A       69.9500   36.2150   50.2820 O.2   338  TTP338     -0.5170
      4  O3A       72.1660   37.3140   50.7480 O.3   338  TTP338     -0.2700
      5  PB        73.7380   37.7430   50.9000 P.3   338  TTP338      0.2277
      6  O1B       73.8740   39.1250   50.3880 O.3   338  TTP338     -0.4368
      7  O2B       74.6040   36.6900   50.2990 O.2   338  TTP338     -0.5168
      8  O3B       73.9280   37.7540   52.4840 O.3   338  TTP338     -0.2258
      9  PG        74.7400   36.8040   53.5450 P.3   338  TTP338      0.5373
     10  O1G       75.5350   35.7920   52.8200 O.2   338  TTP338     -0.2221
     11  O2G       75.4450   37.6630   54.5350 O.3   338  TTP338     -0.1143
     12  O3G       73.5150   36.0670   54.2180 O.3   338  TTP338     -0.1143
     13  O5'       71.7880   36.2840   48.5120 O.3   338  TTP338     -0.3112
     14  C5'       70.7570   36.5570   47.5070 C.3   338  TTP338      0.1811
     15  C4'       71.3510   37.2910   46.2830 C.3   338  TTP338      0.1753
     16  O4'       70.2900   38.0080   45.6030 O.3   338  TTP338     -0.3510
     17  C3'       72.3730   38.3550   46.6170 C.3   338  TTP338      0.1839
     18  O3'       72.8800   38.8010   45.3920 O.3   338  TTP338     -0.2204
     19  C2'       71.4950   39.5310   46.9550 C.3   338  TTP338      0.0676
     20  C1'       70.4020   39.4060   45.8940 C.3   338  TTP338      0.1450
@<TRIPOS>BOND
     1    18    17    1
     2    16    20    1
     3    16    15    1
     4    20    19    1
     5    15    17    1
     6    15    14    1
     7    17    19    1
     8    14    13    1
     9    13     1    1
    10     1     3    2
    11     1     2    1
    12     1     4    1
    13     7     5    2
    14     6     5    1
    15     4     5    1
    16     5     8    1
    17     8     9    1
    18    10     9    2
    19     9    12    1
    20     9    11    1
