@<TRIPOS>MOLECULE
8icy_TTP_A_1.pdb
 20 20 0 0 0
SMALL
GASTEIGER

@<TRIPOS>ATOM
      1  PA        71.1830   36.0960   50.1670 P.3   338  TTP338      0.2189
      2  O1A       71.6340   34.8770   50.8540 O.3   338  TTP338     -0.4371
      3  O2A       69.7380   36.5020   50.2940 O.2   338  TTP338     -0.5170
      4  O3A       72.1750   37.3420   50.5590 O.3   338  TTP338     -0.2700
      5  PB        73.8440   37.6370   50.6220 P.3   338  TTP338      0.2277
      6  O1B       74.1020   39.0210   50.1570 O.3   338  TTP338     -0.4368
      7  O2B       74.6420   36.5590   49.9720 O.2   338  TTP338     -0.5168
      8  O3B       74.0850   37.5750   52.1930 O.3   338  TTP338     -0.2258
      9  PG        74.8620   36.4910   53.1180 P.3   338  TTP338      0.5373
     10  O1G       75.5310   35.5300   52.2130 O.2   338  TTP338     -0.2221
     11  O2G       75.6840   37.1690   54.1500 O.3   338  TTP338     -0.1143
     12  O3G       73.6210   35.8050   53.7880 O.3   338  TTP338     -0.1143
     13  O5'       71.5060   36.0410   48.6210 O.3   338  TTP338     -0.3112
     14  C5'       70.9510   37.2230   48.1430 C.3   338  TTP338      0.1811
     15  C4'       71.5000   37.5490   46.7880 C.3   338  TTP338      0.1753
     16  O4'       70.6160   38.4590   46.1100 O.3   338  TTP338     -0.3510
     17  C3'       72.8200   38.2060   46.8280 C.3   338  TTP338      0.1839
     18  O3'       73.0210   37.8710   45.5240 O.3   338  TTP338     -0.2204
     19  C2'       72.4540   39.6810   46.7810 C.3   338  TTP338      0.0676
     20  C1'       71.2610   39.6800   45.8790 C.3   338  TTP338      0.1450
@<TRIPOS>BOND
     1    18    17    1
     2    20    16    1
     3    20    19    1
     4    16    15    1
     5    19    17    1
     6    15    17    1
     7    15    14    1
     8    14    13    1
     9    13     1    1
    10     7     5    2
    11     6     5    1
    12     1     3    2
    13     1     4    1
    14     1     2    1
    15     4     5    1
    16     5     8    1
    17     8     9    1
    18    10     9    2
    19     9    12    1
    20     9    11    1
