@<TRIPOS>MOLECULE
8ldh_CIT_A_1.pdb
 13 12 0 0 0
SMALL
GASTEIGER

@<TRIPOS>ATOM
      1  C1        16.5150   24.4100    3.4250 C.2   330  CIT330      0.3680
      2  O1        17.6820   24.8580    3.6000 O.co2 330  CIT330     -0.2455
      3  O2        16.1900   23.1990    3.4060 O.co2 330  CIT330     -0.2455
      4  C2        15.4080   25.4580    3.2490 C.3   330  CIT330      0.1560
      5  C3        14.6170   26.1230    4.4230 C.3   330  CIT330      0.2402
      6  O7        15.4670   25.7140    5.4150 O.3   330  CIT330     -0.2129
      7  C4        13.3830   25.4440    4.8500 C.3   330  CIT330      0.1560
      8  C5        12.6290   25.5440    6.0890 C.2   330  CIT330      0.3680
      9  O3        12.5500   24.5610    6.9650 O.co2 330  CIT330     -0.2455
     10  O4        12.0050   26.6050    6.4040 O.co2 330  CIT330     -0.2455
     11  C6        14.4310   27.6080    4.2180 C.2   330  CIT330      0.3927
     12  O5        13.2250   27.8100    3.7190 O.co2 330  CIT330     -0.2429
     13  O6        15.2850   28.4430    4.4600 O.co2 330  CIT330     -0.2429
@<TRIPOS>BOND
     1     4     1    1
     2     4     5    1
     3     3     1   ar
     4     1     2   ar
     5    12    11   ar
     6    11     5    1
     7    11    13   ar
     8     5     7    1
     9     5     6    1
    10     7     8    1
    11     8    10   ar
    12     8     9   ar
