@<TRIPOS>MOLECULE
8lpr_III_P_1.pdb
 29 30 0 0 0
SMALL
GASTEIGER

@<TRIPOS>ATOM
      1  N         13.6250   41.9040   18.8670 N.3     4  ALA4        0.0000
      2  CA        14.1880   40.5770   18.5250 C.3     4  ALA4        0.0000
      3  C         13.2840   39.3680   18.7490 C.2     4  ALA4        0.0000
      4  O         12.6410   39.3080   19.8140 O.2     4  ALA4        0.0000
      5  CB        15.3180   40.2620   19.5300 C.3     4  ALA4        0.0000
      6  N         13.3250   38.4620   17.7960 N.am    3  ALA3        0.0000
      7  CA        12.5500   37.2080   17.9690 C.3     3  ALA3        0.0000
      8  C         13.5320   36.0850   17.6020 C.2     3  ALA3        0.0000
      9  O         14.3880   36.3650   16.7350 O.2     3  ALA3        0.0000
     10  CB        11.4140   37.1210   16.9420 C.3     3  ALA3        0.0000
     11  N         13.2570   34.9240   18.1510 N.am    2  PRO2        0.0000
     12  CA        14.0380   33.7180   17.7940 C.3     2  PRO2        0.0000
     13  C         13.7470   33.3160   16.3340 C.2     2  PRO2        0.0000
     14  O         12.6110   33.4760   15.8150 O.2     2  PRO2        0.0000
     15  CB        13.5420   32.6480   18.7990 C.3     2  PRO2        0.0000
     16  CG        12.7040   33.3740   19.8020 C.3     2  PRO2        0.0000
     17  CD        12.1330   34.6260   19.0900 C.3     2  PRO2        0.0000
     18  N         14.7590   32.7570   15.6540 N.am    1  PHE1        0.0000
     19  CA        14.6920   32.2700   14.2990 C.3     1  PHE1        0.0000
     20  CB        15.6420   32.9590   13.3050 C.3     1  PHE1        0.0000
     21  CG        15.4950   34.4080   13.0090 C.ar    1  PHE1        0.0000
     22  CD1       16.4250   35.0230   12.1730 C.ar    1  PHE1        0.0000
     23  CD2       14.4850   35.1820   13.5960 C.ar    1  PHE1        0.0000
     24  CE1       16.3360   36.3910   11.9020 C.ar    1  PHE1        0.0000
     25  CE2       14.3580   36.5530   13.3060 C.ar    1  PHE1        0.0000
     26  CZ        15.2970   37.1470   12.4420 C.ar    1  PHE1        0.0000
     27  B         14.8350   30.7120   14.1610 B       1  PHE1        0.0000
     28  O1        14.8530   30.1950   12.7560 O.3     1  PHE1        0.0000
     29  O2        14.0410   29.9520   15.1450 O.3     1  PHE1        0.0000
@<TRIPOS>BOND
     1    24    22   ar
     2    24    26   ar
     3    22    21   ar
     4    26    25   ar
     5    28    27    1
     6    21    20    1
     7    21    23   ar
     8    20    19    1
     9    25    23   ar
    10    27    19    1
    11    27    29    1
    12    19    18    1
    13    18    13   am
    14    14    13    2
    15    13    12    1
    16     9     8    2
    17    10     7    1
    18     8     7    1
    19     8    11   am
    20    12    11    1
    21    12    15    1
    22     6     7    1
    23     6     3   am
    24    11    17    1
    25     2     3    1
    26     2     1    1
    27     2     5    1
    28     3     4    2
    29    15    16    1
    30    17    16    1
