@<TRIPOS>MOLECULE
8mht_SAH_A_1.pdb
 26 28 0 0 0
SMALL
GASTEIGER

@<TRIPOS>ATOM
      1  N        -18.0630   31.9140   82.4390 N.3   328  SAH328     -0.1208
      2  CA       -18.7650   31.1120   83.4200 C.3   328  SAH328      0.1952
      3  CB       -18.7050   31.7910   84.7920 C.3   328  SAH328      0.0422
      4  CG       -17.2980   32.1860   85.2020 C.3   328  SAH328      0.0597
      5  SD       -16.9500   32.9730   86.8070 S.3   328  SAH328     -0.1375
      6  C        -20.1950   31.0850   82.8860 C.2   328  SAH328      0.3819
      7  O        -20.3760   30.7560   81.6480 O.co2 328  SAH328     -0.2441
      8  OXT      -21.1400   30.7490   83.6890 O.co2 328  SAH328     -0.2441
      9  C5'      -15.5530   31.9430   87.4060 C.3   328  SAH328      0.0899
     10  C4'      -15.6780   30.4840   88.0530 C.3   328  SAH328      0.1630
     11  O4'      -14.4150   29.9910   88.5100 O.3   328  SAH328     -0.3153
     12  C3'      -16.5480   30.3900   89.3780 C.3   328  SAH328      0.2168
     13  O3'      -17.6090   29.4470   89.0890 O.3   328  SAH328     -0.2175
     14  C2'      -15.5510   29.8800   90.4060 C.3   328  SAH328      0.2569
     15  O2'      -16.2710   29.0370   91.3450 O.3   328  SAH328     -0.2130
     16  C1'      -14.5960   29.1000   89.5610 C.3   328  SAH328      0.3185
     17  N9       -13.2370   28.9500   90.0880 N.pl3 328  SAH328     -0.1439
     18  C8       -12.5540   29.8640   90.9060 C.3   328  SAH328      0.3377
     19  N7       -11.3350   29.5220   91.2450 N.2   328  SAH328     -0.2095
     20  C5       -11.1820   28.2880   90.6220 C.2   328  SAH328      0.2526
     21  C6       -10.1120   27.3980   90.6840 C.2   328  SAH328      0.4393
     22  N6        -9.0790   27.7730   91.4330 N.pl3 328  SAH328      0.2180
     23  N1       -10.1790   26.1890   90.0420 N.2   328  SAH328      0.0021
     24  C2       -11.3410   25.9700   89.3810 C.3   328  SAH328      0.5254
     25  N3       -12.4610   26.7140   89.2330 N.2   328  SAH328     -0.0055
     26  C4       -12.3080   27.9000   89.9020 C.2   328  SAH328      0.3518
@<TRIPOS>BOND
     1     7     6   ar
     2     1     2    1
     3     6     2    1
     4     6     8   ar
     5     2     3    1
     6     3     4    1
     7     4     5    1
     8     5     9    1
     9     9    10    1
    10    10    11    1
    11    10    12    1
    12    11    16    1
    13    13    12    1
    14    25    24    1
    15    25    26    2
    16    12    14    1
    17    24    23    1
    18    16    17    1
    19    16    14    1
    20    26    17    1
    21    26    20    1
    22    23    21    2
    23    17    18    1
    24    14    15    1
    25    20    21    1
    26    20    19    2
    27    21    22    1
    28    18    19    1
