@<TRIPOS>MOLECULE
8nse_NRG_A_1.pdb
 15 14 0 0 0
SMALL
GASTEIGER

@<TRIPOS>ATOM
      1  N          7.4980   15.7790   35.3000 N.3   705  NRG705     -0.1208
      2  CA         7.9880   16.2520   33.9710 C.3   705  NRG705      0.1944
      3  CB         7.8480   15.1450   32.9380 C.3   705  NRG705      0.0343
      4  CG         8.6440   13.9270   33.3070 C.3   705  NRG705      0.0490
      5  CD         8.3480   12.8890   32.3010 C.3   705  NRG705      0.2204
      6  NE         6.9060   12.7470   32.2150 N.pl3 705  NRG705     -0.0874
      7  CZ         6.2990   11.8870   31.4210 C.cat 705  NRG705      0.5245
      8  NH1        7.0270   11.1270   30.6140 N.pl3 705  NRG705      0.1075
      9  NH2        4.9750   11.7890   31.4490 N.pl3 705  NRG705      0.1343
     10  C          7.1310   17.4300   33.5560 C.2   705  NRG705      0.3819
     11  OA1        7.3380   17.9910   32.4500 O.co2 705  NRG705     -0.2441
     12  OA2        6.2260   17.7640   34.3650 O.co2 705  NRG705     -0.2441
     13  N1         6.4530   10.6450   29.4060 N.pl3 705  NRG705      0.2221
     14  O2         7.1820   10.3220   28.4430 O.2   705  NRG705     -0.0910
     15  O3         5.2420   10.4440   29.3550 O.2   705  NRG705     -0.0910
@<TRIPOS>BOND
     1    14    13    2
     2    15    13    2
     3    13     8    1
     4     8     7    1
     5     7     9    2
     6     7     6    1
     7     6     5    1
     8     5     4    1
     9    11    10   ar
    10     3     4    1
    11     3     2    1
    12    10     2    1
    13    10    12   ar
    14     2     1    1
