@<TRIPOS>MOLECULE
8nse_H4B_A_1.pdb
 17 18 0 0 0
SMALL
GASTEIGER

@<TRIPOS>ATOM
      1  N1         7.9340   11.5100   42.7160 N.2   600  H4B600     -0.2683
      2  C2         7.8330   11.8550   41.4130 C.1   600  H4B600      0.2608
      3  N2         7.0040   11.2510   40.5750 N.pl3 600  H4B600     -0.0220
      4  N3         8.6150   12.8620   40.9660 N.2   600  H4B600     -0.2474
      5  C4         9.5390   13.5800   41.7530 C.1   600  H4B600      0.2441
      6  O4        10.1950   14.4800   41.2260 O.2   600  H4B600     -0.2063
      7  C4A        9.5860   13.1690   43.1000 C.2   600  H4B600      0.2463
      8  C8A        8.8060   12.1330   43.5860 C.1   600  H4B600      0.1270
      9  N5        10.5280   13.8630   43.9730 N.2   600  H4B600     -0.2460
     10  N8         8.8400   11.7410   44.8670 N.2   600  H4B600     -0.2054
     11  C6        10.9710   13.0490   45.1920 C.3   600  H4B600      0.1627
     12  C7         9.7560   12.3820   45.8430 C.3   600  H4B600      0.1643
     13  C9        11.7590   14.0440   46.0660 C.3   600  H4B600      0.2063
     14  O9        11.0360   15.2180   46.3930 O.3   600  H4B600     -0.2183
     15  C10       12.2850   13.4150   47.3820 C.3   600  H4B600      0.1842
     16  C11       13.2330   14.3300   48.0870 C.3   600  H4B600      0.0383
     17  O10       12.9650   12.2320   46.9810 O.3   600  H4B600     -0.2204
@<TRIPOS>BOND
     1     3     2    1
     2     4     2    2
     3     4     5    2
     4     6     5    2
     5     2     1    2
     6     5     7    1
     7     1     8    2
     8     7     8    1
     9     7     9    2
    10     8    10    2
    11     9    11    1
    12    10    12    1
    13    11    12    1
    14    11    13    1
    15    13    14    1
    16    13    15    1
    17    17    15    1
    18    15    16    1
