@<TRIPOS>MOLECULE
8nse_HEM_A_1.pdb
 43 50 0 0 0
SMALL
GASTEIGER

@<TRIPOS>ATOM
      1  CHA        8.9910    8.9140   34.7480 C.2   500  HEM500      0.0000
      2  CHB        4.2910    8.8670   33.3320 C.2   500  HEM500      0.0000
      3  CHC        5.6540    7.1230   29.1120 C.2   500  HEM500      0.0000
      4  CHD       10.2110    6.5440   30.7580 C.2   500  HEM500      0.0000
      5  C1A        7.6020    9.1020   34.6670 C.2   500  HEM500      0.0000
      6  C2A        6.8430    9.8870   35.6200 C.2   500  HEM500      0.0000
      7  C3A        5.5350    9.8000   35.3030 C.2   500  HEM500      0.0000
      8  C4A        5.4730    9.0410   34.0700 C.2   500  HEM500      0.0000
      9  CMA        4.3890   10.3880   36.1270 C.3   500  HEM500      0.0000
     10  CAA        7.4490   10.7630   36.6850 C.3   500  HEM500      0.0000
     11  CBA        7.4530   12.1990   36.2360 C.3   500  HEM500      0.0000
     12  CGA        8.1640   13.0990   37.2290 C.2   500  HEM500      0.0000
     13  O1A        7.9770   12.9030   38.4430 O.co2 500  HEM500      0.0000
     14  O2A        8.9010   14.0090   36.8010 O.co2 500  HEM500      0.0000
     15  C1B        4.2290    8.1550   32.1560 C.ar  500  HEM500      0.0000
     16  C2B        3.0400    8.1080   31.3520 C.ar  500  HEM500      0.0000
     17  C3B        3.3880    7.5440   30.1670 C.ar  500  HEM500      0.0000
     18  C4B        4.8310    7.3120   30.2230 C.ar  500  HEM500      0.0000
     19  CMB        1.6480    8.5840   31.7740 C.3   500  HEM500      0.0000
     20  CAB        2.4280    7.2240   29.2020 C.2   500  HEM500      0.0000
     21  CBB        2.5260    6.9250   27.8650 C.2   500  HEM500      0.0000
     22  C1C        7.0530    6.9960   29.1690 C.2   500  HEM500      0.0000
     23  C2C        7.8570    6.5520   28.0370 C.2   500  HEM500      0.0000
     24  C3C        9.1120    6.2880   28.4950 C.2   500  HEM500      0.0000
     25  C4C        9.0800    6.5860   29.9200 C.2   500  HEM500      0.0000
     26  CMC        7.3230    6.3200   26.6380 C.3   500  HEM500      0.0000
     27  CAC       10.2140    5.8160   27.7860 C.2   500  HEM500      0.0000
     28  CBC       10.2180    5.0900   26.6360 C.2   500  HEM500      0.0000
     29  C1D       10.2480    7.0200   32.0420 C.ar  500  HEM500      0.0000
     30  C2D       11.4840    7.2240   32.7920 C.ar  500  HEM500      0.0000
     31  C3D       11.1250    7.9020   33.8800 C.ar  500  HEM500      0.0000
     32  C4D        9.7110    8.1650   33.8030 C.ar  500  HEM500      0.0000
     33  CMD       12.9630    6.9190   32.4580 C.3   500  HEM500      0.0000
     34  CAD       12.0270    8.3660   35.0080 C.3   500  HEM500      0.0000
     35  CBD       12.6420    9.7090   34.6540 C.3   500  HEM500      0.0000
     36  CGD       13.2640   10.3990   35.8480 C.2   500  HEM500      0.0000
     37  O1D       13.9480    9.7350   36.6440 O.co2 500  HEM500      0.0000
     38  O2D       13.0760   11.6190   35.9940 O.co2 500  HEM500      0.0000
     39  NA         6.7460    8.5620   33.6940 N.2   500  HEM500      0.0000
     40  NB         5.3400    7.6090   31.4930 N.ar  500  HEM500      0.0000
     41  NC         7.8100    7.0240   30.3490 N.2   500  HEM500      0.0000
     42  ND         9.1590    7.5530   32.6680 N.ar  500  HEM500      0.0000
     43 FE          7.2190    7.4400   32.1780 Fe    500  HEM500      0.0000
@<TRIPOS>BOND
     1    28    27    2
     2    26    23    1
     3    27    24    1
     4    21    20    2
     5    23    24    2
     6    23    22    1
     7    24    25    1
     8     3    22    2
     9     3    18    1
    10    22    41    1
    11    20    17    1
    12    25    41    2
    13    25     4    1
    14    17    18   ar
    15    17    16   ar
    16    18    40   ar
    17    41    43    1
    18     4    29    2
    19    16    19    1
    20    16    15   ar
    21    40    15   ar
    22    40    43    1
    23    29    42   ar
    24    29    30   ar
    25    15     2    1
    26    43    42    1
    27    43    39    1
    28    33    30    1
    29    42    32   ar
    30    30    31   ar
    31     2     8    2
    32    39     8    1
    33    39     5    2
    34    32    31   ar
    35    32     1    2
    36    31    34    1
    37     8     7    1
    38    35    34    1
    39    35    36    1
    40     5     1    1
    41     5     6    1
    42     7     6    2
    43     7     9    1
    44     6    10    1
    45    36    38   ar
    46    36    37   ar
    47    11    10    1
    48    11    12    1
    49    14    12   ar
    50    12    13   ar
