@<TRIPOS>MOLECULE
8pch_BMA_A_1.pdb
 22 22 0 0 0
SMALL
GASTEIGER

@<TRIPOS>ATOM
      1  C1        10.2660   30.3920   36.0890 C.3   215  BMA215      0.1161
      2  C2         9.8480   31.4890   37.0670 C.3   215  BMA215      0.1121
      3  C3        11.0510   31.8930   37.9140 C.3   215  BMA215      0.1118
      4  C4        11.6890   30.6750   38.5760 C.3   215  BMA215      0.1117
      5  C5        12.0080   29.6160   37.5100 C.3   215  BMA215      0.1105
      6  C6        12.5360   28.3410   38.1030 C.3   215  BMA215      0.0729
      7  O2         8.7850   31.0530   37.8930 O.3   215  BMA215     -0.3865
      8  O3        10.6750   32.8450   38.9000 O.3   215  BMA215     -0.3865
      9  O4        12.8890   31.0770   39.2250 O.3   215  BMA215     -0.3865
     10  O5        10.8140   29.2730   36.7890 O.3   215  BMA215     -0.3631
     11  O6        11.5120   27.7000   38.8410 O.3   215  BMA215     -0.3924
     12  H1        11.0490   30.7730   35.4240 H     215  BMA215      0.0650
     13  H2         9.4110   32.3320   36.5440 H     215  BMA215      0.0647
     14  H3        11.7040   32.2680   37.1270 H     215  BMA215      0.0647
     15  H4        10.9560   30.2200   39.2780 H     215  BMA215      0.0647
     16  H5        12.7250   29.9120   36.7580 H     215  BMA215      0.0646
     17  H61       13.3650   28.6400   38.7550 H     215  BMA215      0.0584
     18  H62       13.0230   27.7360   37.3140 H     215  BMA215      0.0584
     19  HO2        8.1510   30.6720   37.2700 H     215  BMA215      0.2100
     20  HO3        9.9920   32.3780   39.3890 H     215  BMA215      0.2100
     21  HO4       13.4510   31.5550   38.5930 H     215  BMA215      0.2100
     22  HO6       10.6760   28.0890   38.5020 H     215  BMA215      0.2095
@<TRIPOS>BOND
     1    12     1    1
     2     1    10    1
     3     1     2    1
     4    13     2    1
     5    16     5    1
     6    10     5    1
     7     2     7    1
     8     2     3    1
     9    14     3    1
    10    19     7    1
    11    18     6    1
    12     5     6    1
    13     5     4    1
    14     3     4    1
    15     3     8    1
    16     6    17    1
    17     6    11    1
    18    22    11    1
    19     4     9    1
    20     4    15    1
    21    21     9    1
    22     8    20    1
