@<TRIPOS>MOLECULE
8prn_C8E_A_1.pdb
 21 20 0 0 0
SMALL
GASTEIGER

@<TRIPOS>ATOM
      1  C1         4.4320   59.1570   44.8470 C.3   290  C8E290      0.0000
      2  C2         3.3310   58.6610   43.9920 C.3   290  C8E290      0.0000
      3  C3         2.1050   58.6480   44.7940 C.3   290  C8E290      0.0000
      4  C4         1.9620   57.3530   45.4470 C.3   290  C8E290      0.0000
      5  C5         2.0590   57.5900   46.8940 C.3   290  C8E290      0.0001
      6  C6         0.7870   57.3520   47.5280 C.3   290  C8E290      0.0026
      7  C7         1.2060   57.4630   48.8910 C.3   290  C8E290      0.0321
      8  C8         0.2420   56.7680   49.7490 C.3   290  C8E290      0.1423
      9  O9         0.6410   56.5380   51.1100 O.3   290  C8E290     -0.3511
     10  C10        0.6030   57.6790   51.9450 C.3   290  C8E290      0.1741
     11  C11        0.9980   57.1230   53.3210 C.3   290  C8E290      0.1742
     12  O12       -0.1220   56.3690   53.8600 O.3   290  C8E290     -0.3484
     13  C13       -0.3130   54.9360   53.5290 C.3   290  C8E290      0.1742
     14  C14       -1.3890   54.4730   52.4820 C.3   290  C8E290      0.1742
     15  O15       -2.1530   53.2070   52.4880 O.3   290  C8E290     -0.3484
     16  C16       -1.7580   52.2730   51.4870 C.3   290  C8E290      0.1742
     17  C17       -1.5710   52.6520   50.0230 C.3   290  C8E290      0.1742
     18  O18       -1.9420   52.0800   48.7980 O.3   290  C8E290     -0.3483
     19  C19       -1.8180   50.6290   48.6720 C.3   290  C8E290      0.1777
     20  C20       -1.3000   49.9210   47.3690 C.3   290  C8E290      0.2140
     21  O21       -0.0210   50.2430   46.7730 O.3   290  C8E290     -0.2176
@<TRIPOS>BOND
     1     2     3    1
     2     2     1    1
     3     3     4    1
     4     4     5    1
     5    21    20    1
     6     5     6    1
     7    20    19    1
     8     6     7    1
     9    19    18    1
    10    18    17    1
    11     7     8    1
    12     8     9    1
    13    17    16    1
    14     9    10    1
    15    16    15    1
    16    10    11    1
    17    14    15    1
    18    14    13    1
    19    11    12    1
    20    13    12    1
