@<TRIPOS>MOLECULE
8rsa_ADT_A_1.pdb
 20 21 0 0 0
SMALL
GASTEIGER

@<TRIPOS>ATOM
      1  N1        44.2850   34.4120   61.3120 N.am  125  ADT125     -0.1794
      2  C2        42.9990   34.6460   60.8380 C.1   125  ADT125      0.2844
      3  O2        42.7410   34.4050   59.6640 O.2   125  ADT125     -0.1918
      4  N3        42.0520   35.1530   61.7230 N.2   125  ADT125     -0.2455
      5  C4        42.2360   35.4340   63.0600 C.1   125  ADT125      0.2134
      6  O4        41.2950   35.8580   63.7510 O.2   125  ADT125     -0.2088
      7  C5        43.5710   35.1560   63.5400 C.2   125  ADT125      0.0891
      8  C5M       43.8780   35.4300   65.0310 C.3   125  ADT125      0.0462
      9  C6        44.5480   34.6660   62.6890 C.2   125  ADT125      0.0877
     10  C1'       45.3360   33.8400   60.3200 C.3   125  ADT125      0.2081
     11  O4'       46.4700   33.3720   61.1100 O.3   125  ADT125     -0.3347
     12  C4'       47.6270   34.2990   60.9500 C.3   125  ADT125      0.1698
     13  C5'       48.0400   34.7420   62.3630 C.3   125  ADT125      0.2132
     14  O5'       49.3190   34.2470   62.7250 O.3   125  ADT125     -0.2176
     15  C3'       47.1730   35.4000   60.0480 C.3   125  ADT125      0.1292
     16  N3'       48.2640   35.9140   59.2090 N.am  125  ADT125     -0.2044
     17  C8'       48.2170   37.2030   58.8610 C.2   125  ADT125      0.2419
     18  O8'       47.2590   37.9190   59.1680 O.2   125  ADT125     -0.2733
     19  C9'       49.3620   37.7470   58.0320 C.3   125  ADT125      0.0964
     20  C2'       46.0380   34.7430   59.2470 C.3   125  ADT125      0.0762
@<TRIPOS>BOND
     1    19    17    1
     2    17    18    2
     3    17    16   am
     4    16    15    1
     5    20    15    1
     6    20    10    1
     7     3     2    2
     8    15    12    1
     9    10    11    1
    10    10     1    1
    11     2     1   am
    12     2     4    2
    13    12    11    1
    14    12    13    1
    15     1     9    1
    16     4     5    2
    17    13    14    1
    18     9     7    2
    19     5     7    1
    20     5     6    2
    21     7     8    1
