@<TRIPOS>MOLECULE
8ruc_CAP_A_1.pdb
 21 20 0 0 0
SMALL
GASTEIGER

@<TRIPOS>ATOM
      1  C1       -36.5600   35.1760   28.9370 C.3   477  CAP477      0.1978
      2  C2       -35.8350   34.8430   30.2210 C.3   477  CAP477      0.2763
      3  C3       -35.6660   36.1670   31.0020 C.3   477  CAP477      0.2253
      4  C4       -36.9770   36.7760   31.5460 C.3   477  CAP477      0.2152
      5  C5       -36.8640   37.5000   32.8800 C.3   477  CAP477      0.1892
      6  C        -36.5590   33.7460   31.0470 C.2   477  CAP477      0.3967
      7  O1       -36.5950   34.0160   28.1080 O.3   477  CAP477     -0.2669
      8  O2       -34.5930   34.3790   29.8510 O.3   477  CAP477     -0.2086
      9  O3       -34.8750   35.9670   32.1120 O.3   477  CAP477     -0.2170
     10  O4       -37.3650   37.6550   30.5880 O.3   477  CAP477     -0.2176
     11  O5       -38.0320   38.1600   33.3200 O.3   477  CAP477     -0.2674
     12  O6       -35.9810   33.0430   31.8700 O.co2 477  CAP477     -0.2428
     13  O7       -37.7420   33.5220   30.8700 O.co2 477  CAP477     -0.2428
     14  P1       -37.2870   34.0680   26.6660 P.3   477  CAP477      0.5327
     15  P2       -38.0880   39.7170   33.4850 P.3   477  CAP477      0.5327
     16  O1P      -36.9620   32.8110   26.0110 O.3   477  CAP477     -0.1145
     17  O2P      -36.6360   35.2430   25.9090 O.2   477  CAP477     -0.2224
     18  O3P      -38.7330   34.3890   26.9310 O.3   477  CAP477     -0.1145
     19  O4P      -39.5180   40.1630   33.4930 O.3   477  CAP477     -0.1145
     20  O5P      -37.3990   40.3530   32.2860 O.2   477  CAP477     -0.2224
     21  O6P      -37.3030   40.0390   34.7100 O.3   477  CAP477     -0.1145
@<TRIPOS>BOND
     1    17    14    2
     2    16    14    1
     3    14    18    1
     4    14     7    1
     5     7     1    1
     6     1     2    1
     7     8     2    1
     8     2     3    1
     9     2     6    1
    10    10     4    1
    11    13     6   ar
    12     3     4    1
    13     3     9    1
    14     6    12   ar
    15     4     5    1
    16    20    15    2
    17     5    11    1
    18    11    15    1
    19    15    19    1
    20    15    21    1
