@<TRIPOS>MOLECULE
8tln_LYS_E_1.pdb
 10 9 0 0 0
SMALL
GASTEIGER

@<TRIPOS>ATOM
      1  N         37.7710   40.2840   -3.7630 N.3   1323  LYS1323    -0.1208
      2  CA        38.9360   39.3070   -4.0080 C.3   1323  LYS1323     0.1943
      3  C         38.7680   38.2470   -5.1480 C.2   1323  LYS1323     0.3819
      4  O         37.5800   38.2330   -5.6890 O.co2 1323  LYS1323    -0.2441
      5  CB        39.3960   38.6420   -2.7380 C.3   1323  LYS1323     0.0307
      6  CG        38.3070   37.9360   -2.0110 C.3   1323  LYS1323     0.0036
      7  CD        38.9700   36.8860   -1.1760 C.3   1323  LYS1323     0.0206
      8  CE        38.6450   35.5090   -1.6800 C.3   1323  LYS1323     0.1093
      9  NZ        37.2780   35.1190   -1.3250 N.3   1323  LYS1323    -0.1314
     10  OXT       39.8040   37.5570   -5.4820 O.co2 1323  LYS1323    -0.2441
@<TRIPOS>BOND
     1     4     3   ar
     2    10     3   ar
     3     3     2    1
     4     2     1    1
     5     2     5    1
     6     5     6    1
     7     6     7    1
     8     8     9    1
     9     8     7    1
