@<TRIPOS>MOLECULE
8xia_XLS_A_1.pdb
 10 9 0 0 0
SMALL
GASTEIGER

@<TRIPOS>ATOM
      1  C1        33.5190   31.1070   57.2810 C.3   389  XLS389      0.2175
      2  C2        32.8700   32.1410   58.0030 C.3   389  XLS389      0.2175
      3  C3        33.7220   33.3180   58.2570 C.3   389  XLS389      0.2175
      4  C4        35.1660   32.7830   57.9070 C.3   389  XLS389      0.2175
      5  C5        35.6360   34.0550   57.1700 C.3   389  XLS389      0.2175
      6  O1        32.5480   30.9530   56.2590 O.3   389  XLS389     -0.2175
      7  O2        31.6330   32.4510   57.6520 O.3   389  XLS389     -0.2175
      8  O3        33.3540   34.0950   59.3460 O.3   389  XLS389     -0.2175
      9  O4        35.7200   32.1210   59.0400 O.3   389  XLS389     -0.2175
     10  O5        35.8400   35.2620   57.9230 O.3   389  XLS389     -0.2175
@<TRIPOS>BOND
     1     6     1    1
     2     5     4    1
     3     5    10    1
     4     1     2    1
     5     7     2    1
     6     4     3    1
     7     4     9    1
     8     2     3    1
     9     3     8    1
