@<TRIPOS>MOLECULE
8xim_XLS_A_1.pdb
 10 9 0 0 0
SMALL
GASTEIGER

@<TRIPOS>ATOM
      1  C1        30.4590   44.1100  171.7970 C.3   397  XLS397      0.2175
      2  C2        31.6070   43.7180  170.8910 C.3   397  XLS397      0.2175
      3  C3        31.6850   42.1970  170.6840 C.3   397  XLS397      0.2175
      4  C4        33.0370   41.7510  170.1370 C.3   397  XLS397      0.2175
      5  C5        33.1780   40.2450  170.2060 C.3   397  XLS397      0.2175
      6  O1        30.5860   45.5020  172.0750 O.3   397  XLS397     -0.2175
      7  O2        31.4540   44.4150  169.6510 O.3   397  XLS397     -0.2175
      8  O3        30.6680   41.7730  169.7680 O.3   397  XLS397     -0.2175
      9  O4        33.3270   42.2550  168.8220 O.3   397  XLS397     -0.2175
     10  O5        33.5240   39.8520  171.5180 O.3   397  XLS397     -0.2175
@<TRIPOS>BOND
     1     9     4    1
     2     7     2    1
     3     8     3    1
     4     4     5    1
     5     4     3    1
     6     5    10    1
     7     3     2    1
     8     2     1    1
     9     1     6    1
