@<TRIPOS>MOLECULE
966c_RS2_A_1.pdb
 48 50 0 0 0
SMALL
GASTEIGER

@<TRIPOS>ATOM
      1  C1         6.7140   -7.7550   42.3250 C.ar    1  RS21       -0.0583
      2  C2         5.3340   -7.8810   42.2350 C.ar    1  RS21       -0.0615
      3  C3         4.7190   -7.7530   41.0000 C.ar    1  RS21       -0.0583
      4  C4         5.4650   -7.5420   39.8360 C.ar    1  RS21       -0.0193
      5  C5         6.8450   -7.4470   39.9210 C.ar    1  RS21        0.1284
      6  C6         7.4640   -7.5190   41.1630 C.ar    1  RS21       -0.0193
      7  O12        7.5780   -7.3090   38.7820 O.3     1  RS21       -0.4560
      8  C13        8.1470   -8.4410   38.1950 C.ar    1  RS21        0.1285
      9  C14        8.1560   -9.7450   38.7750 C.ar    1  RS21       -0.0175
     10  C15        8.7360  -10.8210   38.0880 C.ar    1  RS21       -0.0334
     11  C16        9.2480  -10.6020   36.8260 C.ar    1  RS21        0.0890
     12  C17        9.3280   -9.3170   36.2600 C.ar    1  RS21       -0.0334
     13  C18        8.7630   -8.2400   36.9520 C.ar    1  RS21       -0.0175
     14  S23        9.7950  -12.0130   35.8710 S.O2    1  RS21        0.0031
     15  C24       11.5470  -12.1890   36.1860 C.3     1  RS21        0.1053
     16  O25        9.5630  -11.7280   34.4700 O.2     1  RS21       -0.1688
     17  O26        9.1070  -13.1280   36.4170 O.2     1  RS21       -0.1688
     18  C27       12.3670  -11.0400   35.4610 C.3     1  RS21        0.0515
     19  C28       12.6400   -9.6860   36.2030 C.2     1  RS21        0.2375
     20  O31       12.9450   -9.6110   37.3810 O.2     1  RS21       -0.2737
     21  N32       12.5200   -8.5850   35.4500 N.am    1  RS21       -0.1974
     22  O33       12.6700   -7.2650   35.9480 O.3     1  RS21       -0.2952
     23  C36       11.8130  -13.5790   35.5150 C.3     1  RS21       -0.0034
     24  C37       13.2860  -14.0460   35.7420 C.3     1  RS21        0.0497
     25  O38       13.6120  -13.9490   37.1330 O.3     1  RS21       -0.3796
     26  C39       13.3480  -12.7440   37.8640 C.3     1  RS21        0.0497
     27  C40       11.8640  -12.3560   37.7120 C.3     1  RS21       -0.0034
     28  H1         7.1940   -7.8270   43.2810 H       1  RS21        0.0619
     29  H2         4.7520   -8.0600   43.1270 H       1  RS21        0.0618
     30  H3         3.6430   -7.8390   40.9600 H       1  RS21        0.0619
     31  H4         4.9550   -7.4790   38.8890 H       1  RS21        0.0654
     32  H6         8.5230   -7.4460   41.2680 H       1  RS21        0.0654
     33  H14        7.7430   -9.9410   39.7530 H       1  RS21        0.0655
     34  H15        8.7750  -11.8050   38.5380 H       1  RS21        0.0638
     35  H17        9.7810   -9.1380   35.2970 H       1  RS21        0.0638
     36  H18        8.8020   -7.2430   36.5300 H       1  RS21        0.0655
     37 H271       11.8740  -10.8120   34.5260 H       1  RS21        0.0381
     38 H272       13.3310  -11.3680   35.1330 H       1  RS21        0.0381
     39  HNW       12.2380   -8.7420   34.4850 H       1  RS21        0.1822
     40  HOX       12.7770   -6.6600   35.2300 H       1  RS21        0.2414
     41 H361       11.5520  -13.6110   34.4750 H       1  RS21        0.0309
     42 H362       11.1980  -14.3360   35.9800 H       1  RS21        0.0309
     43 H371       14.0070  -13.4900   35.1760 H       1  RS21        0.0560
     44 H372       13.4260  -15.0760   35.4440 H       1  RS21        0.0560
     45 H391       14.0160  -11.9820   37.5110 H       1  RS21        0.0560
     46 H392       13.6140  -12.9000   38.8990 H       1  RS21        0.0560
     47 H401       11.2550  -13.1390   38.1410 H       1  RS21        0.0309
     48 H402       11.6320  -11.4730   38.2860 H       1  RS21        0.0309
@<TRIPOS>BOND
     1    16    14    2
     2    41    23    1
     3    39    21    1
     4    37    18    1
     5    38    18    1
     6    43    24    1
     7    40    22    1
     8    35    12    1
     9    44    24    1
    10    21    22    1
    11    21    19   am
    12    18    15    1
    13    18    19    1
    14    23    24    1
    15    23    42    1
    16    23    15    1
    17    24    25    1
    18    14    15    1
    19    14    17    2
    20    14    11    1
    21    15    27    1
    22    19    20    2
    23    12    11   ar
    24    12    13   ar
    25    36    13    1
    26    11    10   ar
    27    13     8   ar
    28    25    26    1
    29    45    26    1
    30    27    26    1
    31    27    47    1
    32    27    48    1
    33    26    46    1
    34    10    34    1
    35    10     9   ar
    36     8     9   ar
    37     8     7    1
    38     9    33    1
    39     7     5    1
    40    31     4    1
    41     4     5   ar
    42     4     3   ar
    43     5     6   ar
    44    30     3    1
    45     3     2   ar
    46     6    32    1
    47     6     1   ar
    48     2     1   ar
    49     2    29    1
    50     1    28    1
