@<TRIPOS>MOLECULE
9aat_PMP_A_1.pdb
 16 16 0 0 0
SMALL
GASTEIGER

@<TRIPOS>ATOM
      1  N1         7.2650   -1.0450   11.6190 N.ar  411  PMP411     -0.2452
      2  C2         7.9500   -1.3390   10.4850 C.ar  411  PMP411      0.0978
      3  C2A        7.4510   -2.3400    9.4460 C.3   411  PMP411      0.0555
      4  C3         9.0020   -0.4530   10.1760 C.ar  411  PMP411      0.2063
      5  O3         9.7650   -0.7010    9.0220 O.3   411  PMP411     -0.2856
      6  C4         9.4140    0.4970   11.1310 C.ar  411  PMP411      0.0369
      7  C4A       10.6850    1.2890   10.8280 C.3   411  PMP411      0.1386
      8  N4A       10.3740    2.3770    9.8850 N.3   411  PMP411     -0.1261
      9  C5         8.7930    0.5250   12.3880 C.ar  411  PMP411      0.0275
     10  C6         7.7280   -0.3340   12.6640 C.ar  411  PMP411      0.0965
     11  C5A        9.4400    1.3980   13.4790 C.3   411  PMP411      0.1816
     12  O4P        9.6250    2.7330   13.0070 O.3   411  PMP411     -0.2653
     13  P          9.9540    3.8940   14.0660 P.3   411  PMP411      0.5329
     14  O1P        8.9380    4.9640   13.9330 O.3   411  PMP411     -0.1145
     15  O2P       11.2940    4.4300   13.6820 O.2   411  PMP411     -0.2224
     16  O3P       10.0620    3.3120   15.4390 O.3   411  PMP411     -0.1145
@<TRIPOS>BOND
     1     5     4    1
     2     3     2    1
     3     8     7    1
     4     4     2   ar
     5     4     6   ar
     6     2     1   ar
     7     7     6    1
     8     6     9   ar
     9     1    10   ar
    10     9    10   ar
    11     9    11    1
    12    12    11    1
    13    12    13    1
    14    15    13    2
    15    14    13    1
    16    13    16    1
