@<TRIPOS>MOLECULE
9abp_GAL_A_1.pdb
 12 12 0 0 0
SMALL
GASTEIGER

@<TRIPOS>ATOM
      1  C1        14.2590   56.3430   54.8690 C.3   308  GAL308      0.3024
      2  C2        12.8610   56.8100   54.5580 C.3   308  GAL308      0.2434
      3  C3        12.4060   56.0910   53.2890 C.3   308  GAL308      0.2199
      4  C4        13.3550   56.3430   52.1290 C.3   308  GAL308      0.2144
      5  C5        14.7470   55.9050   52.5650 C.3   308  GAL308      0.1836
      6  C6        15.7620   56.1560   51.4520 C.3   308  GAL308      0.2142
      7  O1        14.8800   57.0110   55.9670 O.3   308  GAL308     -0.1869
      8  O2        11.9070   56.5150   55.5860 O.3   308  GAL308     -0.2148
      9  O3        11.0420   56.3860   52.9700 O.3   308  GAL308     -0.2174
     10  O4        13.2490   57.6640   51.5920 O.3   308  GAL308     -0.2176
     11  O5        15.1290   56.5940   53.7560 O.3   308  GAL308     -0.3236
     12  O6        17.0260   55.5600   51.7710 O.3   308  GAL308     -0.2176
@<TRIPOS>BOND
     1     6    12    1
     2     6     5    1
     3    10     4    1
     4     4     5    1
     5     4     3    1
     6     5    11    1
     7     9     3    1
     8     3     2    1
     9    11     1    1
    10     2     1    1
    11     2     8    1
    12     1     7    1
