@<TRIPOS>MOLECULE
9abp_GLA_A_1.pdb
 12 12 0 0 0
SMALL
GASTEIGER

@<TRIPOS>ATOM
      1  C1        14.2590   56.7670   54.8930 C.3   307  GLA307      0.3024
      2  C2        12.8670   57.2120   54.4880 C.3   307  GLA307      0.2434
      3  C3        12.4120   56.3070   53.3440 C.3   307  GLA307      0.2199
      4  C4        13.3770   56.3570   52.1680 C.3   307  GLA307      0.2144
      5  C5        14.7520   55.9690   52.6900 C.3   307  GLA307      0.1836
      6  C6        15.7840   56.0200   51.5690 C.3   307  GLA307      0.2142
      7  O1        14.1980   55.4310   55.3990 O.3   307  GLA307     -0.1869
      8  O2        11.8960   57.0900   55.5390 O.3   307  GLA307     -0.2148
      9  O3        11.0590   56.5650   52.9700 O.3   307  GLA307     -0.2174
     10  O4        13.3050   57.5850   51.4370 O.3   307  GLA307     -0.2176
     11  O5        15.1410   56.8380   53.7560 O.3   307  GLA307     -0.3236
     12  O6        17.0370   55.4590   51.9890 O.3   307  GLA307     -0.2176
@<TRIPOS>BOND
     1    10     4    1
     2     6    12    1
     3     6     5    1
     4     4     5    1
     5     4     3    1
     6     5    11    1
     7     9     3    1
     8     3     2    1
     9    11     1    1
    10     2     1    1
    11     2     8    1
    12     1     7    1
