@<TRIPOS>MOLECULE
9est_IBR_A_1.pdb
 16 16 0 0 0
SMALL
GASTEIGER

@<TRIPOS>ATOM
      1  C'        -6.9530   23.5220   37.9520 C.2   600  IBR600      0.2339
      2  O'        -5.9870   23.2630   38.6400 O.2   600  IBR600     -0.2832
      3  C1'       -7.7740   21.6850   36.7310 C.ar  600  IBR600     -0.0078
      4  C2'       -7.1200   22.8890   36.7360 C.ar  600  IBR600      0.0401
      5  C3'       -6.4460   23.3410   35.5910 C.ar  600  IBR600      0.0210
      6  C4'       -6.5400   22.6200   34.3990 C.ar  600  IBR600      0.0892
      7  C5'       -7.2860   21.4320   34.3630 C.ar  600  IBR600      0.0177
      8  C6'       -7.9060   20.9620   35.5260 C.ar  600  IBR600     -0.0022
      9  N         -5.9030   23.0940   33.2350 N.pl3 600  IBR600     -0.1281
     10  C1        -9.7920   20.5070   37.7620 C.2   600  IBR600      0.3215
     11  C2        -8.5080   21.2760   38.0130 C.3   600  IBR600      0.1360
     12  O11      -10.5730   20.7390   36.6260 O.3   600  IBR600     -0.4473
     13  O12      -10.1890   19.6620   38.6060 O.2   600  IBR600     -0.2497
     14  C1E      -10.8800   20.0710   34.2950 C.3   600  IBR600      0.1149
     15  C2E      -10.8150   19.5970   35.7620 C.3   600  IBR600      0.2206
     16 BR        -12.7350   20.1920   33.6380 Br    600  IBR600     -0.0767
@<TRIPOS>BOND
     1     9     6    1
     2    16    14    1
     3    14    15    1
     4     7     6   ar
     5     7     8   ar
     6     6     5   ar
     7     8     3   ar
     8     5     4   ar
     9    15    12    1
    10    12    10    1
    11     3     4   ar
    12     3    11    1
    13     4     1    1
    14    10    11    1
    15    10    13    2
    16     1     2    2
