@<TRIPOS>MOLECULE
9gpb_PLP_A_1.pdb
 15 15 0 0 0
SMALL
GASTEIGER

@<TRIPOS>ATOM
      1  N1        41.6430    2.9450   29.7380 N.ar  999  PLP999     -0.2452
      2  C2        40.9710    2.1330   30.5700 C.ar  999  PLP999      0.0978
      3  C2A       40.8280    2.5330   31.9770 C.3   999  PLP999      0.0555
      4  C3        40.3550    1.0140   30.1130 C.ar  999  PLP999      0.2049
      5  O3        39.7740    0.1830   31.0200 O.3   999  PLP999     -0.2857
      6  C4        40.3940    0.7140   28.7620 C.ar  999  PLP999      0.0182
      7  C4A       39.7130   -0.4840   28.1680 C.3   999  PLP999      0.0342
      8  C5        41.0590    1.5650   27.9230 C.ar  999  PLP999      0.0261
      9  C6        41.6910    2.6670   28.4210 C.ar  999  PLP999      0.0965
     10  C5A       40.9920    1.3790   26.4460 C.3   999  PLP999      0.1815
     11  O4P       40.0200    2.2640   25.8780 O.3   999  PLP999     -0.2653
     12  P         40.1720    2.9330   24.4370 P.3   999  PLP999      0.5329
     13  O1P       40.6970    1.8550   23.5650 O.2   999  PLP999     -0.2224
     14  O2P       38.7650    3.3790   24.1700 O.3   999  PLP999     -0.1145
     15  O3P       41.0620    4.0760   24.6100 O.3   999  PLP999     -0.1145
@<TRIPOS>BOND
     1    13    12    2
     2    14    12    1
     3    12    15    1
     4    12    11    1
     5    11    10    1
     6    10     8    1
     7     8     9   ar
     8     8     6   ar
     9     7     6    1
    10     9     1   ar
    11     6     4   ar
    12     1     2   ar
    13     4     2   ar
    14     4     5    1
    15     2     3    1
