@<TRIPOS>MOLECULE
9gss_GTX_A_1.pdb
 26 25 0 0 0
SMALL
GASTEIGER

@<TRIPOS>ATOM
      1  N1        14.4910   10.7470   23.3420 N.3   211  GTX211     -0.1208
      2  CA1       14.3880    9.8400   24.5010 C.3   211  GTX211      0.1948
      3  C1        15.5500    8.8540   24.4490 C.2   211  GTX211      0.3819
      4  O11       15.9380    8.3210   25.5140 O.co2 211  GTX211     -0.2441
      5  O12       16.0820    8.6710   23.3270 O.co2 211  GTX211     -0.2441
      6  CB1       13.0510    9.1040   24.4630 C.3   211  GTX211      0.0402
      7  CG1       12.7900    8.2250   25.6780 C.3   211  GTX211      0.0889
      8  CD1       11.3290    7.8780   25.8220 C.2   211  GTX211      0.2418
      9  OE1       10.5850    7.8610   24.8430 O.2   211  GTX211     -0.2733
     10  N2        10.9060    7.5680   27.0370 N.am  211  GTX211     -0.1969
     11  CA2        9.5070    7.2600   27.2730 C.3   211  GTX211      0.1834
     12  C2         9.1510    7.5330   28.7270 C.2   211  GTX211      0.2626
     13  O2        10.0260    7.5960   29.5880 O.2   211  GTX211     -0.2714
     14  CB2        9.1750    5.8170   26.8650 C.3   211  GTX211      0.0886
     15  SG2        9.9290    4.5810   27.8720 S.3   211  GTX211     -0.1379
     16  C1S        9.8000    3.1360   26.7960 C.3   211  GTX211      0.0576
     17  C2S        8.5090    2.3710   26.9400 C.3   211  GTX211      0.0116
     18  C3S        8.2820    1.9050   28.3700 C.3   211  GTX211      0.0009
     19  C4S        7.2080    0.8200   28.4100 C.3   211  GTX211      0.0000
     20  C5S        6.8700    0.3590   29.8260 C.3   211  GTX211      0.0000
     21  C6S        6.0160    1.3830   30.5470 C.3   211  GTX211      0.0000
     22  N3         7.8610    7.7110   28.9800 N.am  211  GTX211     -0.1917
     23  CA3        7.3870    8.0120   30.3170 C.3   211  GTX211      0.2285
     24  C3         6.7850    9.4120   30.3210 C.2   211  GTX211      0.3865
     25  O31        5.9500    9.6990   31.1990 O.co2 211  GTX211     -0.2437
     26  O32        7.1210   10.2230   29.4250 O.co2 211  GTX211     -0.2437
@<TRIPOS>BOND
     1     5     3   ar
     2     1     2    1
     3     3     2    1
     4     3     4   ar
     5     6     2    1
     6     6     7    1
     7     9     8    2
     8     7     8    1
     9     8    10   am
    10    16    17    1
    11    16    15    1
    12    14    11    1
    13    14    15    1
    14    17    18    1
    15    10    11    1
    16    11    12    1
    17    18    19    1
    18    19    20    1
    19    12    22   am
    20    12    13    2
    21    22    23    1
    22    26    24   ar
    23    20    21    1
    24    23    24    1
    25    24    25   ar
