@<TRIPOS>MOLECULE
9ica_STP_A_1.pdb
 13 12 0 0 0
SMALL
GASTEIGER

@<TRIPOS>ATOM
      1  PG        74.0110   35.8870   53.5000 P.3   338  STP338      0.5373
      2  O1G       74.8600   35.2470   52.4730 O.2   338  STP338     -0.2221
      3  O2G       74.6740   36.5240   54.6720 O.3   338  STP338     -0.1143
      4  O3G       72.9160   34.8440   53.9940 O.3   338  STP338     -0.1143
      5  PB        72.8970   37.2220   51.2250 P.3   338  STP338      0.2302
      6  O1B       72.8760   38.6950   51.0960 O.3   338  STP338     -0.4368
      7  O2B       73.9620   36.4680   50.5090 O.2   338  STP338     -0.5167
      8  O3B       73.0440   36.9280   52.7560 O.3   338  STP338     -0.2257
      9  PA        70.6350   35.3300   50.2950 P.3   338  STP338      0.4341
     10  S1A       71.2880   34.0960   50.8020 S.3   338  STP338      0.0416
     11  O2A       69.1660   35.4450   50.5290 O.3   338  STP338     -0.1305
     12  O3A       71.3670   36.6380   50.9150 O.3   338  STP338     -0.2404
     13  O5'       70.9300   35.4960   48.7300 O.2   338  STP338     -0.2423
@<TRIPOS>BOND
     1    13     9    2
     2     9    11    1
     3     9    10    1
     4     9    12    1
     5     7     5    2
     6    12     5    1
     7     6     5    1
     8     5     8    1
     9     2     1    2
    10     8     1    1
    11     1     4    1
    12     1     3    1
