@<TRIPOS>MOLECULE
9icb_DTP_A_1.pdb
 20 20 0 0 0
SMALL
GASTEIGER

@<TRIPOS>ATOM
      1  PG        74.1010   36.4580   53.2320 P.3   338  DTP338      0.5373
      2  O1G       74.9210   35.4600   52.4960 O.2   338  DTP338     -0.2221
      3  O2G       74.7620   37.2440   54.3080 O.3   338  DTP338     -0.1143
      4  O3G       72.7910   35.7420   53.7820 O.3   338  DTP338     -0.1143
      5  PB        73.5040   37.5390   50.5780 P.3   338  DTP338      0.2277
      6  O1B       73.7010   38.9410   50.1560 O.3   338  DTP338     -0.4368
      7  O2B       74.4340   36.5100   50.0350 O.2   338  DTP338     -0.5168
      8  O3B       73.4500   37.4800   52.1570 O.3   338  DTP338     -0.2258
      9  PA        71.2620   35.7270   49.9600 P.3   338  DTP338      0.2189
     10  O1A       72.0120   34.6520   50.6510 O.3   338  DTP338     -0.4371
     11  O2A       69.7990   35.8540   50.2410 O.2   338  DTP338     -0.5170
     12  O3A       71.9670   37.1160   50.2760 O.3   338  DTP338     -0.2700
     13  O5'       71.5100   35.6650   48.3820 O.3   338  DTP338     -0.3112
     14  C5'       70.3760   36.0730   47.6620 C.3   338  DTP338      0.1811
     15  C4'       70.7660   36.7740   46.3570 C.3   338  DTP338      0.1753
     16  O4'       69.5980   37.4190   45.8320 O.3   338  DTP338     -0.3510
     17  C3'       71.7750   37.8820   46.5260 C.3   338  DTP338      0.1839
     18  O3'       72.0910   38.2600   45.1990 O.3   338  DTP338     -0.2204
     19  C2'       70.9140   39.0270   46.9760 C.3   338  DTP338      0.0676
     20  C1'       69.6490   38.8120   46.1430 C.3   338  DTP338      0.1450
@<TRIPOS>BOND
     1    18    17    1
     2    16    20    1
     3    16    15    1
     4    20    19    1
     5    15    17    1
     6    15    14    1
     7    17    19    1
     8    14    13    1
     9    13     9    1
    10     9    11    2
    11     9    12    1
    12     9    10    1
    13     7     5    2
    14     6     5    1
    15    12     5    1
    16     5     8    1
    17     8     1    1
    18     2     1    2
    19     1     4    1
    20     1     3    1
