@<TRIPOS>MOLECULE
9icc_DTP_A_1.pdb
 20 20 0 0 0
SMALL
GASTEIGER

@<TRIPOS>ATOM
      1  PG        74.6660   35.1920   52.0940 P.3   338  DTP338      0.5373
      2  O1G       74.9580   36.5580   51.6220 O.3   338  DTP338     -0.1143
      3  O2G       74.8100   34.9050   53.5300 O.3   338  DTP338     -0.1143
      4  O3G       75.4440   34.1180   51.2010 O.2   338  DTP338     -0.2221
      5  PB        72.0750   35.7090   51.2520 P.3   338  DTP338      0.2277
      6  O1B       70.8610   34.9790   51.5370 O.2   338  DTP338     -0.5168
      7  O2B       72.0960   37.0860   51.6760 O.3   338  DTP338     -0.4368
      8  O3B       73.2420   34.8440   51.7070 O.3   338  DTP338     -0.2258
      9  PA        70.8590   35.5290   48.9940 P.3   338  DTP338      0.2189
     10  O1A       70.1590   34.2390   48.8990 O.2   338  DTP338     -0.5170
     11  O2A       70.1340   36.6620   49.6470 O.3   338  DTP338     -0.4371
     12  O3A       72.1690   35.4190   49.7260 O.3   338  DTP338     -0.2700
     13  O5'       71.5370   35.8820   47.6270 O.3   338  DTP338     -0.3112
     14  C5'       70.7040   35.9150   46.5630 C.3   338  DTP338      0.1811
     15  C4'       71.0350   37.0070   45.6090 C.3   338  DTP338      0.1753
     16  O4'       69.9050   37.3310   44.8010 O.3   338  DTP338     -0.3510
     17  C3'       71.3950   38.3150   46.2730 C.3   338  DTP338      0.1839
     18  O3'       72.1010   39.0740   45.3170 O.3   338  DTP338     -0.2204
     19  C2'       70.0270   38.9470   46.5420 C.3   338  DTP338      0.0676
     20  C1'       69.2130   38.4210   45.3450 C.3   338  DTP338      0.1450
@<TRIPOS>BOND
     1    16    20    1
     2    16    15    1
     3    18    17    1
     4    20    19    1
     5    15    17    1
     6    15    14    1
     7    17    19    1
     8    14    13    1
     9    13     9    1
    10    10     9    2
    11     9    11    1
    12     9    12    1
    13    12     5    1
    14     4     1    2
    15     5     6    2
    16     5     7    1
    17     5     8    1
    18     2     1    1
    19     8     1    1
    20     1     3    1
