@<TRIPOS>MOLECULE
9icd_NAP_A_1.pdb
 27 29 0 0 0
SMALL
GASTEIGER

@<TRIPOS>ATOM
      1  PA        92.2630   68.0070   -4.8080 P.3   417  NAP417      0.5327
      2  O1A       90.9990   67.5990   -4.0720 O.3   417  NAP417     -0.1145
      3  O2A       92.1430   68.3570   -6.2680 O.2   417  NAP417     -0.2224
      4  O5B       92.9560   69.3650   -4.0630 O.3   417  NAP417     -0.2675
      5  C5B       92.9840   70.5920   -4.8760 C.3   417  NAP417      0.1860
      6  C4B       94.2650   71.4820   -4.9610 C.3   417  NAP417      0.1822
      7  O4B       94.6380   72.2440   -3.7720 O.3   417  NAP417     -0.3136
      8  C3B       95.5560   70.7450   -5.3140 C.3   417  NAP417      0.2157
      9  O3B       95.6060   70.3770   -6.6870 O.3   417  NAP417     -0.2175
     10  C2B       96.6440   71.7390   -4.9400 C.3   417  NAP417      0.2314
     11  O2B       96.5020   73.0090   -5.5770 O.3   417  NAP417     -0.2630
     12  C1B       96.0700   72.1220   -3.6050 C.3   417  NAP417      0.3158
     13  N9A       96.4410   71.2080   -2.4800 N.pl3 417  NAP417     -0.1439
     14  C8A       95.8060   70.0480   -2.0030 C.3   417  NAP417      0.3377
     15  N7A       96.3310   69.6110   -0.8850 N.2   417  NAP417     -0.2095
     16  C5A       97.3580   70.5150   -0.5980 C.2   417  NAP417      0.2526
     17  C6A       98.2850   70.5970    0.4440 C.2   417  NAP417      0.4393
     18  N6A       98.3330   69.7400    1.4290 N.pl3 417  NAP417      0.2180
     19  N1A       99.1900   71.5750    0.3900 N.2   417  NAP417      0.0021
     20  C2A       99.1860   72.4550   -0.6200 C.3   417  NAP417      0.5254
     21  N3A       98.3490   72.4960   -1.6640 N.2   417  NAP417     -0.0055
     22  C4A       97.4410   71.4870   -1.5770 C.2   417  NAP417      0.3518
     23  O3        93.4580   66.8580   -4.7070 O.3   417  NAP417     -0.1145
     24  P2B       97.5240   73.6230   -6.7080 P.3   417  NAP417      0.5328
     25  O1X       97.0190   74.9710   -7.1020 O.3   417  NAP417     -0.1145
     26  O2X       97.6760   72.5310   -7.7170 O.2   417  NAP417     -0.2224
     27  O3X       98.9760   73.9170   -6.0420 O.3   417  NAP417     -0.1145
@<TRIPOS>BOND
     1    26    24    2
     2    25    24    1
     3    24    27    1
     4    24    11    1
     5     9     8    1
     6     3     1    2
     7    11    10    1
     8     8     6    1
     9     8    10    1
    10     6     5    1
    11     6     7    1
    12    10    12    1
    13     5     4    1
    14     1    23    1
    15     1     2    1
    16     1     4    1
    17     7    12    1
    18    12    13    1
    19    13    14    1
    20    13    22    1
    21    14    15    1
    22    21    22    2
    23    21    20    1
    24    22    16    1
    25    15    16    2
    26    20    19    1
    27    16    17    1
    28    19    17    2
    29    17    18    1
