@<TRIPOS>MOLECULE
9icf_DTP_A_1.pdb
 14 12 0 0 0
SMALL
GASTEIGER

@<TRIPOS>ATOM
      1  PG        74.3900   35.5530   52.8290 P.3   338  DTP338      0.5373
      2  O1G       75.3640   35.4850   51.7200 O.2   338  DTP338     -0.2221
      3  O2G       74.8980   35.7360   54.2110 O.3   338  DTP338     -0.1143
      4  O3G       73.3630   34.3520   52.7390 O.3   338  DTP338     -0.1143
      5  PB        73.5370   37.9040   51.5120 P.3   338  DTP338      0.2317
      6  O1B       72.8500   39.0490   52.1270 O.3   338  DTP338     -0.4368
      7  O2B       74.9680   38.0450   51.1180 O.2   338  DTP338     -0.5167
      8  O3B       73.3960   36.7540   52.5350 O.3   338  DTP338     -0.2257
      9  PA        72.7390   36.8430   48.7670 P.3   338  DTP338      0.5373
     10  O1A       73.6630   35.6970   48.6790 O.3   338  DTP338     -0.1143
     11  O2A       71.3930   36.6360   48.1540 O.3   338  DTP338     -0.1143
     12  O3A       72.6110   37.2440   50.3250 O.3   338  DTP338     -0.2257
     13  O5'       73.4060   38.1440   48.1160 O.2   338  DTP338     -0.2221
     14  O3'       71.9910   37.1520   45.7810 O.3   338  DTP338      0.0000
@<TRIPOS>BOND
     1    13     9    2
     2    11     9    1
     3    10     9    1
     4     9    12    1
     5    12     5    1
     6     7     5    2
     7     5     6    1
     8     5     8    1
     9     2     1    2
    10     8     1    1
    11     4     1    1
    12     1     3    1
