@<TRIPOS>MOLECULE
9icg_DCP_A_1.pdb
 20 20 0 0 0
SMALL
GASTEIGER

@<TRIPOS>ATOM
      1  C1'       69.8510   38.8460   46.0230 C.3   338  DCP338      0.1450
      2  C2'       71.1140   39.0190   46.8690 C.3   338  DCP338      0.0676
      3  C3'       71.9210   37.8100   46.4750 C.3   338  DCP338      0.1839
      4  C4'       70.8490   36.7630   46.3400 C.3   338  DCP338      0.1753
      5  O4'       69.7450   37.4490   45.7470 O.3   338  DCP338     -0.3510
      6  O3'       72.3230   38.1160   45.1480 O.3   338  DCP338     -0.2204
      7  C5'       70.3840   36.1480   47.6650 C.3   338  DCP338      0.1811
      8  O5'       71.4860   35.7520   48.4720 O.3   338  DCP338     -0.3112
      9  PA        71.1880   35.6650   50.0510 P.3   338  DCP338      0.2189
     10  O1A       71.8380   34.4780   50.6390 O.3   338  DCP338     -0.4371
     11  O2A       69.7450   35.8600   50.3390 O.2   338  DCP338     -0.5170
     12  O3A       71.9550   36.9620   50.5340 O.3   338  DCP338     -0.2700
     13  PB        73.5120   37.3310   50.8050 P.3   338  DCP338      0.2277
     14  O1B       73.7150   38.7760   50.5530 O.3   338  DCP338     -0.4368
     15  O2B       74.4350   36.3650   50.1440 O.2   338  DCP338     -0.5168
     16  O3B       73.5220   37.0930   52.3480 O.3   338  DCP338     -0.2258
     17  PG        74.3560   36.0220   53.1990 P.3   338  DCP338      0.5373
     18  O1G       75.0290   35.1350   52.2140 O.2   338  DCP338     -0.2221
     19  O2G       75.1920   36.7390   54.2070 O.3   338  DCP338     -0.1143
     20  O3G       73.1460   35.2850   53.8980 O.3   338  DCP338     -0.1143
@<TRIPOS>BOND
     1     6     3    1
     2     5     1    1
     3     5     4    1
     4     1     2    1
     5     4     3    1
     6     4     7    1
     7     3     2    1
     8     7     8    1
     9     8     9    1
    10     9    11    2
    11     9    12    1
    12     9    10    1
    13    15    13    2
    14    12    13    1
    15    14    13    1
    16    13    16    1
    17    18    17    2
    18    16    17    1
    19    17    20    1
    20    17    19    1
