@<TRIPOS>MOLECULE
9ich_DGT_A_1.pdb
 13 12 0 0 0
SMALL
GASTEIGER

@<TRIPOS>ATOM
      1  PG        74.1390   35.9390   52.9290 P.3   338  DGT338      0.5373
      2  O1G       74.9800   35.3090   51.9080 O.2   338  DGT338     -0.2221
      3  O2G       74.8180   36.6240   54.0540 O.3   338  DGT338     -0.1143
      4  O3G       73.0550   34.9110   53.4750 O.3   338  DGT338     -0.1143
      5  O3B       73.1540   36.9720   52.1730 O.3   338  DGT338     -0.2257
      6  PB        72.7880   37.0610   50.6450 P.3   338  DGT338      0.2317
      7  O1B       72.6630   38.4760   50.2370 O.3   338  DGT338     -0.4368
      8  O2B       73.7400   36.1960   49.9060 O.2   338  DGT338     -0.5167
      9  O3A       71.2940   36.4010   50.6760 O.3   338  DGT338     -0.2257
     10  PA        70.7580   34.9460   50.3500 P.3   338  DGT338      0.5373
     11  O1A       71.7080   33.9540   50.9290 O.3   338  DGT338     -0.1143
     12  O2A       69.3210   34.8350   50.7490 O.3   338  DGT338     -0.1143
     13  O5'       70.9340   34.9780   48.7670 O.2   338  DGT338     -0.2221
@<TRIPOS>BOND
     1    13    10    2
     2     8     6    2
     3     7     6    1
     4    10     9    1
     5    10    12    1
     6    10    11    1
     7     6     9    1
     8     6     5    1
     9     2     1    2
    10     5     1    1
    11     1     4    1
    12     1     3    1
