@<TRIPOS>MOLECULE
9icn_DCT_A_1.pdb
 13 12 0 0 0
SMALL
GASTEIGER

@<TRIPOS>ATOM
      1  O5'       72.3110   35.5390   49.4100 O.2   338  DCT338     -0.2221
      2  PA        71.4570   35.6400   50.7540 P.3   338  DCT338      0.5373
      3  O1A       71.9880   34.6620   51.7380 O.3   338  DCT338     -0.1143
      4  O2A       69.9980   35.6210   50.4520 O.3   338  DCT338     -0.1143
      5  O3A       71.8470   37.0950   51.2250 O.3   338  DCT338     -0.2257
      6  PB        73.2770   37.8040   51.4230 P.3   338  DCT338      0.2317
      7  O1B       73.2610   39.0480   50.6320 O.2   338  DCT338     -0.5167
      8  O2B       74.3690   36.8140   51.1970 O.3   338  DCT338     -0.4368
      9  O3B       73.1800   38.1490   52.9620 O.3   338  DCT338     -0.2257
     10  PG        73.9840   37.5990   54.2560 P.3   338  DCT338      0.5373
     11  O1G       75.0380   36.6660   53.8070 O.2   338  DCT338     -0.2221
     12  O2G       74.3840   38.7550   55.1030 O.3   338  DCT338     -0.1143
     13  O3G       72.8320   36.7610   54.9530 O.3   338  DCT338     -0.1143
@<TRIPOS>BOND
     1     1     2    2
     2     4     2    1
     3     7     6    2
     4     2     5    1
     5     2     3    1
     6     8     6    1
     7     5     6    1
     8     6     9    1
     9     9    10    1
    10    11    10    2
    11    10    13    1
    12    10    12    1
