@<TRIPOS>MOLECULE
9icq_DTP_A_1.pdb
 13 12 0 0 0
SMALL
GASTEIGER

@<TRIPOS>ATOM
      1  PG        74.6270   36.5600   53.3570 P.3   338  DTP338      0.5373
      2  O1G       75.4860   35.7290   52.4600 O.2   338  DTP338     -0.2221
      3  O2G       75.2920   37.4360   54.3720 O.3   338  DTP338     -0.1143
      4  O3G       73.5410   35.6320   54.0560 O.3   338  DTP338     -0.1143
      5  PB        73.3810   37.4640   50.8580 P.3   338  DTP338      0.2317
      6  O1B       73.3910   38.8700   50.3890 O.3   338  DTP338     -0.4368
      7  O2B       74.3190   36.4870   50.2170 O.2   338  DTP338     -0.5167
      8  O3B       73.6340   37.4560   52.4290 O.3   338  DTP338     -0.2257
      9  PA        71.0940   35.6760   50.0970 P.3   338  DTP338      0.5373
     10  O1A       71.6250   34.4150   50.6710 O.3   338  DTP338     -0.1143
     11  O2A       69.6170   35.9040   50.1810 O.3   338  DTP338     -0.1143
     12  O3A       71.8380   36.9190   50.7940 O.3   338  DTP338     -0.2257
     13  O5'       71.5920   35.8210   48.5840 O.2   338  DTP338     -0.2221
@<TRIPOS>BOND
     1    13     9    2
     2     9    11    1
     3     9    10    1
     4     9    12    1
     5     7     5    2
     6     6     5    1
     7    12     5    1
     8     5     8    1
     9     8     1    1
    10     2     1    2
    11     1     4    1
    12     1     3    1
