@<TRIPOS>MOLECULE
9icr_DCP_A_1.pdb
 20 20 0 0 0
SMALL
GASTEIGER

@<TRIPOS>ATOM
      1  C1'       70.7460   39.0560   45.4880 C.3   338  DCP338      0.1450
      2  C2'       71.0870   39.3360   46.9520 C.3   338  DCP338      0.0676
      3  C3'       72.0790   38.2340   47.2870 C.3   338  DCP338      0.1839
      4  C4'       71.5680   37.0600   46.4540 C.3   338  DCP338      0.1753
      5  O4'       70.8720   37.6420   45.3220 O.3   338  DCP338     -0.3510
      6  O3'       73.3900   38.6160   46.8870 O.3   338  DCP338     -0.2204
      7  C5'       70.6170   36.1320   47.1970 C.3   338  DCP338      0.1811
      8  O5'       71.2940   35.4520   48.2440 O.3   338  DCP338     -0.3112
      9  PA        70.6300   35.4830   49.6980 P.3   338  DCP338      0.2189
     10  O1A       70.9810   34.3050   50.5150 O.3   338  DCP338     -0.4371
     11  O2A       69.2040   35.8660   49.6070 O.2   338  DCP338     -0.5170
     12  O3A       71.4600   36.6850   50.2500 O.3   338  DCP338     -0.2700
     13  PB        73.0340   36.8550   50.5490 P.3   338  DCP338      0.2277
     14  O1B       73.3400   38.2850   50.3590 O.3   338  DCP338     -0.4368
     15  O2B       73.8290   35.8510   49.7950 O.2   338  DCP338     -0.5168
     16  O3B       72.9790   36.5190   52.0890 O.3   338  DCP338     -0.2258
     17  PG        73.8800   35.7070   53.1390 P.3   338  DCP338      0.5373
     18  O1G       74.8930   34.9010   52.4320 O.2   338  DCP338     -0.2221
     19  O2G       74.3440   36.6430   54.1760 O.3   338  DCP338     -0.1143
     20  O3G       72.7420   34.7790   53.7030 O.3   338  DCP338     -0.1143
@<TRIPOS>BOND
     1     5     1    1
     2     5     4    1
     3     1     2    1
     4     4     7    1
     5     4     3    1
     6     6     3    1
     7     2     3    1
     8     7     8    1
     9     8     9    1
    10    11     9    2
    11     9    12    1
    12     9    10    1
    13    15    13    2
    14    12    13    1
    15    14    13    1
    16    13    16    1
    17    16    17    1
    18    18    17    2
    19    17    20    1
    20    17    19    1
