@<TRIPOS>MOLECULE
9ics_DCT_A_1.pdb
 27 28 0 0 0
SMALL
GASTEIGER

@<TRIPOS>ATOM
      1  N1        68.2190   39.0090   46.1530 N.am  338  DCT338     -0.1803
      2  C2        67.2540   39.6210   45.3160 C.1   338  DCT338      0.2756
      3  N3        65.9200   39.5580   45.7070 N.2   338  DCT338     -0.3024
      4  C4        65.5840   38.9220   46.8810 C.2   338  DCT338      0.2346
      5  C5        66.5860   38.2960   47.7220 C.2   338  DCT338      0.0687
      6  C6        67.8790   38.3530   47.3080 C.2   338  DCT338      0.0835
      7  O2        67.5720   40.1570   44.2750 O.2   338  DCT338     -0.1925
      8  N4        64.2690   38.8820   47.2570 N.pl3 338  DCT338     -0.0921
      9  C1'       69.7600   38.7830   45.9230 C.3   338  DCT338      0.2063
     10  C2'       70.6190   39.4600   47.0330 C.3   338  DCT338      0.0545
     11  C3'       71.8740   38.5360   47.0750 C.3   338  DCT338      0.0366
     12  C4'       71.3560   37.1880   46.4420 C.3   338  DCT338      0.1472
     13  O4'       70.0380   37.3920   46.0270 O.3   338  DCT338     -0.3366
     14  C5'       71.3970   35.9830   47.3600 C.3   338  DCT338      0.1785
     15  O5'       71.6340   36.3540   48.6680 O.3   338  DCT338     -0.3113
     16  PA        70.9760   35.9110   50.0840 P.3   338  DCT338      0.2189
     17  O1A       71.5850   34.7090   50.6060 O.3   338  DCT338     -0.4371
     18  O2A       69.4980   36.0840   50.0580 O.2   338  DCT338     -0.5170
     19  O3A       71.6150   37.0940   50.8510 O.3   338  DCT338     -0.2700
     20  PB        73.1260   37.5800   50.9070 P.3   338  DCT338      0.2277
     21  O1B       73.1980   38.9120   50.2510 O.2   338  DCT338     -0.5168
     22  O2B       74.0070   36.5000   50.3960 O.3   338  DCT338     -0.4368
     23  O3B       73.3120   37.7610   52.4670 O.3   338  DCT338     -0.2258
     24  PG        73.6690   36.6920   53.6090 P.3   338  DCT338      0.5373
     25  O1G       73.8840   35.4390   53.0810 O.2   338  DCT338     -0.2221
     26  O2G       74.7590   37.2540   54.4560 O.3   338  DCT338     -0.1143
     27  O3G       72.3090   36.6160   54.3520 O.3   338  DCT338     -0.1143
@<TRIPOS>BOND
     1     7     2    2
     2     2     3    2
     3     2     1   am
     4     3     4    2
     5     9    13    1
     6     9     1    1
     7     9    10    1
     8    13    12    1
     9     1     6    1
    10    12    11    1
    11    12    14    1
    12     4     8    1
    13     4     5    1
    14    10    11    1
    15     6     5    2
    16    14    15    1
    17    15    16    1
    18    18    16    2
    19    16    17    1
    20    16    19    1
    21    21    20    2
    22    22    20    1
    23    19    20    1
    24    20    23    1
    25    23    24    1
    26    25    24    2
    27    24    27    1
    28    24    26    1
