@<TRIPOS>MOLECULE
9ict_DGT_A_1.pdb
 13 12 0 0 0
SMALL
GASTEIGER

@<TRIPOS>ATOM
      1  PG        74.2450   36.4460   53.4180 P.3   338  DGT338      0.5373
      2  O1G       75.1160   35.6130   52.5540 O.2   338  DGT338     -0.2221
      3  O2G       74.8790   37.3130   54.4550 O.3   338  DGT338     -0.1143
      4  O3G       73.1000   35.5520   54.0560 O.3   338  DGT338     -0.1143
      5  O3B       73.3140   37.3830   52.4910 O.3   338  DGT338     -0.2257
      6  PB        73.0760   37.4200   50.9380 P.3   338  DGT338      0.2317
      7  O1B       73.0560   38.8330   50.4840 O.3   338  DGT338     -0.4368
      8  O2B       73.9900   36.4590   50.2660 O.2   338  DGT338     -0.5167
      9  O3A       71.5650   36.8530   50.8970 O.3   338  DGT338     -0.2257
     10  PA        70.9640   35.6310   50.1050 P.3   338  DGT338      0.5373
     11  O1A       71.5310   34.3950   50.6870 O.3   338  DGT338     -0.1143
     12  O2A       69.4810   35.7690   50.0130 O.3   338  DGT338     -0.1143
     13  O5'       71.6530   35.9120   48.6940 O.2   338  DGT338     -0.2221
@<TRIPOS>BOND
     1    13    10    2
     2    12    10    1
     3    10    11    1
     4    10     9    1
     5     8     6    2
     6     7     6    1
     7     9     6    1
     8     6     5    1
     9     5     1    1
    10     2     1    2
    11     1     4    1
    12     1     3    1
