@<TRIPOS>MOLECULE
9icu_TTP_A_1.pdb
 20 20 0 0 0
SMALL
GASTEIGER

@<TRIPOS>ATOM
      1  PA        70.6030   35.2770   49.6960 P.3   338  TTP338      0.2189
      2  O1A       71.0370   34.0580   50.4120 O.3   338  TTP338     -0.4371
      3  O2A       69.1730   35.6510   49.8470 O.2   338  TTP338     -0.5170
      4  O3A       71.4830   36.4740   50.2070 O.3   338  TTP338     -0.2700
      5  PB        73.0700   36.7250   50.4900 P.3   338  TTP338      0.2277
      6  O1B       73.3150   38.1390   50.2560 O.3   338  TTP338     -0.4368
      7  O2B       73.9450   35.7500   49.7780 O.2   338  TTP338     -0.5168
      8  O3B       73.0650   36.5000   52.0490 O.3   338  TTP338     -0.2258
      9  PG        73.9220   35.6670   53.1260 P.3   338  TTP338      0.5373
     10  O1G       74.8480   34.7200   52.4390 O.2   338  TTP338     -0.2221
     11  O2G       74.5010   36.6010   54.1180 O.3   338  TTP338     -0.1143
     12  O3G       72.6940   34.8910   53.7630 O.3   338  TTP338     -0.1143
     13  O5'       71.1190   35.3210   48.1550 O.3   338  TTP338     -0.3112
     14  C5'       70.5270   36.1070   47.0600 C.3   338  TTP338      0.1811
     15  C4'       71.5750   37.0450   46.4700 C.3   338  TTP338      0.1753
     16  O4'       70.9550   37.7720   45.2990 O.3   338  TTP338     -0.3510
     17  C3'       72.1080   38.1700   47.3010 C.3   338  TTP338      0.1839
     18  O3'       73.2630   38.7010   46.7350 O.3   338  TTP338     -0.2204
     19  C2'       71.0380   39.2250   47.1900 C.3   338  TTP338      0.0676
     20  C1'       70.6940   39.1410   45.6800 C.3   338  TTP338      0.1450
@<TRIPOS>BOND
     1    16    20    1
     2    16    15    1
     3    20    19    1
     4    15    14    1
     5    15    17    1
     6    18    17    1
     7    14    13    1
     8    19    17    1
     9    13     1    1
    10     1     3    2
    11     1     4    1
    12     1     2    1
    13     7     5    2
    14     4     5    1
    15     6     5    1
    16     5     8    1
    17     8     9    1
    18    10     9    2
    19     9    12    1
    20     9    11    1
