@<TRIPOS>MOLECULE
9jdw_ABA_A_1.pdb
 10 9 0 0 0
SMALL
GASTEIGER

@<TRIPOS>ATOM
      1  N         45.5690   72.9660   15.2690 N.4   500  ABA500      0.3888
      2  CA        44.4420   72.5880   16.1610 C.3   500  ABA500      0.0403
      3  C         44.1160   73.7090   17.1620 C.2   500  ABA500      0.3448
      4  O         44.7680   74.7710   17.0850 O.co2 500  ABA500     -0.2480
      5  CB        44.6710   71.2140   16.8370 C.3   500  ABA500     -0.0109
      6  CG        46.0490   70.9530   17.3820 C.3   500  ABA500     -0.0017
      7  OXT       43.2000   73.5210   17.9820 O.co2 500  ABA500     -0.2480
      8  H         45.3620   73.9070   14.8820 H     500  ABA500     -0.0885
      9  HN2       45.7420   72.2620   14.5270 H     500  ABA500     -0.0885
     10  HN3       46.3940   73.0500   15.8970 H     500  ABA500     -0.0885
@<TRIPOS>BOND
     1     9     1    1
     2     8     1    1
     3     1    10    1
     4     1     2    1
     5     2     5    1
     6     2     3    1
     7     5     6    1
     8     4     3   ar
     9     3     7   ar
