@<TRIPOS>MOLECULE
9ldb_NAD_A_1.pdb
 44 48 0 0 0
SMALL
GASTEIGER

@<TRIPOS>ATOM
      1  PA         4.5640   27.8060    7.6220 P.3   401  NAD401      0.2189
      2  O1A        3.7490   27.4440    6.4650 O.2   401  NAD401     -0.5170
      3  O2A        4.5820   29.2860    7.5830 O.3   401  NAD401     -0.4371
      4  O5B        3.9790   27.2190    8.9520 O.3   401  NAD401     -0.3112
      5  C5B        4.5210   27.2820   10.2990 C.3   401  NAD401      0.1813
      6  C4B        3.3410   26.9050   11.2630 C.3   401  NAD401      0.1821
      7  O4B        3.8960   27.1370   12.5820 O.3   401  NAD401     -0.3135
      8  C3B        2.2520   28.0000   11.1110 C.3   401  NAD401      0.2184
      9  O3B        0.9730   27.4610   10.8240 O.3   401  NAD401     -0.2174
     10  C2B        2.1710   28.6630   12.4810 C.3   401  NAD401      0.2570
     11  O2B        0.9540   29.1420   12.9800 O.3   401  NAD401     -0.2130
     12  C1B        2.8800   27.6940   13.3640 C.3   401  NAD401      0.3186
     13  N9A        3.2300   28.1680   14.6960 N.pl3 401  NAD401     -0.1439
     14  C8A        3.8500   29.2720   15.1460 C.3   401  NAD401      0.3377
     15  N7A        3.9100   29.2650   16.4790 N.2   401  NAD401     -0.2095
     16  C5A        3.3250   28.1140   16.9420 C.2   401  NAD401      0.2526
     17  C6A        3.1530   27.4580   18.1820 C.2   401  NAD401      0.4393
     18  N6A        3.4480   27.7400   19.4600 N.pl3 401  NAD401      0.2180
     19  N1A        2.5320   26.2130   18.1650 N.2   401  NAD401      0.0021
     20  C2A        2.1150   25.6790   16.9890 C.3   401  NAD401      0.5254
     21  N3A        2.3420   26.1690   15.8360 N.2   401  NAD401     -0.0055
     22  C4A        2.9470   27.3790   15.8390 C.2   401  NAD401      0.3518
     23  O3         5.9980   27.1250    7.7070 O.3   401  NAD401     -0.2703
     24  PN         6.5990   25.7770    7.0030 P.3   401  NAD401      0.2189
     25  O1N        6.5750   26.0590    5.5760 O.2   401  NAD401     -0.5170
     26  O2N        5.5270   24.7570    7.2730 O.3   401  NAD401     -0.4371
     27  O5D        7.9580   25.6740    7.7090 O.3   401  NAD401     -0.3112
     28  C5D        7.8540   25.3430    9.1290 C.3   401  NAD401      0.1813
     29  C4D        9.2330   25.0470    9.6480 C.3   401  NAD401      0.1799
     30  O4D        9.7170   23.8380    8.9600 O.3   401  NAD401     -0.3327
     31  C3D       10.2970   26.1550    9.3850 C.3   401  NAD401      0.2158
     32  O3D       11.1130   26.3260   10.5570 O.3   401  NAD401     -0.2175
     33  C2D       11.1240   25.5420    8.2570 C.3   401  NAD401      0.2309
     34  O2D       12.4940   25.8750    8.1660 O.3   401  NAD401     -0.2158
     35  C1D       11.0250   24.0380    8.5310 C.3   401  NAD401      0.2263
     36  N1N       11.5490   23.1870    7.4870 N.pl3 401  NAD401     -0.2787
     37  C2N       12.3800   22.1650    7.8220 C.3   401  NAD401      0.1244
     38  C3N       12.8510   21.3140    6.8710 C.2   401  NAD401      0.0544
     39  C7N       13.9220   20.1710    7.1330 C.2   401  NAD401      0.2818
     40  O7N       14.4000   19.6180    6.1370 O.2   401  NAD401     -0.2670
     41  N7N       14.2670   20.0320    8.4300 N.am  401  NAD401     -0.0839
     42  C4N       12.4930   21.4090    5.5090 C.2   401  NAD401      0.0033
     43  C5N       11.5730   22.3980    5.2380 C.2   401  NAD401      0.0157
     44  C6N       11.1000   23.3250    6.1370 C.2   401  NAD401      0.0633
@<TRIPOS>BOND
     1    43    42    1
     2    43    44    2
     3    42    38    2
     4    25    24    2
     5    44    36    1
     6    40    39    2
     7     2     1    2
     8    38    39    1
     9    38    37    1
    10    24    26    1
    11    24    23    1
    12    24    27    1
    13    39    41   am
    14    36    37    1
    15    36    35    1
    16     3     1    1
    17     1    23    1
    18     1     4    1
    19    27    28    1
    20    34    33    1
    21    33    35    1
    22    33    31    1
    23    35    30    1
    24     4     5    1
    25    30    29    1
    26    28    29    1
    27    31    29    1
    28    31    32    1
    29     5     6    1
    30     9     8    1
    31     8     6    1
    32     8    10    1
    33     6     7    1
    34    10    11    1
    35    10    12    1
    36     7    12    1
    37    12    13    1
    38    13    14    1
    39    13    22    1
    40    14    15    1
    41    21    22    2
    42    21    20    1
    43    22    16    1
    44    15    16    2
    45    16    17    1
    46    20    19    1
    47    19    17    2
    48    17    18    1
