@<TRIPOS>MOLECULE
9ldt_NAD_A_1.pdb
 44 48 0 0 0
SMALL
GASTEIGER

@<TRIPOS>ATOM
      1  PA         4.5010   27.8100    7.6260 P.3   401  NAD401      0.2189
      2  O1A        3.6980   27.3980    6.4820 O.2   401  NAD401     -0.5170
      3  O2A        4.5210   29.2900    7.5860 O.3   401  NAD401     -0.4371
      4  O5B        3.8910   27.1910    8.9480 O.3   401  NAD401     -0.3112
      5  C5B        4.4870   27.2970   10.2880 C.3   401  NAD401      0.1813
      6  C4B        3.3630   26.9400   11.3050 C.3   401  NAD401      0.1821
      7  O4B        3.9440   27.1920   12.6110 O.3   401  NAD401     -0.3135
      8  C3B        2.2780   28.0300   11.1620 C.3   401  NAD401      0.2184
      9  O3B        1.0030   27.5280   10.7740 O.3   401  NAD401     -0.2174
     10  C2B        2.1190   28.5870   12.5700 C.3   401  NAD401      0.2570
     11  O2B        0.9170   29.1520   12.9700 O.3   401  NAD401     -0.2130
     12  C1B        2.8320   27.5950   13.4090 C.3   401  NAD401      0.3186
     13  N9A        3.2070   28.1480   14.7000 N.pl3 401  NAD401     -0.1439
     14  C8A        3.8580   29.2670   15.1110 C.3   401  NAD401      0.3377
     15  N7A        3.8920   29.3020   16.4410 N.2   401  NAD401     -0.2095
     16  C5A        3.3440   28.1550   16.9560 C.2   401  NAD401      0.2526
     17  C6A        3.1600   27.5240   18.2060 C.2   401  NAD401      0.4393
     18  N6A        3.4580   27.7250   19.5000 N.pl3 401  NAD401      0.2180
     19  N1A        2.5520   26.2640   18.2210 N.2   401  NAD401      0.0021
     20  C2A        2.2010   25.6800   17.0420 C.3   401  NAD401      0.5254
     21  N3A        2.3650   26.1880   15.8680 N.2   401  NAD401     -0.0055
     22  C4A        2.9310   27.4180   15.8680 C.2   401  NAD401      0.3518
     23  O3         5.9250   27.0860    7.6530 O.3   401  NAD401     -0.2703
     24  PN         6.5360   25.7610    6.9680 P.3   401  NAD401      0.2189
     25  O1N        6.4370   26.0670    5.5560 O.2   401  NAD401     -0.5170
     26  O2N        5.4650   24.7330    7.2700 O.3   401  NAD401     -0.4371
     27  O5D        7.9270   25.6360    7.6610 O.3   401  NAD401     -0.3112
     28  C5D        7.8910   25.2780    9.0840 C.3   401  NAD401      0.1813
     29  C4D        9.2590   24.9450    9.6100 C.3   401  NAD401      0.1796
     30  O4D        9.7400   23.7530    8.8560 O.3   401  NAD401     -0.3354
     31  C3D       10.2710   26.1130    9.3720 C.3   401  NAD401      0.2155
     32  O3D       11.0030   26.3060   10.5720 O.3   401  NAD401     -0.2176
     33  C2D       11.1840   25.5130    8.2880 C.3   401  NAD401      0.2271
     34  O2D       12.4540   26.0220    7.9700 O.3   401  NAD401     -0.2161
     35  C1D       11.0600   23.9980    8.4780 C.3   401  NAD401      0.2098
     36  N1N       11.6480   23.2090    7.3660 N.3   401  NAD401     -0.2439
     37  C2N       12.3490   22.0770    7.8990 C.3   401  NAD401      0.0882
     38  C3N       12.7890   21.2310    6.9510 C.3   401  NAD401      0.1175
     39  C7N       13.9310   20.0200    7.3800 C.2   401  NAD401      0.2657
     40  O7N       14.3240   19.5400    6.3020 O.2   401  NAD401     -0.2713
     41  N7N       14.0490   20.0050    8.7260 N.am  401  NAD401     -0.0875
     42  C4N       12.5500   21.2820    5.5830 C.2   401  NAD401     -0.0191
     43  C5N       11.7700   22.2420    5.1350 C.2   401  NAD401     -0.0128
     44  C6N       11.0430   23.1380    5.9700 C.3   401  NAD401      0.1004
@<TRIPOS>BOND
     1    43    42    2
     2    43    44    1
     3    25    24    2
     4    42    38    1
     5    44    36    1
     6    40    39    2
     7     2     1    2
     8    38    39    1
     9    38    37    1
    10    24    26    1
    11    24    23    1
    12    24    27    1
    13    36    37    1
    14    36    35    1
    15    39    41   am
    16     3     1    1
    17     1    23    1
    18     1     4    1
    19    27    28    1
    20    34    33    1
    21    33    35    1
    22    33    31    1
    23    35    30    1
    24    30    29    1
    25     4     5    1
    26    28    29    1
    27    31    29    1
    28    31    32    1
    29     5     6    1
    30     9     8    1
    31     8     6    1
    32     8    10    1
    33     6     7    1
    34    10    11    1
    35    10    12    1
    36     7    12    1
    37    12    13    1
    38    13    14    1
    39    13    22    1
    40    14    15    1
    41    22    21    2
    42    22    16    1
    43    21    20    1
    44    15    16    2
    45    16    17    1
    46    20    19    1
    47    17    19    2
    48    17    18    1
