@<TRIPOS>MOLECULE
9lpr_III_P_1.pdb
 26 26 0 0 0
SMALL
GASTEIGER

@<TRIPOS>ATOM
      1  N         13.1020   41.8450   18.4670 N.3     4  ALA4        0.0000
      2  CA        13.9700   40.6270   18.4770 C.3     4  ALA4        0.0000
      3  C         13.1670   39.3350   18.7140 C.2     4  ALA4        0.0000
      4  O         12.4510   39.2520   19.7500 O.2     4  ALA4        0.0000
      5  CB        15.0550   40.4570   19.5440 C.3     4  ALA4        0.0000
      6  N         13.3660   38.4190   17.7830 N.am    3  ALA3        0.0000
      7  CA        12.6620   37.1300   17.9730 C.3     3  ALA3        0.0000
      8  C         13.6440   35.9970   17.6930 C.2     3  ALA3        0.0000
      9  O         14.5590   36.2630   16.8870 O.2     3  ALA3        0.0000
     10  CB        11.5300   37.0890   16.9810 C.3     3  ALA3        0.0000
     11  N         13.3980   34.8570   18.3120 N.am    2  PRO2        0.0000
     12  CA        14.2030   33.6620   18.0490 C.3     2  PRO2        0.0000
     13  C         13.8560   33.1750   16.6400 C.2     2  PRO2        0.0000
     14  O         12.6420   33.2800   16.2790 O.2     2  PRO2        0.0000
     15  CB        13.7150   32.6720   19.1100 C.3     2  PRO2        0.0000
     16  CG        12.7100   33.3470   19.9620 C.3     2  PRO2        0.0000
     17  CD        12.2610   34.6040   19.2190 C.3     2  PRO2        0.0000
     18  CA        14.4300   32.1340   14.4880 C.3     1  LEU1        0.0000
     19  CB        15.0530   33.1020   13.4490 C.3     1  LEU1        0.0000
     20  CG        14.5980   34.5320   13.7570 C.3     1  LEU1        0.0000
     21  CD1       15.5590   35.3810   13.0310 C.3     1  LEU1        0.0000
     22  CD2       13.2280   34.9240   13.2220 C.3     1  LEU1        0.0000
     23  N         14.7650   32.6240   15.8380 N.am    1  LEU1        0.0000
     24  B         14.8110   30.6480   14.2750 B       1  LEU1        0.0000
     25  O1        14.7480   30.1580   12.8370 O.3     1  LEU1        0.0000
     26  O2        14.0430   29.7820   15.2160 O.3     1  LEU1        0.0000
@<TRIPOS>BOND
     1    25    24    1
     2    21    20    1
     3    22    20    1
     4    19    20    1
     5    19    18    1
     6    24    18    1
     7    24    26    1
     8    18    23    1
     9    23    13   am
    10    14    13    2
    11    13    12    1
    12     9     8    2
    13    10     7    1
    14     8     7    1
    15     8    11   am
    16     6     7    1
    17     6     3   am
    18    12    11    1
    19    12    15    1
    20    11    17    1
    21     1     2    1
    22     2     3    1
    23     2     5    1
    24     3     4    2
    25    15    16    1
    26    17    16    1
