@<TRIPOS>MOLECULE
9lyz_AMU_A_1.pdb
 20 20 0 0 0
SMALL
GASTEIGER

@<TRIPOS>ATOM
      1  C1         9.1600   25.6500   21.9900 C.3   1003  AMU1003     0.2916
      2  C2         9.3400   26.6500   23.1700 C.3   1003  AMU1003     0.1839
      3  C3         8.6900   26.0200   24.4200 C.3   1003  AMU1003     0.1735
      4  C4         7.2500   25.7400   24.1500 C.3   1003  AMU1003     0.2103
      5  C5         7.0500   24.9200   22.8900 C.3   1003  AMU1003     0.1834
      6  C6         5.6000   24.8300   22.3600 C.3   1003  AMU1003     0.2142
      7  C7        11.2700   28.1200   23.2000 C.2   1003  AMU1003     0.2420
      8  C8        12.7000   28.1800   22.8900 C.3   1003  AMU1003     0.0964
      9  C9        10.2200   27.0700   25.9700 C.3   1003  AMU1003     0.2178
     10  C10       11.1100   26.0700   25.2700 C.2   1003  AMU1003     0.3913
     11  C11       10.6500   28.4900   25.7300 C.3   1003  AMU1003     0.0444
     12  O1         9.6400   26.2900   20.8100 O.3   1003  AMU1003    -0.1879
     13  O3         8.8600   26.9900   25.4400 O.3   1003  AMU1003    -0.3429
     14  O4         6.6900   25.1300   25.0900 O.3   1003  AMU1003    -0.2178
     15  O5         7.7600   25.4600   21.7800 O.3   1003  AMU1003    -0.3242
     16  O6         5.4100   25.5400   21.1600 O.3   1003  AMU1003    -0.2176
     17  O7        10.6000   29.1600   23.2700 O.2   1003  AMU1003    -0.2733
     18  O10       10.7600   25.3300   24.4300 O.co2 1003  AMU1003    -0.2430
     19  O11       12.3600   26.2100   25.6500 O.co2 1003  AMU1003    -0.2430
     20  N2        10.7100   26.9000   23.3300 N.am  1003  AMU1003    -0.1993
@<TRIPOS>BOND
     1    12     1    1
     2    16     6    1
     3    15     1    1
     4    15     5    1
     5     1     2    1
     6     6     5    1
     7     5     4    1
     8     8     7    1
     9     2    20    1
    10     2     3    1
    11     7    17    2
    12     7    20   am
    13     4     3    1
    14     4    14    1
    15     3    13    1
    16    18    10   ar
    17    10    19   ar
    18    10     9    1
    19    13     9    1
    20    11     9    1
