@<TRIPOS>MOLECULE
9lyz_NAG_A_1.pdb
 14 14 0 0 0
SMALL
GASTEIGER

@<TRIPOS>ATOM
      1  C1         5.9300   25.8400   26.0800 C.3   1002  NAG1002     0.1665
      2  C2         4.6500   25.0900   26.4300 C.3   1002  NAG1002     0.1576
      3  C3         3.8900   25.8500   27.5500 C.3   1002  NAG1002     0.2069
      4  C4         4.8200   26.0800   28.7400 C.3   1002  NAG1002     0.2134
      5  C5         6.1200   26.7400   28.2800 C.3   1002  NAG1002     0.1809
      6  C6         7.1100   26.8100   29.3800 C.3   1002  NAG1002     0.2141
      7  C7         3.2900   23.7300   24.8600 C.2   1002  NAG1002     0.2420
      8  C8         3.0700   23.5600   23.3700 C.3   1002  NAG1002     0.0964
      9  N2         3.7900   24.9000   25.2500 N.am  1002  NAG1002    -0.2019
     10  O3         2.7800   25.0900   27.9900 O.3   1002  NAG1002    -0.2184
     11  O4         4.1100   26.9200   29.6500 O.3   1002  NAG1002    -0.2176
     12  O5         6.7300   25.9600   27.2300 O.3   1002  NAG1002    -0.3489
     13  O6         7.4400   25.5500   29.9000 O.3   1002  NAG1002    -0.2176
     14  O7         3.0700   22.8000   25.6600 O.2   1002  NAG1002    -0.2733
@<TRIPOS>BOND
     1     8     7    1
     2     7     9   am
     3     7    14    2
     4     9     2    1
     5     1     2    1
     6     1    12    1
     7     2     3    1
     8    12     5    1
     9     3    10    1
    10     3     4    1
    11     5     4    1
    12     5     6    1
    13     4    11    1
    14     6    13    1
