@<TRIPOS>MOLECULE
9mht_SAH_A_1.pdb
 26 28 0 0 0
SMALL
GASTEIGER

@<TRIPOS>ATOM
      1  N        -17.9170   31.9450   82.3870 N.3   328  SAH328     -0.1208
      2  CA       -18.5680   31.2350   83.4740 C.3   328  SAH328      0.1952
      3  CB       -18.5460   32.0320   84.7930 C.3   328  SAH328      0.0422
      4  CG       -17.1330   32.4180   85.2610 C.3   328  SAH328      0.0597
      5  SD       -16.9160   33.2470   86.8630 S.3   328  SAH328     -0.1375
      6  C        -19.9990   31.0760   82.9570 C.2   328  SAH328      0.3819
      7  O        -20.1480   30.8850   81.6670 O.co2 328  SAH328     -0.2441
      8  OXT      -21.0230   30.9770   83.7670 O.co2 328  SAH328     -0.2441
      9  C5'      -15.3520   32.4550   87.3560 C.3   328  SAH328      0.0899
     10  C4'      -15.4670   30.9650   87.8720 C.3   328  SAH328      0.1630
     11  O4'      -14.1460   30.4910   88.2150 O.3   328  SAH328     -0.3153
     12  C3'      -16.2900   30.8060   89.1810 C.3   328  SAH328      0.2168
     13  O3'      -17.4110   29.9320   88.8890 O.3   328  SAH328     -0.2175
     14  C2'      -15.2290   30.1860   90.1910 C.3   328  SAH328      0.2569
     15  O2'      -15.8200   29.1700   91.0260 O.3   328  SAH328     -0.2130
     16  C1'      -14.2180   29.5200   89.2560 C.3   328  SAH328      0.3185
     17  N9       -12.8620   29.3470   89.9100 N.pl3 328  SAH328     -0.1439
     18  C8       -12.1410   30.2650   90.6820 C.3   328  SAH328      0.3377
     19  N7       -10.9690   29.8190   91.0400 N.2   328  SAH328     -0.2095
     20  C5       -10.8690   28.5250   90.4900 C.2   328  SAH328      0.2526
     21  C6        -9.8500   27.5230   90.5610 C.2   328  SAH328      0.4393
     22  N6        -8.7170   27.8040   91.2230 N.pl3 328  SAH328      0.2180
     23  N1       -10.0210   26.2940   89.9630 N.2   328  SAH328      0.0021
     24  C2       -11.1910   26.1120   89.3200 C.3   328  SAH328      0.5254
     25  N3       -12.2450   26.9740   89.1700 N.2   328  SAH328     -0.0055
     26  C4       -12.0090   28.1970   89.7990 C.2   328  SAH328      0.3518
@<TRIPOS>BOND
     1     7     6   ar
     2     1     2    1
     3     6     2    1
     4     6     8   ar
     5     2     3    1
     6     3     4    1
     7     4     5    1
     8     5     9    1
     9     9    10    1
    10    10    11    1
    11    10    12    1
    12    11    16    1
    13    13    12    1
    14    25    24    1
    15    25    26    2
    16    12    14    1
    17    16    17    1
    18    16    14    1
    19    24    23    1
    20    26    17    1
    21    26    20    1
    22    17    18    1
    23    23    21    2
    24    14    15    1
    25    20    21    1
    26    20    19    2
    27    21    22    1
    28    18    19    1
