@<TRIPOS>MOLECULE
9nse_HEM_A_1.pdb
 43 50 0 0 0
SMALL
GASTEIGER

@<TRIPOS>ATOM
      1  CHA        9.0920    9.0650   34.9260 C.2   500  HEM500      0.0000
      2  CHB        4.5190    8.9920   33.5040 C.2   500  HEM500      0.0000
      3  CHC        6.0400    7.1510   29.3280 C.2   500  HEM500      0.0000
      4  CHD       10.4600    6.5760   31.0010 C.2   500  HEM500      0.0000
      5  C1A        7.7330    9.2910   34.8370 C.2   500  HEM500      0.0000
      6  C2A        6.9930   10.1470   35.7380 C.2   500  HEM500      0.0000
      7  C3A        5.6990   10.0650   35.3960 C.2   500  HEM500      0.0000
      8  C4A        5.6500    9.2200   34.2150 C.2   500  HEM500      0.0000
      9  CMA        4.5410   10.7520   36.1040 C.3   500  HEM500      0.0000
     10  CAA        7.5400   11.0870   36.7960 C.3   500  HEM500      0.0000
     11  CBA        8.2500   12.2940   36.2080 C.3   500  HEM500      0.0000
     12  CGA        8.6170   13.3250   37.2570 C.2   500  HEM500      0.0000
     13  O1A        7.9630   13.3590   38.3220 O.co2 500  HEM500      0.0000
     14  O2A        9.5590   14.1070   37.0110 O.co2 500  HEM500      0.0000
     15  C1B        4.5320    8.3370   32.3070 C.ar  500  HEM500      0.0000
     16  C2B        3.3830    8.3090   31.4250 C.ar  500  HEM500      0.0000
     17  C3B        3.7770    7.7450   30.2240 C.ar  500  HEM500      0.0000
     18  C4B        5.1900    7.4380   30.4030 C.ar  500  HEM500      0.0000
     19  CMB        1.9900    8.8480   31.7920 C.3   500  HEM500      0.0000
     20  CAB        2.9680    7.6700   29.0780 C.2   500  HEM500      0.0000
     21  CBB        3.0190    6.7790   28.0520 C.2   500  HEM500      0.0000
     22  C1C        7.4160    7.0250   29.3450 C.2   500  HEM500      0.0000
     23  C2C        8.2250    6.6500   28.1990 C.2   500  HEM500      0.0000
     24  C3C        9.4660    6.3520   28.6750 C.2   500  HEM500      0.0000
     25  C4C        9.4030    6.6330   30.1140 C.2   500  HEM500      0.0000
     26  CMC        7.7680    6.5960   26.7470 C.3   500  HEM500      0.0000
     27  CAC       10.5590    5.8150   27.9730 C.2   500  HEM500      0.0000
     28  CBC       10.6360    5.0890   26.8240 C.2   500  HEM500      0.0000
     29  C1D       10.4240    7.0950   32.2980 C.ar  500  HEM500      0.0000
     30  C2D       11.6170    7.2940   33.1180 C.ar  500  HEM500      0.0000
     31  C3D       11.2630    8.1000   34.1340 C.ar  500  HEM500      0.0000
     32  C4D        9.8350    8.3430   34.0040 C.ar  500  HEM500      0.0000
     33  CMD       12.9880    6.6160   32.9930 C.3   500  HEM500      0.0000
     34  CAD       12.2560    8.6260   35.1910 C.3   500  HEM500      0.0000
     35  CBD       12.2870   10.1450   35.3740 C.3   500  HEM500      0.0000
     36  CGD       13.5200   10.6400   36.1130 C.2   500  HEM500      0.0000
     37  O1D       14.2920    9.8050   36.6350 O.co2 500  HEM500      0.0000
     38  O2D       13.7230   11.8740   36.1570 O.co2 500  HEM500      0.0000
     39  NA         6.8980    8.7450   33.8520 N.2   500  HEM500      0.0000
     40  NB         5.6430    7.7830   31.7020 N.ar  500  HEM500      0.0000
     41  NC         8.1290    7.0400   30.5240 N.2   500  HEM500      0.0000
     42  ND         9.3030    7.6950   32.8820 N.ar  500  HEM500      0.0000
     43 FE          7.4110    7.5320   32.3730 Fe    500  HEM500      0.0000
@<TRIPOS>BOND
     1    26    23    1
     2    28    27    2
     3    27    24    1
     4    21    20    2
     5    23    24    2
     6    23    22    1
     7    24    25    1
     8    20    17    1
     9     3    22    2
    10     3    18    1
    11    22    41    1
    12    25    41    2
    13    25     4    1
    14    17    18   ar
    15    17    16   ar
    16    18    40   ar
    17    41    43    1
    18     4    29    2
    19    16    19    1
    20    16    15   ar
    21    40    15   ar
    22    40    43    1
    23    29    42   ar
    24    29    30   ar
    25    15     2    1
    26    43    42    1
    27    43    39    1
    28    42    32   ar
    29    33    30    1
    30    30    31   ar
    31     2     8    2
    32    39     8    1
    33    39     5    2
    34    32    31   ar
    35    32     1    2
    36    31    34    1
    37     8     7    1
    38     5     1    1
    39     5     6    1
    40    34    35    1
    41    35    36    1
    42     7     6    2
    43     7     9    1
    44     6    10    1
    45    36    38   ar
    46    36    37   ar
    47    11    10    1
    48    11    12    1
    49    14    12   ar
    50    12    13   ar
