@<TRIPOS>MOLECULE
9nse_H4B_A_1.pdb
 17 18 0 0 0
SMALL
GASTEIGER

@<TRIPOS>ATOM
      1  N1         8.2830   11.7340   42.7930 N.2   600  H4B600     -0.2683
      2  C2         8.1970   12.0520   41.4870 C.1   600  H4B600      0.2608
      3  N2         7.3590   11.4590   40.6450 N.pl3 600  H4B600     -0.0220
      4  N3         9.0260   13.0040   41.0260 N.2   600  H4B600     -0.2474
      5  C4         9.9550   13.7230   41.8050 C.1   600  H4B600      0.2441
      6  O4        10.6530   14.5840   41.2530 O.2   600  H4B600     -0.2063
      7  C4A        9.9870   13.3300   43.1630 C.2   600  H4B600      0.2463
      8  C8A        9.1550   12.3620   43.6600 C.1   600  H4B600      0.1270
      9  N5        10.9290   14.0250   44.0370 N.2   600  H4B600     -0.2460
     10  N8         9.1630   11.9830   44.9300 N.2   600  H4B600     -0.2054
     11  C6        11.2940   13.2010   45.2590 C.3   600  H4B600      0.1627
     12  C7        10.0650   12.6150   45.8900 C.3   600  H4B600      0.1643
     13  C9        12.1330   14.1170   46.1870 C.3   600  H4B600      0.2063
     14  O9        11.5050   15.3450   46.5270 O.3   600  H4B600     -0.2183
     15  C10       12.5370   13.3810   47.4760 C.3   600  H4B600      0.1842
     16  C11       13.5430   14.1480   48.2360 C.3   600  H4B600      0.0383
     17  O10       13.1120   12.1620   47.0240 O.3   600  H4B600     -0.2204
@<TRIPOS>BOND
     1     3     2    1
     2     4     2    2
     3     4     5    2
     4     6     5    2
     5     2     1    2
     6     5     7    1
     7     1     8    2
     8     7     8    1
     9     7     9    2
    10     8    10    2
    11     9    11    1
    12    10    12    1
    13    11    12    1
    14    11    13    1
    15    13    14    1
    16    13    15    1
    17    17    15    1
    18    15    16    1
