@<TRIPOS>MOLECULE
9rsa_ADU_B_1.pdb
 19 20 0 0 0
SMALL
GASTEIGER

@<TRIPOS>ATOM
      1  N1        44.0080   14.5260   59.1520 N.am  125  ADU125     -0.1791
      2  C2        44.4290   15.2470   60.2860 C.1   125  ADU125      0.2844
      3  O2        43.6630   15.9650   60.9120 O.2   125  ADU125     -0.1918
      4  N3        45.7650   15.1450   60.6900 N.2   125  ADU125     -0.2452
      5  C4        46.7640   14.3930   60.0960 C.1   125  ADU125      0.2182
      6  O4        47.9140   14.3830   60.5570 O.2   125  ADU125     -0.2085
      7  C5        46.3050   13.6630   58.9410 C.2   125  ADU125      0.1242
      8  C6        44.9950   13.7290   58.5010 C.2   125  ADU125      0.0928
      9  C1'       42.5380   14.6190   58.7400 C.3   125  ADU125      0.2081
     10  O4'       42.1120   13.7260   57.6960 O.3   125  ADU125     -0.3347
     11  C4'       41.1790   14.4230   56.7520 C.3   125  ADU125      0.1698
     12  C5'       41.6260   14.1220   55.3220 C.3   125  ADU125      0.2132
     13  O5'       41.7150   12.7310   55.0120 O.3   125  ADU125     -0.2176
     14  C3'       41.2990   15.8520   57.1040 C.3   125  ADU125      0.1292
     15  N3'       40.2140   16.7320   56.7350 N.am  125  ADU125     -0.2044
     16  C8'       40.5520   17.9750   56.3760 C.2   125  ADU125      0.2419
     17  O8'       41.7360   18.3570   56.3120 O.2   125  ADU125     -0.2733
     18  C9'       39.4170   18.9250   55.9930 C.3   125  ADU125      0.0964
     19  C2'       41.6630   15.8730   58.5890 C.3   125  ADU125      0.0762
@<TRIPOS>BOND
     1    13    12    1
     2    12    11    1
     3    18    16    1
     4    17    16    2
     5    16    15   am
     6    15    14    1
     7    11    14    1
     8    11    10    1
     9    14    19    1
    10    10     9    1
    11     8     7    2
    12     8     1    1
    13    19     9    1
    14     9     1    1
    15     7     5    1
    16     1     2   am
    17     5     6    2
    18     5     4    2
    19     2     4    2
    20     2     3    2
