@<TRIPOS>MOLECULE
9rub_RUB_A_1.pdb
 18 17 0 0 0
SMALL
GASTEIGER

@<TRIPOS>ATOM
      1  C1        29.7340   18.0790   34.5740 C.3   600  RUB600      0.2203
      2  C2        31.2090   17.5300   34.5890 C.2   600  RUB600      0.2137
      3  C3        31.4150   15.9690   34.9050 C.3   600  RUB600      0.2438
      4  C4        32.0560   15.1120   33.7420 C.3   600  RUB600      0.2194
      5  C5        31.2770   13.7110   33.5440 C.3   600  RUB600      0.1896
      6  O1        29.4140   17.6570   35.9150 O.3   600  RUB600     -0.2621
      7  O2        32.1440   18.3280   34.3730 O.2   600  RUB600     -0.2906
      8  O3        32.2730   15.7770   36.0080 O.3   600  RUB600     -0.2122
      9  O4        31.9900   15.8190   32.5060 O.3   600  RUB600     -0.2172
     10  O5        31.6810   12.6220   34.4960 O.3   600  RUB600     -0.2674
     11  P1        27.9420   17.0800   36.3540 P.3   600  RUB600      0.5330
     12  P2        31.0190   11.0720   34.3930 P.3   600  RUB600      0.5327
     13  O1P       26.7980   18.1820   36.1370 O.3   600  RUB600     -0.1145
     14  O2P       28.0060   16.6230   37.8930 O.3   600  RUB600     -0.1145
     15  O3P       27.4930   15.8050   35.4930 O.2   600  RUB600     -0.2224
     16  O4P       29.8410   10.9680   33.3030 O.2   600  RUB600     -0.2224
     17  O5P       30.5010   10.5670   35.8520 O.3   600  RUB600     -0.1145
     18  O6P       32.0640    9.9700   33.9090 O.3   600  RUB600     -0.1145
@<TRIPOS>BOND
     1     9     4    1
     2    16    12    2
     3     5     4    1
     4     5    10    1
     5     4     3    1
     6    18    12    1
     7     7     2    2
     8    12    10    1
     9    12    17    1
    10     1     2    1
    11     1     6    1
    12     2     3    1
    13     3     8    1
    14    15    11    2
    15     6    11    1
    16    13    11    1
    17    11    14    1
