@<TRIPOS>MOLECULE
9xia_DFR_A_1.pdb
 12 12 0 0 0
SMALL
GASTEIGER

@<TRIPOS>ATOM
      1  C1        32.0360   32.9690   59.0100 C.3   389  DFR389      0.1809
      2  C2        32.0720   31.6600   58.1570 C.3   389  DFR389      0.1864
      3  C3        33.5710   31.4310   57.9530 C.3   389  DFR389      0.0899
      4  C4        34.4370   32.6150   58.4700 C.3   389  DFR389      0.2523
      5  C5        34.6230   33.3160   57.1020 C.3   389  DFR389      0.2408
      6  C6        31.2590   32.5990   60.2390 C.3   389  DFR389      0.2141
      7  C7        34.1440   29.9950   58.0000 C.3   389  DFR389      0.0079
      8  O1        33.4650   33.1840   59.2820 O.3   389  DFR389     -0.3272
      9  O2        31.3840   31.8620   56.9290 O.3   389  DFR389     -0.2203
     10  O4        35.5740   32.0580   59.1320 O.3   389  DFR389     -0.1923
     11  O5        35.1710   34.5670   57.5930 O.3   389  DFR389     -0.2149
     12  O6        31.1490   33.8550   60.9420 O.3   389  DFR389     -0.2176
@<TRIPOS>BOND
     1     9     2    1
     2     5    11    1
     3     5     4    1
     4     3     7    1
     5     3     2    1
     6     3     4    1
     7     2     1    1
     8     4    10    1
     9     4     8    1
    10     1     8    1
    11     1     6    1
    12     6    12    1
