@<TRIPOS>MOLECULE
9xim_XLS_A_1.pdb
 10 9 0 0 0
SMALL
GASTEIGER

@<TRIPOS>ATOM
      1  C1        30.4250   43.9030  171.9150 C.3   397  XLS397      0.2175
      2  C2        31.5890   43.6590  170.9890 C.3   397  XLS397      0.2175
      3  C3        31.6530   42.1400  170.7320 C.3   397  XLS397      0.2175
      4  C4        32.8990   41.6340  170.0480 C.3   397  XLS397      0.2175
      5  C5        33.1440   40.1540  170.1560 C.3   397  XLS397      0.2175
      6  O1        30.2980   45.2830  172.2760 O.3   397  XLS397     -0.2175
      7  O2        31.5290   44.4050  169.7690 O.3   397  XLS397     -0.2175
      8  O3        30.5520   41.7200  169.9340 O.3   397  XLS397     -0.2175
      9  O4        33.2470   42.1660  168.7830 O.3   397  XLS397     -0.2175
     10  O5        33.5070   39.8850  171.4890 O.3   397  XLS397     -0.2175
@<TRIPOS>BOND
     1     9     4    1
     2     7     2    1
     3     8     3    1
     4     4     5    1
     5     4     3    1
     6     5    10    1
     7     3     2    1
     8     2     1    1
     9     1     6    1
