@<TRIPOS>MOLECULE
CHEMBL264682_replica-1.pdb
 21 22 0 0 0
SMALL
GASTEIGER

@<TRIPOS>ATOM
      1  C7        10.9250   35.5930   61.6180 C.ar    0  <0>0       -0.0190
      2  C8        10.7490   34.8560   60.4610 C.ar    0  <0>0       -0.0009
      3  C9         9.5990   35.0060   59.7090 C.ar    0  <0>0        0.0403
      4  C10        8.6180   35.8960   60.1160 C.ar    0  <0>0        0.1786
      5  C11        8.7940   36.6380   61.2800 C.ar    0  <0>0        0.1680
      6  C12        9.9480   36.4780   62.0310 C.ar    0  <0>0        0.0355
      7  O2         7.4860   36.0450   59.3770 O.3     0  <0>0       -0.4504
      8  C13        7.5470   36.8240   58.2650 C.ar    0  <0>0        0.1454
      9  C18        8.4090   37.9100   58.2230 C.ar    0  <0>0        0.0375
     10  C17        8.4720   38.6960   57.0890 C.ar    0  <0>0        0.0031
     11  C16        7.6700   38.4080   56.0000 C.ar    0  <0>0        0.0002
     12  C15        6.8050   37.3290   56.0420 C.ar    0  <0>0        0.0031
     13  C14        6.7410   36.5370   57.1710 C.ar    0  <0>0        0.0375
     14  O1         7.8340   37.5130   61.6820 O.3     0  <0>0       -0.5029
     15  H17        7.9240   37.7990   62.6020 H       0  <0>0        0.2923
     16  C6        12.1810   35.4260   62.4330 C.3     0  <0>0        0.0265
     17  C5        12.9100   34.1540   61.9920 C.3     0  <0>0        0.0047
     18  C4        13.9610   33.7800   63.0380 C.3     0  <0>0        0.0003
     19  C3        13.9180   32.2720   63.2880 C.3     0  <0>0        0.0000
     20  C2        12.4860   31.7650   63.1070 C.3     0  <0>0        0.0000
     21  C1        12.3130   30.4430   63.8570 C.3     0  <0>0        0.0000
@<TRIPOS>BOND
     1    11    12   ar
     2    11    10   ar
     3    12    13   ar
     4    10     9   ar
     5    13     8   ar
     6     9     8   ar
     7     8     7    1
     8     7     4    1
     9     3     4   ar
    10     3     2   ar
    11     4     5   ar
    12     2     1   ar
    13     5    14    1
    14     5     6   ar
    15     1     6   ar
    16     1    16    1
    17    14    15    1
    18    17    16    1
    19    17    18    1
    20    18    19    1
    21    20    19    1
    22    20    21    1
