@<TRIPOS>MOLECULE
CHEMBL264175_replica-1.pdb
 24 25 0 0 0
SMALL
GASTEIGER

@<TRIPOS>ATOM
      1  C7         9.9880   36.2690   60.5070 C.ar    0  <0>0       -0.0190
      2  C8         9.9000   35.4320   59.4100 C.ar    0  <0>0       -0.0009
      3  C9         9.1190   35.7890   58.3270 C.ar    0  <0>0        0.0403
      4  C10        8.4220   36.9870   58.3380 C.ar    0  <0>0        0.1786
      5  C11        8.5110   37.8290   59.4430 C.ar    0  <0>0        0.1680
      6  C12        9.2910   37.4630   60.5290 C.ar    0  <0>0        0.0355
      7  O2         7.6550   37.3390   57.2730 O.3     0  <0>0       -0.4504
      8  C13        6.7650   36.4290   56.7980 C.ar    0  <0>0        0.1455
      9  C18        5.7000   36.0220   57.5900 C.ar    0  <0>0        0.0387
     10  C17        4.7910   35.1020   57.1050 C.ar    0  <0>0        0.0172
     11  C16        4.9490   34.5760   55.8310 C.ar    0  <0>0        0.0417
     12  C15        6.0170   34.9780   55.0400 C.ar    0  <0>0        0.0172
     13  C14        6.9220   35.9030   55.5240 C.ar    0  <0>0        0.0387
     14  N1         4.0310   33.6390   55.3420 N.pl3   0  <0>0       -0.3570
     15  H22        3.2400   33.9370   54.8660 H       0  <0>0        0.1424
     16  H23        4.1860   32.6920   55.4780 H       0  <0>0        0.1424
     17  O1         7.8300   39.0050   59.4600 O.3     0  <0>0       -0.5029
     18  H17        7.9520   39.5430   58.6660 H       0  <0>0        0.2923
     19  C6        10.8410   35.8750   61.6860 C.3     0  <0>0        0.0265
     20  C5        11.5820   34.5750   61.3670 C.3     0  <0>0        0.0047
     21  C4        12.3390   34.1020   62.6110 C.3     0  <0>0        0.0003
     22  C3        13.8260   33.9570   62.2780 C.3     0  <0>0        0.0000
     23  C2        14.4500   32.8970   63.1870 C.3     0  <0>0        0.0000
     24  C1        13.4760   31.7280   63.3520 C.3     0  <0>0        0.0000
@<TRIPOS>BOND
     1    15    14    1
     2    12    13   ar
     3    12    11   ar
     4    14    16    1
     5    14    11    1
     6    13     8   ar
     7    11    10   ar
     8     8     7    1
     9     8     9   ar
    10    10     9   ar
    11     7     4    1
    12     3     4   ar
    13     3     2   ar
    14     4     5   ar
    15    18    17    1
    16     2     1   ar
    17     5    17    1
    18     5     6   ar
    19     1     6   ar
    20     1    19    1
    21    20    19    1
    22    20    21    1
    23    22    21    1
    24    22    23    1
    25    23    24    1
