@<TRIPOS>MOLECULE
CHEMBL264417_replica-1.pdb
 24 25 0 0 0
SMALL
GASTEIGER

@<TRIPOS>ATOM
      1  C7        10.1570   35.9190   60.4290 C.ar    0  <0>0       -0.0190
      2  C8         9.9570   35.1700   59.2850 C.ar    0  <0>0       -0.0009
      3  C9         9.1580   35.6570   58.2670 C.ar    0  <0>0        0.0403
      4  C10        8.5570   36.9000   58.3920 C.ar    0  <0>0        0.1786
      5  C11        8.7600   37.6540   59.5440 C.ar    0  <0>0        0.1680
      6  C12        9.5570   37.1570   60.5620 C.ar    0  <0>0        0.0355
      7  O2         7.7720   37.3800   57.3920 O.3     0  <0>0       -0.4504
      8  C13        6.6350   36.6990   57.0900 C.ar    0  <0>0        0.1455
      9  C18        6.3730   36.3350   55.7760 C.ar    0  <0>0        0.0392
     10  C17        5.2190   35.6380   55.4730 C.ar    0  <0>0        0.0272
     11  C16        4.3220   35.3140   56.4740 C.ar    0  <0>0        0.1431
     12  C15        4.5790   35.6810   57.7810 C.ar    0  <0>0        0.0272
     13  C14        5.7330   36.3720   58.0920 C.ar    0  <0>0        0.0392
     14  N1         3.0830   34.5740   56.1440 N.pl3   0  <0>0        0.0577
     15  O3         3.1490   33.4980   55.5950 O.2     0  <0>0       -0.1261
     16  O4         2.0040   35.0450   56.4220 O.2     0  <0>0       -0.1261
     17  O1         8.1730   38.8740   59.6710 O.3     0  <0>0       -0.5029
     18  H17        8.4580   39.3690   60.4510 H       0  <0>0        0.2923
     19  C6        11.0290   35.3830   61.5360 C.3     0  <0>0        0.0265
     20  C5        10.9160   33.8580   61.5800 C.3     0  <0>0        0.0047
     21  C4        11.9080   33.3030   62.6040 C.3     0  <0>0        0.0003
     22  C3        13.2560   34.0050   62.4410 C.3     0  <0>0        0.0000
     23  C2        14.3730   33.0920   62.9530 C.3     0  <0>0        0.0000
     24  C1        13.7620   31.8360   63.5740 C.3     0  <0>0        0.0000
@<TRIPOS>BOND
     1    10     9   ar
     2    10    11   ar
     3    15    14    2
     4     9     8   ar
     5    14    16    2
     6    14    11    1
     7    11    12   ar
     8     8     7    1
     9     8    13   ar
    10     7     4    1
    11    12    13   ar
    12     3     4   ar
    13     3     2   ar
    14     4     5   ar
    15     2     1   ar
    16     5    17    1
    17     5     6   ar
    18    17    18    1
    19     1     6   ar
    20     1    19    1
    21    19    20    1
    22    20    21    1
    23    22    21    1
    24    22    23    1
    25    23    24    1
