@<TRIPOS>MOLECULE
CHEMBL258931_replica-1.pdb
 21 22 0 0 0
SMALL
GASTEIGER

@<TRIPOS>ATOM
      1  C7        10.3890   35.9570   60.7840 C.ar    0  <0>0       -0.0190
      2  C8        10.2110   35.0810   59.7300 C.ar    0  <0>0       -0.0009
      3  C9         9.3730   35.4160   58.6830 C.ar    0  <0>0        0.0414
      4  C10        8.7100   36.6320   58.6870 C.ar    0  <0>0        0.1927
      5  C11        8.8900   37.5150   59.7490 C.ar    0  <0>0        0.1691
      6  C12        9.7260   37.1710   60.7980 C.ar    0  <0>0        0.0356
      7  O2         7.8860   36.9630   57.6570 O.3     0  <0>0       -0.3886
      8  C13        6.5990   36.5470   57.7140 C.1     0  <0>0        0.1965
      9  N2         5.9810   36.2030   56.5960 N.2     0  <0>0       -0.1847
     10  C16        4.7250   35.7860   56.6170 C.3     0  <0>0        0.1670
     11  C15        4.0540   35.7230   57.8270 C.2     0  <0>0        0.0224
     12  C14        4.7290   36.0970   58.9780 C.2     0  <0>0        0.1099
     13  N1         5.9860   36.4990   58.8870 N.2     0  <0>0       -0.1623
     14  O1         8.2420   38.7100   59.7580 O.3     0  <0>0       -0.5028
     15  H17        7.6240   38.8270   59.0220 H       0  <0>0        0.2923
     16  C6        11.3040   35.5870   61.9230 C.3     0  <0>0        0.0265
     17  C5        11.9310   34.2190   61.6490 C.3     0  <0>0        0.0047
     18  C4        13.3990   34.2360   62.0790 C.3     0  <0>0        0.0003
     19  C3        13.6580   33.0870   63.0570 C.3     0  <0>0        0.0000
     20  C2        12.4670   32.1290   63.0460 C.3     0  <0>0        0.0000
     21  C1        12.9420   30.7190   63.4000 C.3     0  <0>0        0.0000
@<TRIPOS>BOND
     1     9    10    1
     2     9     8    2
     3    10    11    1
     4     7     8    1
     5     7     4    1
     6     8    13    2
     7    11    12    2
     8     3     4   ar
     9     3     2   ar
    10     4     5   ar
    11    13    12    1
    12    15    14    1
    13     2     1   ar
    14     5    14    1
    15     5     6   ar
    16     1     6   ar
    17     1    16    1
    18    17    16    1
    19    17    18    1
    20    18    19    1
    21    20    19    1
    22    20    21    1
