@<TRIPOS>MOLECULE
CHEMBL239673_replica-1.pdb
 23 25 0 0 0
SMALL
GASTEIGER

@<TRIPOS>ATOM
      1  C9        -0.2400   29.4400   55.0780 C.2     0  <0>0        0.2491
      2  O1         0.3020   30.4620   54.7020 O.2     0  <0>0       -0.2699
      3  N1        -0.7560   29.3690   56.3200 N.am    0  <0>0       -0.2726
      4  C10       -1.3010   28.1040   56.8310 C.3     0  <0>0        0.1151
      5  C11       -0.5950   27.7630   58.1490 C.3     0  <0>0        0.1123
      6  N2        -0.6240   28.9490   59.0180 N.pl3   0  <0>0       -0.3040
      7  C12       -0.0790   30.2140   58.5060 C.3     0  <0>0        0.1123
      8  C13       -0.7800   30.5530   57.1890 C.3     0  <0>0        0.1151
      9  C5        -0.3310   28.2760   54.1700 C.ar    0  <0>0        0.0533
     10  C4         0.3200   27.0840   54.4930 C.ar    0  <0>0        0.0042
     11  C3         0.2320   26.0010   53.6440 C.ar    0  <0>0       -0.0044
     12  C2        -0.4990   26.0960   52.4720 C.ar    0  <0>0       -0.0258
     13  C1        -0.5910   24.9090   51.5480 C.3     0  <0>0        0.0307
     14  C7        -1.1420   27.2760   52.1430 C.ar    0  <0>0       -0.0256
     15  C6        -1.0660   28.3640   52.9870 C.ar    0  <0>0       -0.0001
     16  C8        -1.9310   27.3710   50.8630 C.3     0  <0>0        0.0307
     17  C14       -1.1590   28.8740   60.3050 C.ar    0  <0>0        0.0488
     18  C19       -0.7590   29.7810   61.2790 C.ar    0  <0>0        0.0259
     19  C18       -1.2950   29.7070   62.5510 C.ar    0  <0>0        0.0589
     20  C17       -2.2220   28.7260   62.8560 C.ar    0  <0>0        0.0115
     21 Cl         -0.8020   30.8430   63.7670 Cl      0  <0>0       -0.0822
     22  C16       -2.6170   27.8190   61.8900 C.ar    0  <0>0        0.0021
     23  C15       -2.0890   27.8900   60.6160 C.ar    0  <0>0        0.0146
@<TRIPOS>BOND
     1    16    14    1
     2    13    12    1
     3    14    12   ar
     4    14    15   ar
     5    12    11   ar
     6    15     9   ar
     7    11    10   ar
     8     9    10   ar
     9     9     1    1
    10     2     1    2
    11     1     3   am
    12     3     4    1
    13     3     8    1
    14     4     5    1
    15     8     7    1
    16     5     6    1
    17     7     6    1
    18     6    17    1
    19    17    23   ar
    20    17    18   ar
    21    23    22   ar
    22    18    19   ar
    23    22    20   ar
    24    19    20   ar
    25    19    21    1
