@<TRIPOS>MOLECULE
CHEMBL505886_replica-1.pdb
 23 24 0 0 0
SMALL
GASTEIGER

@<TRIPOS>ATOM
      1  C9        10.4510   35.9930   61.4320 C.ar    0  <0>0       -0.0190
      2  C10       10.4440   35.2260   60.2820 C.ar    0  <0>0       -0.0009
      3  C11        9.3290   35.2100   59.4640 C.ar    0  <0>0        0.0403
      4  C12        8.2150   35.9640   59.7970 C.ar    0  <0>0        0.1786
      5  C13        8.2210   36.7350   60.9560 C.ar    0  <0>0        0.1680
      6  C14        9.3410   36.7410   61.7740 C.ar    0  <0>0        0.0355
      7  C8        11.6690   36.0060   62.3190 C.3     0  <0>0        0.0265
      8  C7        12.5580   34.8060   61.9830 C.3     0  <0>0        0.0047
      9  C6        12.6490   33.8830   63.2000 C.3     0  <0>0        0.0003
     10  C5        14.0960   33.4220   63.3830 C.3     0  <0>0        0.0000
     11  C4        14.1180   31.9270   63.7090 C.3     0  <0>0        0.0000
     12  C3        12.7470   31.3190   63.4120 C.3     0  <0>0        0.0000
     13  C2        12.8310   29.7940   63.5140 C.3     0  <0>0        0.0000
     14  C1        12.0860   29.3240   64.7640 C.3     0  <0>0        0.0000
     15  O1         7.1310   37.4760   61.2880 O.3     0  <0>0       -0.5029
     16  H21        7.0570   38.3070   60.7990 H       0  <0>0        0.2923
     17  O2         7.1180   35.9490   58.9950 O.3     0  <0>0       -0.4504
     18  C15        7.2070   36.5510   57.7800 C.ar    0  <0>0        0.1454
     19  C20        7.4900   37.9070   57.6970 C.ar    0  <0>0        0.0375
     20  C19        7.5860   38.5160   56.4600 C.ar    0  <0>0        0.0031
     21  C18        7.3900   37.7780   55.3080 C.ar    0  <0>0        0.0002
     22  C17        7.1020   36.4270   55.3890 C.ar    0  <0>0        0.0031
     23  C16        7.0110   35.8120   56.6220 C.ar    0  <0>0        0.0375
@<TRIPOS>BOND
     1    21    22   ar
     2    21    20   ar
     3    22    23   ar
     4    20    19   ar
     5    23    18   ar
     6    19    18   ar
     7    18    17    1
     8    17     4    1
     9     3     4   ar
    10     3     2   ar
    11     4     5   ar
    12     2     1   ar
    13    16    15    1
    14     5    15    1
    15     5     6   ar
    16     1     6   ar
    17     1     7    1
    18     8     7    1
    19     8     9    1
    20     9    10    1
    21    10    11    1
    22    12    13    1
    23    12    11    1
    24    13    14    1
