@<TRIPOS>MOLECULE
CHEMBL264415_replica-1.pdb
 24 25 0 0 0
SMALL
GASTEIGER

@<TRIPOS>ATOM
      1  C7        10.2050   35.2030   60.5330 C.ar    0  <0>0       -0.0190
      2  C8        10.0670   35.0300   59.1690 C.ar    0  <0>0       -0.0009
      3  C9         9.1150   35.7500   58.4710 C.ar    0  <0>0        0.0403
      4  C10        8.2960   36.6460   59.1390 C.ar    0  <0>0        0.1787
      5  C11        8.4350   36.8210   60.5130 C.ar    0  <0>0        0.1680
      6  C12        9.3880   36.0930   61.2070 C.ar    0  <0>0        0.0355
      7  O2         7.3600   37.3550   58.4540 O.3     0  <0>0       -0.4488
      8  C13        6.2940   36.6820   57.9470 C.ar    0  <0>0        0.1677
      9  C18        6.1480   36.5440   56.5740 C.ar    0  <0>0        0.1771
     10  C17        5.0650   35.8540   56.0610 C.ar    0  <0>0        0.0272
     11  C16        4.1230   35.3110   56.9150 C.ar    0  <0>0        0.0019
     12  C15        4.2640   35.4530   58.2830 C.ar    0  <0>0        0.0032
     13  C14        5.3460   36.1350   58.8010 C.ar    0  <0>0        0.0392
     14  N1         7.1540   37.1300   55.6590 N.pl3   0  <0>0        0.0607
     15  O3         8.0010   36.4250   55.1610 O.2     0  <0>0       -0.1260
     16  O4         7.1280   38.3120   55.4100 O.2     0  <0>0       -0.1260
     17  O1         7.6350   37.7000   61.1730 O.3     0  <0>0       -0.5029
     18  H17        8.0960   38.4860   61.4960 H       0  <0>0        0.2923
     19  C6        11.2440   34.4160   61.2900 C.3     0  <0>0        0.0265
     20  C5        11.9300   35.3270   62.3100 C.3     0  <0>0        0.0047
     21  C4        12.7230   34.4730   63.3030 C.3     0  <0>0        0.0003
     22  C3        13.8940   33.8050   62.5790 C.3     0  <0>0        0.0000
     23  C2        14.2760   32.5160   63.3080 C.3     0  <0>0        0.0000
     24  C1        13.1030   31.5350   63.2590 C.3     0  <0>0        0.0000
@<TRIPOS>BOND
     1    15    14    2
     2    16    14    2
     3    14     9    1
     4    10     9   ar
     5    10    11   ar
     6     9     8   ar
     7    11    12   ar
     8     8     7    1
     9     8    13   ar
    10    12    13   ar
    11     7     4    1
    12     3     4   ar
    13     3     2   ar
    14     4     5   ar
    15     2     1   ar
    16     5    17    1
    17     5     6   ar
    18     1     6   ar
    19     1    19    1
    20    17    18    1
    21    19    20    1
    22    20    21    1
    23    22    21    1
    24    22    23    1
    25    24    23    1
