@<TRIPOS>MOLECULE
CHEMBL217852_replica-1.pdb
 29 33 0 0 0
SMALL
GASTEIGER

@<TRIPOS>ATOM
      1  N1         1.0770   30.8790   55.7640 N.am    0  <0>0       -0.2839
      2  C13        0.8550   30.9130   57.0920 C.2     0  <0>0        0.2278
      3  O1        -0.1680   30.4450   57.5480 O.2     0  <0>0       -0.2747
      4  H10        1.9260   31.1830   55.4060 H       0  <0>0        0.1549
      5  C14        1.8750   31.5330   58.0120 C.3     0  <0>0        0.1056
      6  C17        2.1050   33.0200   57.6600 C.3     0  <0>0        0.1029
      7  N2         2.3100   33.6990   58.9440 N.am    0  <0>0       -0.2807
      8  C16        1.8790   32.9440   59.9700 C.2     0  <0>0        0.2261
      9  C15        1.3310   31.6320   59.4560 C.3     0  <0>0        0.0961
     10  O2         1.9240   33.2690   61.1370 O.2     0  <0>0       -0.2749
     11  C18        2.9070   35.0290   59.0900 C.3     0  <0>0        0.0753
     12  C23        4.3240   34.9210   59.7330 C.3     0  <0>0        0.0182
     13  C22        5.0410   33.8060   58.9120 C.3     0  <0>0        0.0016
     14  C24        5.0100   36.2020   59.1420 C.3     0  <0>0        0.0017
     15  C21        5.2890   34.4400   57.5250 C.3     0  <0>0        0.0001
     16  C20        4.6980   35.8790   57.6380 C.3     0  <0>0        0.0017
     17  C19        3.1560   35.6640   57.7020 C.3     0  <0>0        0.0198
     18  C11        0.0840   30.4050   54.8990 C.ar    0  <0>0        0.0503
     19  C10       -0.9990   31.2130   54.5750 C.ar    0  <0>0        0.0147
     20  C9        -1.9820   30.7470   53.7220 C.ar    0  <0>0        0.0013
     21  C8        -1.8930   29.4780   53.1880 C.ar    0  <0>0        0.0001
     22  C7        -0.8110   28.6610   53.5070 C.ar    0  <0>0        0.0012
     23  C12        0.1770   29.1250   54.3710 C.ar    0  <0>0        0.0147
     24  C4        -0.7150   27.2950   52.9330 C.ar    0  <0>0        0.0000
     25  C3        -0.0290   26.2950   53.6200 C.ar    0  <0>0        0.0000
     26  C2         0.0560   25.0270   53.0810 C.ar    0  <0>0        0.0000
     27  C1        -0.5390   24.7480   51.8640 C.ar    0  <0>0        0.0000
     28  C6        -1.2200   25.7370   51.1790 C.ar    0  <0>0        0.0000
     29  C5        -1.3120   27.0090   51.7070 C.ar    0  <0>0        0.0000
@<TRIPOS>BOND
     1    28    29   ar
     2    28    27   ar
     3    29    24   ar
     4    27    26   ar
     5    24    22    1
     6    24    25   ar
     7    26    25   ar
     8    21    22   ar
     9    21    20   ar
    10    22    23   ar
    11    20    19   ar
    12    23    18   ar
    13    19    18   ar
    14    18     1    1
    15     4     1    1
    16     1     2   am
    17     2     3    2
    18     2     5    1
    19    15    16    1
    20    15    13    1
    21    16    17    1
    22    16    14    1
    23     6     5    1
    24     6     7    1
    25    17    11    1
    26     5     9    1
    27    13    12    1
    28     7    11    1
    29     7     8   am
    30    11    12    1
    31    14    12    1
    32     9     8    1
    33     8    10    2
