@<TRIPOS>MOLECULE
CHEMBL404984_replica-1.pdb
 24 25 0 0 0
SMALL
GASTEIGER

@<TRIPOS>ATOM
      1  C7        10.9680   35.5180   61.6110 C.ar    0  <0>0       -0.0190
      2  C8        10.6990   34.6630   60.5590 C.ar    0  <0>0       -0.0009
      3  C9         9.4980   34.7560   59.8790 C.ar    0  <0>0        0.0403
      4  C10        8.5630   35.7080   60.2530 C.ar    0  <0>0        0.1787
      5  C11        8.8350   36.5690   61.3110 C.ar    0  <0>0        0.1680
      6  C12       10.0380   36.4670   61.9920 C.ar    0  <0>0        0.0355
      7  O2         7.3810   35.8010   59.5850 O.3     0  <0>0       -0.4504
      8  C13        7.3920   36.3570   58.3440 C.ar    0  <0>0        0.1467
      9  C18        8.2010   37.4500   58.0820 C.ar    0  <0>0        0.0516
     10  C17        8.2140   38.0120   56.8130 C.ar    0  <0>0        0.0446
     11  C16        7.4060   37.4850   55.8140 C.ar    0  <0>0        0.0143
     12  C15        6.5960   36.3980   56.0810 C.ar    0  <0>0        0.0044
     13  C14        6.5860   35.8340   57.3420 C.ar    0  <0>0        0.0376
     14  N1         9.0330   39.1110   56.5420 N.pl3   0  <0>0       -0.3569
     15  H22        9.1400   39.8120   57.2050 H       0  <0>0        0.1424
     16  H23        9.4960   39.1730   55.6930 H       0  <0>0        0.1424
     17  O1         7.9200   37.5050   61.6810 O.3     0  <0>0       -0.5029
     18  H17        7.4000   37.2610   62.4590 H       0  <0>0        0.2923
     19  C6        12.2780   35.4120   62.3490 C.3     0  <0>0        0.0265
     20  C5        12.4250   34.0040   62.9300 C.3     0  <0>0        0.0047
     21  C4        13.9090   33.6720   63.0960 C.3     0  <0>0        0.0003
     22  C3        14.0630   32.1940   63.4580 C.3     0  <0>0        0.0000
     23  C2        12.7830   31.4420   63.0840 C.3     0  <0>0        0.0000
     24  C1        12.7480   30.0990   63.8160 C.3     0  <0>0        0.0000
@<TRIPOS>BOND
     1    16    14    1
     2    11    12   ar
     3    11    10   ar
     4    12    13   ar
     5    14    10    1
     6    14    15    1
     7    10     9   ar
     8    13     8   ar
     9     9     8   ar
    10     8     7    1
    11     7     4    1
    12     3     4   ar
    13     3     2   ar
    14     4     5   ar
    15     2     1   ar
    16     5    17    1
    17     5     6   ar
    18     1     6   ar
    19     1    19    1
    20    17    18    1
    21    19    20    1
    22    20    21    1
    23    23    22    1
    24    23    24    1
    25    21    22    1
