@<TRIPOS>MOLECULE
CHEMBL441373_replica-1.pdb
 28 31 0 0 0
SMALL
GASTEIGER

@<TRIPOS>ATOM
      1  N1         1.0880   31.0030   55.5880 N.am    0  <0>0       -0.2839
      2  C13        0.9970   31.0040   56.9330 C.2     0  <0>0        0.2278
      3  O1         0.0520   30.4730   57.4770 O.2     0  <0>0       -0.2747
      4  H10        1.8790   31.3600   55.1550 H       0  <0>0        0.1549
      5  C11        0.0410   30.4880   54.8160 C.ar    0  <0>0        0.0503
      6  C10       -1.1070   31.2440   54.6090 C.ar    0  <0>0        0.0147
      7  C9        -2.1430   30.7390   53.8470 C.ar    0  <0>0        0.0013
      8  C8        -2.0440   29.4820   53.2870 C.ar    0  <0>0        0.0001
      9  C7        -0.8960   28.7160   53.4880 C.ar    0  <0>0        0.0012
     10  C12        0.1460   29.2220   54.2610 C.ar    0  <0>0        0.0147
     11  C4        -0.7880   27.3640   52.8870 C.ar    0  <0>0        0.0000
     12  C3        -1.3840   27.0980   51.6560 C.ar    0  <0>0        0.0000
     13  C2        -1.2790   25.8380   51.1010 C.ar    0  <0>0        0.0000
     14  C1        -0.5840   24.8430   51.7630 C.ar    0  <0>0        0.0000
     15  C6         0.0100   25.1020   52.9850 C.ar    0  <0>0        0.0000
     16  C5        -0.0890   26.3580   53.5500 C.ar    0  <0>0        0.0000
     17  C14        2.0690   31.6650   57.7610 C.3     0  <0>0        0.1056
     18  C17        2.8240   32.7330   56.9370 C.3     0  <0>0        0.1029
     19  N2         3.1160   33.8190   57.8800 N.am    0  <0>0       -0.2807
     20  C16        2.3530   33.7280   58.9820 C.2     0  <0>0        0.2261
     21  C15        1.4470   32.5200   58.8900 C.3     0  <0>0        0.0961
     22  O2         2.3860   34.5010   59.9170 O.2     0  <0>0       -0.2749
     23  C18        4.1110   34.8690   57.6470 C.3     0  <0>0        0.0753
     24  C23        5.5010   34.3430   58.0070 C.3     0  <0>0        0.0198
     25  C22        6.5400   35.4390   57.7640 C.3     0  <0>0        0.0017
     26  C21        6.5160   35.8470   56.2890 C.3     0  <0>0        0.0001
     27  C20        5.1260   36.3730   55.9290 C.3     0  <0>0        0.0017
     28  C19        4.0870   35.2770   56.1730 C.3     0  <0>0        0.0198
@<TRIPOS>BOND
     1    13    12   ar
     2    13    14   ar
     3    12    11   ar
     4    14    15   ar
     5    11     9    1
     6    11    16   ar
     7    15    16   ar
     8     8     9   ar
     9     8     7   ar
    10     9    10   ar
    11     7     6   ar
    12    10     5   ar
    13     6     5   ar
    14     5     1    1
    15     4     1    1
    16     1     2   am
    17    27    28    1
    18    27    26    1
    19    28    23    1
    20    26    25    1
    21     2     3    2
    22     2    17    1
    23    18    17    1
    24    18    19    1
    25    23    19    1
    26    23    24    1
    27    17    21    1
    28    25    24    1
    29    19    20   am
    30    21    20    1
    31    20    22    2
