@<TRIPOS>MOLECULE
CHEMBL264176_replica-1.pdb
 26 27 0 0 0
SMALL
GASTEIGER

@<TRIPOS>ATOM
      1  C7        10.7740   35.6150   61.3980 C.ar    0  <0>0       -0.0190
      2  C8        10.5580   34.8940   60.2390 C.ar    0  <0>0       -0.0009
      3  C9         9.3820   35.0540   59.5290 C.ar    0  <0>0        0.0403
      4  C10        8.4160   35.9400   59.9800 C.ar    0  <0>0        0.1787
      5  C11        8.6340   36.6660   61.1470 C.ar    0  <0>0        0.1680
      6  C12        9.8120   36.4960   61.8560 C.ar    0  <0>0        0.0355
      7  O2         7.2600   36.1000   59.2840 O.3     0  <0>0       -0.4492
      8  C13        7.3230   36.7210   58.0760 C.ar    0  <0>0        0.1587
      9  C18        6.8020   36.0990   56.9430 C.ar    0  <0>0        0.0853
     10  C17        6.8630   36.7410   55.7150 C.ar    0  <0>0        0.0178
     11  C16        7.4510   37.9880   55.6150 C.ar    0  <0>0        0.0015
     12  C15        7.9730   38.6020   56.7390 C.ar    0  <0>0        0.0032
     13  C14        7.9110   37.9710   57.9680 C.ar    0  <0>0        0.0388
     14  N1         6.2120   34.8320   57.0450 N.am    0  <0>0       -0.2815
     15  C19        6.9490   33.7260   56.8230 C.2     0  <0>0        0.2267
     16  O3         8.1010   33.8280   56.4580 O.2     0  <0>0       -0.2748
     17  C20        6.3410   32.3620   57.0280 C.3     0  <0>0        0.0949
     18  H22        5.2740   34.7510   57.2750 H       0  <0>0        0.1549
     19  O1         7.6890   37.5380   61.5940 O.3     0  <0>0       -0.5029
     20  H17        7.6370   37.5980   62.5580 H       0  <0>0        0.2923
     21  C6        12.0570   35.4350   62.1670 C.3     0  <0>0        0.0265
     22  C5        12.3520   33.9430   62.3250 C.3     0  <0>0        0.0047
     23  C4        13.8330   33.7470   62.6580 C.3     0  <0>0        0.0003
     24  C3        14.0380   32.3630   63.2740 C.3     0  <0>0        0.0000
     25  C2        12.7850   31.5140   63.0490 C.3     0  <0>0        0.0000
     26  C1        12.8110   30.3060   63.9890 C.3     0  <0>0        0.0000
@<TRIPOS>BOND
     1    11    10   ar
     2    11    12   ar
     3    10     9   ar
     4    16    15    2
     5    12    13   ar
     6    15    17    1
     7    15    14   am
     8     9    14    1
     9     9     8   ar
    10    14    18    1
    11    13     8   ar
    12     8     7    1
    13     7     4    1
    14     3     4   ar
    15     3     2   ar
    16     4     5   ar
    17     2     1   ar
    18     5    19    1
    19     5     6   ar
    20     1     6   ar
    21     1    21    1
    22    19    20    1
    23    21    22    1
    24    22    23    1
    25    23    24    1
    26    25    24    1
    27    25    26    1
