@<TRIPOS>MOLECULE
CHEMBL407324_replica-1.pdb
 28 29 0 0 0
SMALL
GASTEIGER

@<TRIPOS>ATOM
      1  C7        10.9800   35.5260   61.5500 C.ar    0  <0>0       -0.0190
      2  C8        10.7430   34.8210   60.3850 C.ar    0  <0>0       -0.0009
      3  C9         9.5670   35.0120   59.6840 C.ar    0  <0>0        0.0403
      4  C10        8.6230   35.9140   60.1490 C.ar    0  <0>0        0.1787
      5  C11        8.8620   36.6260   61.3210 C.ar    0  <0>0        0.1680
      6  C12       10.0400   36.4240   62.0220 C.ar    0  <0>0        0.0355
      7  O2         7.4670   36.1050   59.4590 O.3     0  <0>0       -0.4492
      8  C13        7.5260   36.8050   58.2950 C.ar    0  <0>0        0.1587
      9  C18        6.9560   36.2810   57.1360 C.ar    0  <0>0        0.0857
     10  C17        7.0140   37.0020   55.9510 C.ar    0  <0>0        0.0178
     11  C16        7.6460   38.2300   55.9220 C.ar    0  <0>0        0.0015
     12  C15        8.2160   38.7470   57.0720 C.ar    0  <0>0        0.0032
     13  C14        8.1570   38.0370   58.2570 C.ar    0  <0>0        0.0388
     14  N1         6.3230   35.0340   57.1670 N.am    0  <0>0       -0.2725
     15  C19        7.0150   33.9200   56.8530 C.2     0  <0>0        0.3298
     16  O3         8.1550   34.0070   56.4480 O.2     0  <0>0       -0.2625
     17  H22        5.3870   34.9700   57.4120 H       0  <0>0        0.1555
     18  C20        6.3760   32.5760   57.0040 C.2     0  <0>0        0.4405
     19  O4         5.2110   32.4910   57.3560 O.co2   0  <0>0       -0.2354
     20  O5         7.0200   31.5650   56.7750 O.co2   0  <0>0       -0.2354
     21  O1         7.9380   37.5110   61.7820 O.3     0  <0>0       -0.5029
     22  H17        7.8970   38.3350   61.2770 H       0  <0>0        0.2923
     23  C6        12.2630   35.3130   62.3110 C.3     0  <0>0        0.0265
     24  C5        12.4990   33.8130   62.5040 C.3     0  <0>0        0.0047
     25  C4        13.9710   33.5670   62.8360 C.3     0  <0>0        0.0003
     26  C3        14.1160   32.2140   63.5360 C.3     0  <0>0        0.0000
     27  C2        12.9490   31.3070   63.1400 C.3     0  <0>0        0.0000
     28  C1        12.6470   30.3360   64.2830 C.3     0  <0>0        0.0000
@<TRIPOS>BOND
     1    11    10   ar
     2    11    12   ar
     3    10     9   ar
     4    16    15    2
     5    20    18   ar
     6    15    18    1
     7    15    14   am
     8    18    19   ar
     9    12    13   ar
    10     9    14    1
    11     9     8   ar
    12    14    17    1
    13    13     8   ar
    14     8     7    1
    15     7     4    1
    16     3     4   ar
    17     3     2   ar
    18     4     5   ar
    19     2     1   ar
    20    22    21    1
    21     5    21    1
    22     5     6   ar
    23     1     6   ar
    24     1    23    1
    25    23    24    1
    26    24    25    1
    27    25    26    1
    28    27    26    1
    29    27    28    1
