@<TRIPOS>MOLECULE
CHEMBL240533_replica-1.pdb
 27 31 0 0 0
SMALL
GASTEIGER

@<TRIPOS>ATOM
      1  C7         3.7710   33.0130   57.3370 C.2     0  <0>0        0.2491
      2  O1         3.4210   32.4800   56.3030 O.2     0  <0>0       -0.2699
      3  N1         5.0770   33.0530   57.6670 N.am    0  <0>0       -0.2732
      4  C8         5.5130   33.6080   58.9570 C.3     0  <0>0        0.1111
      5  C9         6.6110   34.6440   58.6960 C.3     0  <0>0        0.0944
      6  N2         7.6760   34.0320   57.8910 N.3     0  <0>0       -0.2638
      7  C10        7.1790   33.6230   56.5710 C.3     0  <0>0        0.0944
      8  C11        6.1040   32.5390   56.7480 C.3     0  <0>0        0.1111
      9  C12        8.8260   34.9370   57.7640 C.3     0  <0>0        0.1031
     10  C20        9.4510   35.1780   59.1160 C.ar    0  <0>0       -0.0036
     11  C19        9.3660   36.5420   59.3800 C.ar    0  <0>0       -0.0026
     12  C21       10.0340   34.3260   60.0310 C.ar    0  <0>0       -0.0026
     13  C18        8.7020   37.2250   58.2430 C.ar    0  <0>0       -0.0026
     14  C24        9.8760   37.0400   60.5810 C.ar    0  <0>0       -0.0003
     15  C13        8.3720   36.2880   57.2680 C.ar    0  <0>0       -0.0036
     16  C17        8.3880   38.5690   58.0340 C.ar    0  <0>0       -0.0003
     17  C14        7.7410   36.6840   56.1070 C.ar    0  <0>0       -0.0026
     18  C15        7.4330   38.0180   55.9070 C.ar    0  <0>0       -0.0003
     19  C16        7.7570   38.9570   56.8700 C.ar    0  <0>0       -0.0000
     20  C23       10.4570   36.1810   61.4910 C.ar    0  <0>0       -0.0000
     21  C22       10.5370   34.8260   61.2190 C.ar    0  <0>0       -0.0003
     22  C4         2.7630   33.6180   58.2350 C.ar    0  <0>0        0.0536
     23  C3         2.4370   34.9700   58.1120 C.ar    0  <0>0        0.0045
     24  C2         1.4960   35.5280   58.9520 C.ar    0  <0>0        0.0001
     25  C1         0.8750   34.7510   59.9130 C.ar    0  <0>0        0.0000
     26  C6         1.1930   33.4100   60.0410 C.ar    0  <0>0        0.0001
     27  C5         2.1340   32.8400   59.2070 C.ar    0  <0>0        0.0045
@<TRIPOS>BOND
     1    18    17   ar
     2    18    19   ar
     3    17    15   ar
     4     2     1    2
     5     7     8    1
     6     7     6    1
     7     8     3    1
     8    19    16   ar
     9    15     9    1
    10    15    13   ar
    11     1     3   am
    12     1    22    1
    13     3     4    1
    14     9     6    1
    15     9    10    1
    16     6     5    1
    17    16    13   ar
    18    23    22   ar
    19    23    24   ar
    20    22    27   ar
    21    13    11    1
    22     5     4    1
    23    24    25   ar
    24    10    11   ar
    25    10    12   ar
    26    27    26   ar
    27    11    14   ar
    28    25    26   ar
    29    12    21   ar
    30    14    20   ar
    31    21    20   ar
