@<TRIPOS>MOLECULE
CHEMBL216579_replica-1.pdb
 31 36 0 0 0
SMALL
GASTEIGER

@<TRIPOS>ATOM
      1  N1         8.4620   33.8680   58.6890 N.3     0  <0>0       -0.2638
      2  C14        7.2700   34.2430   57.9160 C.3     0  <0>0        0.0944
      3  C15        6.2880   33.0680   57.8950 C.3     0  <0>0        0.1111
      4  N2         6.0260   32.6530   59.2810 N.am    0  <0>0       -0.2732
      5  C16        7.1760   32.3920   60.1590 C.3     0  <0>0        0.1111
      6  C17        8.1230   33.5950   60.0920 C.3     0  <0>0        0.0944
      7  C18        4.7640   32.5160   59.7340 C.2     0  <0>0        0.2491
      8  O1         4.5630   32.1060   60.8610 O.2     0  <0>0       -0.2699
      9  C13        9.5000   34.9030   58.5900 C.3     0  <0>0        0.1031
     10  C4         8.8750   36.2390   58.2710 C.ar    0  <0>0       -0.0036
     11  C3         8.1240   36.6780   57.2010 C.ar    0  <0>0       -0.0026
     12  C5         9.1750   37.1040   59.3190 C.ar    0  <0>0       -0.0026
     13  C2         7.6660   37.9830   57.1640 C.ar    0  <0>0       -0.0003
     14  C1         7.9600   38.8490   58.2020 C.ar    0  <0>0       -0.0000
     15  C6         8.7090   38.4190   59.2770 C.ar    0  <0>0       -0.0003
     16  C7         9.9860   36.3870   60.3350 C.ar    0  <0>0       -0.0026
     17  C12       10.1920   35.0740   59.9200 C.ar    0  <0>0       -0.0036
     18  C8        10.5270   36.8140   61.5480 C.ar    0  <0>0       -0.0003
     19  C11       10.9240   34.2040   60.7010 C.ar    0  <0>0       -0.0026
     20  C10       11.4570   34.6350   61.9030 C.ar    0  <0>0       -0.0003
     21  C9        11.2570   35.9380   62.3240 C.ar    0  <0>0       -0.0000
     22  C19        3.6240   32.8630   58.8620 C.ar    0  <0>0        0.0537
     23  C24        3.1740   34.1790   58.7970 C.ar    0  <0>0        0.0060
     24  C23        2.1010   34.4930   57.9660 C.ar    0  <0>0        0.0172
     25  C22        1.4770   33.4840   57.2090 C.ar    0  <0>0        0.0566
     26  C25        1.3860   35.7340   57.6550 C.ar    0  <0>0        0.0199
     27  C21        1.9400   32.1720   57.2930 C.ar    0  <0>0        0.0171
     28  N3         0.4630   34.0790   56.4980 N.ar    0  <0>0       -0.3520
     29  C20        2.9940   31.8670   58.1030 C.ar    0  <0>0        0.0060
     30  C26        0.4220   35.4190   56.7750 C.ar    0  <0>0        0.0724
     31  H1        -0.1350   33.6190   55.8890 H       0  <0>0        0.1660
@<TRIPOS>BOND
     1    31    28    1
     2    28    30   ar
     3    28    25   ar
     4    30    26   ar
     5    13    11   ar
     6    13    14   ar
     7    11    10   ar
     8    25    27   ar
     9    25    24   ar
    10    27    29   ar
    11    26    24   ar
    12     3     2    1
    13     3     4    1
    14     2     1    1
    15    24    23   ar
    16    29    22   ar
    17    14    15   ar
    18    10     9    1
    19    10    12   ar
    20     9     1    1
    21     9    17    1
    22     1     6    1
    23    23    22   ar
    24    22     7    1
    25    15    12   ar
    26     4     7   am
    27     4     5    1
    28    12    16    1
    29     7     8    2
    30    17    16   ar
    31    17    19   ar
    32     6     5    1
    33    16    18   ar
    34    19    20   ar
    35    18    21   ar
    36    20    21   ar
