@<TRIPOS>MOLECULE
CHEMBL405653_replica-1.pdb
 30 32 0 0 0
SMALL
GASTEIGER

@<TRIPOS>ATOM
      1  C13        6.9580   36.0400   57.2090 C.ar    0  <0>0        0.1467
      2  C14        6.9000   35.5540   55.9080 C.ar    0  <0>0        0.0376
      3  C15        5.9240   34.6430   55.5530 C.ar    0  <0>0        0.0044
      4  C16        5.0020   34.2130   56.4880 C.ar    0  <0>0        0.0149
      5  C17        5.0550   34.6950   57.7890 C.ar    0  <0>0        0.0537
      6  C18        6.0390   35.6060   58.1500 C.ar    0  <0>0        0.0522
      7  O2         7.9190   36.9340   57.5570 O.3     0  <0>0       -0.4504
      8  C10        8.7200   36.6310   58.6130 C.ar    0  <0>0        0.1787
      9  C9         9.4110   35.4300   58.6400 C.ar    0  <0>0        0.0403
     10  C8        10.2240   35.1230   59.7140 C.ar    0  <0>0       -0.0009
     11  C7        10.3500   36.0120   60.7670 C.ar    0  <0>0       -0.0190
     12  C12        9.6590   37.2100   60.7490 C.ar    0  <0>0        0.0355
     13  C11        8.8460   37.5250   59.6720 C.ar    0  <0>0        0.1680
     14  C6        11.2360   35.6720   61.9360 C.3     0  <0>0        0.0265
     15  C5        11.8170   34.2700   61.7450 C.3     0  <0>0        0.0047
     16  C4        12.3780   33.7640   63.0760 C.3     0  <0>0        0.0003
     17  C3        13.6270   32.9190   62.8150 C.3     0  <0>0        0.0000
     18  C2        14.8750   33.7900   62.9780 C.3     0  <0>0        0.0000
     19  C1        15.3540   33.7260   64.4300 C.3     0  <0>0        0.0000
     20  O1         8.1700   38.7060   59.6520 O.3     0  <0>0       -0.5029
     21  H17        7.5980   38.8180   58.8810 H       0  <0>0        0.2923
     22  N1         4.1220   34.2600   58.7350 N.am    0  <0>0       -0.2777
     23  C19        2.9630   34.9290   58.8950 C.2     0  <0>0        0.2869
     24  O3         2.7620   35.9560   58.2760 O.2     0  <0>0       -0.2664
     25  H22        4.3090   33.4770   59.2760 H       0  <0>0        0.1553
     26  C20        1.9380   34.4160   59.8240 C.ar    0  <0>0        0.2302
     27  O4         0.7430   34.9830   60.0830 O.2     0  <0>0       -0.3487
     28  N2         0.0710   34.1670   61.0250 N.ar    0  <0>0       -0.0751
     29  C22        0.8440   33.1610   61.3180 C.ar    0  <0>0        0.1440
     30  C21        2.0310   33.2860   60.5770 C.ar    0  <0>0        0.0690
@<TRIPOS>BOND
     1     3     2   ar
     2     3     4   ar
     3     2     1   ar
     4     4     5   ar
     5     1     7    1
     6     1     6   ar
     7     7     8    1
     8     5     6   ar
     9     5    22    1
    10    24    23    2
    11     8     9   ar
    12     8    13   ar
    13     9    10   ar
    14    22    23   am
    15    22    25    1
    16    21    20    1
    17    23    26    1
    18    20    13    1
    19    13    12   ar
    20    10    11   ar
    21    26    27   ar
    22    26    30   ar
    23    27    28   ar
    24    30    29   ar
    25    12    11   ar
    26    11    14    1
    27    28    29   ar
    28    15    14    1
    29    15    16    1
    30    17    18    1
    31    17    16    1
    32    18    19    1
