@<TRIPOS>MOLECULE
CHEMBL386329_replica-1.pdb
 32 36 0 0 0
SMALL
GASTEIGER

@<TRIPOS>ATOM
      1  C1         1.1830   27.0010   59.5450 C.3     0  <0>0        0.1152
      2  N1        -0.2120   27.4240   59.3900 N.am    0  <0>0       -0.2736
      3  C17       -0.6390   28.5630   59.9720 C.2     0  <0>0        0.2276
      4  O1        -1.8130   28.8610   59.9320 O.2     0  <0>0       -0.2748
      5  C2        -1.1410   26.6100   58.6050 C.3     0  <0>0        0.1202
      6  C3        -0.5220   26.2840   57.2710 C.ar    0  <0>0       -0.0023
      7  C12       -0.1790   24.9700   56.9590 C.ar    0  <0>0       -0.0024
      8  C11        0.4180   24.6530   55.6580 C.ar    0  <0>0       -0.0003
      9  C13       -0.4010   23.9210   57.8770 C.ar    0  <0>0       -0.0003
     10  C10        0.6580   25.6640   54.7300 C.ar    0  <0>0       -0.0000
     11  C16        0.7470   23.3100   55.3720 C.ar    0  <0>0       -0.0000
     12  C9         0.3210   26.9790   55.0450 C.ar    0  <0>0       -0.0003
     13  C4        -0.2830   27.2960   56.3430 C.ar    0  <0>0       -0.0024
     14  C8         0.5490   28.0290   54.1280 C.ar    0  <0>0       -0.0000
     15  C5        -0.6120   28.6390   56.6280 C.ar    0  <0>0       -0.0003
     16  C6        -0.3650   29.6010   55.7020 C.ar    0  <0>0       -0.0000
     17  C7         0.2080   29.2990   54.4660 C.ar    0  <0>0       -0.0000
     18  C15        0.5190   22.3510   56.3050 C.ar    0  <0>0       -0.0000
     19  C14       -0.0550   22.6520   57.5410 C.ar    0  <0>0       -0.0000
     20  C18        0.3440   29.4650   60.6730 C.3     0  <0>0        0.1055
     21  C21        0.6600   30.7110   59.8160 C.3     0  <0>0        0.1029
     22  N2         0.8080   31.8160   60.7700 N.am    0  <0>0       -0.2807
     23  C20        0.2790   31.5030   61.9660 C.2     0  <0>0        0.2261
     24  C19       -0.2890   30.1010   61.9320 C.3     0  <0>0        0.0961
     25  O2         0.2610   32.2370   62.9310 O.2     0  <0>0       -0.2749
     26  C22        1.4510   33.0950   60.4600 C.3     0  <0>0        0.0753
     27  C28        2.8690   32.8650   60.2250 C.3     0  <0>0        0.0198
     28  C27        3.6400   34.1730   59.9540 C.3     0  <0>0        0.0017
     29  C26        3.4170   34.5720   58.5190 C.3     0  <0>0        0.0001
     30  C25        2.2480   35.5630   58.3570 C.3     0  <0>0        0.0001
     31  C24        1.0330   35.2020   59.2330 C.3     0  <0>0        0.0017
     32  C23        0.7470   33.7250   59.2400 C.3     0  <0>0        0.0198
@<TRIPOS>BOND
     1    14    17   ar
     2    14    12   ar
     3    17    16   ar
     4    10    12   ar
     5    10     8   ar
     6    12    13   ar
     7    11     8   ar
     8    11    18   ar
     9     8     7   ar
    10    16    15   ar
    11    18    19   ar
    12    13    15   ar
    13    13     6   ar
    14     7     6   ar
    15     7     9   ar
    16     6     5    1
    17    19     9   ar
    18    30    29    1
    19    30    31    1
    20    29    28    1
    21     5     2    1
    22    31    32    1
    23    32    26    1
    24     2     1    1
    25     2     3   am
    26    21    20    1
    27    21    22    1
    28     4     3    2
    29    28    27    1
    30     3    20    1
    31    27    26    1
    32    26    22    1
    33    20    24    1
    34    22    23   am
    35    24    23    1
    36    23    25    2
