@<TRIPOS>MOLECULE
CHEMBL386324_replica-1.pdb
 27 29 0 0 0
SMALL
GASTEIGER

@<TRIPOS>ATOM
      1  N1        11.7490   34.7370   61.4920 N.am    0  <0>0       -0.2839
      2  C7        11.3000   35.9010   62.0010 C.2     0  <0>0        0.2278
      3  O1        11.6820   36.2720   63.0910 O.2     0  <0>0       -0.2747
      4  H4        11.5040   34.4750   60.5890 H       0  <0>0        0.1549
      5  C8        10.3250   36.7410   61.2170 C.3     0  <0>0        0.1056
      6  C11        9.9950   36.0810   59.8600 C.3     0  <0>0        0.1029
      7  N2         8.5750   36.3670   59.6210 N.am    0  <0>0       -0.2807
      8  C10        7.9570   36.7460   60.7520 C.2     0  <0>0        0.2261
      9  C9         8.9390   36.7630   61.9020 C.3     0  <0>0        0.0961
     10  O2         6.7820   37.0340   60.8370 O.2     0  <0>0       -0.2749
     11  C12        7.9180   36.2520   58.3160 C.3     0  <0>0        0.0753
     12  C17        8.0560   37.5740   57.5580 C.3     0  <0>0        0.0198
     13  C16        7.3700   37.4530   56.1960 C.3     0  <0>0        0.0017
     14  C15        8.0280   36.3310   55.3900 C.3     0  <0>0        0.0001
     15  C14        7.8900   35.0100   56.1480 C.3     0  <0>0        0.0017
     16  C13        8.5760   35.1300   57.5100 C.3     0  <0>0        0.0198
     17  C6        12.5660   33.9030   62.2640 C.ar    0  <0>0        0.0507
     18  C1        12.1090   32.6520   62.6580 C.ar    0  <0>0        0.0186
     19  C2        12.9180   31.8320   63.4200 C.ar    0  <0>0        0.0731
     20  C3        14.1810   32.2530   63.7890 C.ar    0  <0>0        0.0106
     21  C4        14.6400   33.4990   63.3970 C.ar    0  <0>0        0.0357
     22  C5        13.8350   34.3250   62.6360 C.ar    0  <0>0        0.0213
     23 Br         16.3690   34.0730   63.9070 Br      0  <0>0       -0.0490
     24  C18       12.4230   30.4750   63.8480 C.3     0  <0>0        0.4186
     25  F1        13.0090   29.4890   63.0470 F       0  <0>0       -0.1659
     26  F2        12.7670   30.2540   65.1860 F       0  <0>0       -0.1659
     27  F3        11.0320   30.4210   63.7100 F       0  <0>0       -0.1659
@<TRIPOS>BOND
     1    14    15    1
     2    14    13    1
     3    15    16    1
     4    13    12    1
     5    16    11    1
     6    12    11    1
     7    11     7    1
     8     7     6    1
     9     7     8   am
    10     6     5    1
    11     4     1    1
    12     8    10    2
    13     8     9    1
    14     5     9    1
    15     5     2    1
    16     1     2   am
    17     1    17    1
    18     2     3    2
    19    17    22   ar
    20    17    18   ar
    21    22    21   ar
    22    18    19   ar
    23    25    24    1
    24    21    20   ar
    25    21    23    1
    26    19    20   ar
    27    19    24    1
    28    27    24    1
    29    24    26    1
