@<TRIPOS>MOLECULE
CHEMBL405655_replica-1.pdb
 21 22 0 0 0
SMALL
GASTEIGER

@<TRIPOS>ATOM
      1  C7        10.9580   35.5880   61.5960 C.ar    0  <0>0       -0.0190
      2  C8        10.7490   34.8460   60.4480 C.ar    0  <0>0       -0.0009
      3  C9         9.5790   34.9960   59.7270 C.ar    0  <0>0        0.0403
      4  C10        8.6120   35.8920   60.1560 C.ar    0  <0>0        0.1787
      5  C11        8.8220   36.6370   61.3120 C.ar    0  <0>0        0.1680
      6  C12        9.9950   36.4780   62.0320 C.ar    0  <0>0        0.0355
      7  O2         7.4610   36.0410   59.4490 O.3     0  <0>0       -0.4489
      8  C13        7.5030   36.7800   58.3090 C.ar    0  <0>0        0.1645
      9  C17        6.7140   36.4390   57.2200 C.ar    0  <0>0        0.1362
     10  N1         6.7450   37.1580   56.1150 N.ar    0  <0>0       -0.2391
     11  C16        7.5290   38.2110   55.9940 C.ar    0  <0>0        0.0991
     12  C15        8.3490   38.6090   57.0340 C.ar    0  <0>0        0.0238
     13  C14        8.3420   37.8870   58.2160 C.ar    0  <0>0        0.0407
     14  O1         7.8770   37.5180   61.7370 O.3     0  <0>0       -0.5029
     15  H17        8.2300   38.2540   62.2560 H       0  <0>0        0.2923
     16  C6        12.2360   35.4190   62.3770 C.3     0  <0>0        0.0265
     17  C5        12.8470   34.0510   62.0670 C.3     0  <0>0        0.0047
     18  C4        14.0740   33.8280   62.9540 C.3     0  <0>0        0.0003
     19  C3        14.1630   32.3490   63.3390 C.3     0  <0>0        0.0000
     20  C2        12.8300   31.6620   63.0330 C.3     0  <0>0        0.0000
     21  C1        12.8200   30.2670   63.6580 C.3     0  <0>0        0.0000
@<TRIPOS>BOND
     1    11    10   ar
     2    11    12   ar
     3    10     9   ar
     4    12    13   ar
     5     9     8   ar
     6    13     8   ar
     7     8     7    1
     8     7     4    1
     9     3     4   ar
    10     3     2   ar
    11     4     5   ar
    12     2     1   ar
    13     5    14    1
    14     5     6   ar
    15     1     6   ar
    16     1    16    1
    17    14    15    1
    18    17    16    1
    19    17    18    1
    20    18    19    1
    21    20    19    1
    22    20    21    1
