@<TRIPOS>MOLECULE
CHEMBL408149_replica-1.pdb
 30 32 0 0 0
SMALL
GASTEIGER

@<TRIPOS>ATOM
      1  C13        7.5600   36.7910   58.2800 C.ar    0  <0>0        0.1427
      2  C14        8.2900   37.9680   58.1920 C.ar    0  <0>0        0.0372
      3  C15        8.3610   38.6460   56.9910 C.ar    0  <0>0        0.0031
      4  C16        7.7060   38.1540   55.8780 C.ar    0  <0>0       -0.0001
      5  C17        6.9780   36.9820   55.9630 C.ar    0  <0>0        0.0001
      6  C18        6.9090   36.2960   57.1600 C.ar    0  <0>0        0.0284
      7  O2         7.4890   36.1220   59.4610 O.3     0  <0>0       -0.4507
      8  C10        8.6430   35.9120   60.1480 C.ar    0  <0>0        0.1786
      9  C9         9.5720   34.9960   59.6820 C.ar    0  <0>0        0.0403
     10  C8        10.7450   34.7840   60.3820 C.ar    0  <0>0       -0.0009
     11  C7        10.9950   35.4850   61.5480 C.ar    0  <0>0       -0.0190
     12  C12       10.0690   36.3970   62.0220 C.ar    0  <0>0        0.0355
     13  C11        8.8930   36.6170   61.3220 C.ar    0  <0>0        0.1680
     14  C6        12.2750   35.2500   62.3070 C.3     0  <0>0        0.0265
     15  C5        12.5190   33.7460   62.4410 C.3     0  <0>0        0.0047
     16  C4        13.9600   33.5020   62.8960 C.3     0  <0>0        0.0003
     17  C3        14.0590   32.1290   63.5640 C.3     0  <0>0        0.0000
     18  C2        12.8780   31.2630   63.1220 C.3     0  <0>0        0.0000
     19  C1        12.6000   30.1990   64.1870 C.3     0  <0>0        0.0000
     20  O1         7.9850   37.5170   61.7830 O.3     0  <0>0       -0.5029
     21  H17        7.8460   37.4810   62.7400 H       0  <0>0        0.2923
     22  C19        6.1210   35.0140   57.2510 C.3     0  <0>0        0.1021
     23  N1         4.6860   35.3140   57.1580 N.3     0  <0>0       -0.2731
     24  C23        3.9640   34.2300   56.4760 C.3     0  <0>0        0.0496
     25  C22        2.4870   34.6070   56.3470 C.3     0  <0>0       -0.0598
     26  N2         1.9200   34.8320   57.6830 N.4     0  <0>0        0.3874
     27  C21        2.6350   35.9340   58.3410 C.3     0  <0>0       -0.0598
     28  C24        0.4970   35.1770   57.5590 C.3     0  <0>0       -0.1006
     29  H35        2.0150   33.9930   58.2340 H       0  <0>0       -0.0797
     30  C20        4.1130   35.5680   58.4870 C.3     0  <0>0        0.0496
@<TRIPOS>BOND
     1     4     5   ar
     2     4     3   ar
     3     5     6   ar
     4    25    24    1
     5    25    26    1
     6    24    23    1
     7     3     2   ar
     8    23    22    1
     9    23    30    1
    10     6    22    1
    11     6     1   ar
    12    28    26    1
    13    26    29    1
    14    26    27    1
    15     2     1   ar
    16     1     7    1
    17    27    30    1
    18     7     8    1
    19     9     8   ar
    20     9    10   ar
    21     8    13   ar
    22    10    11   ar
    23    13    20    1
    24    13    12   ar
    25    11    12   ar
    26    11    14    1
    27    20    21    1
    28    14    15    1
    29    15    16    1
    30    16    17    1
    31    18    17    1
    32    18    19    1
