@<TRIPOS>MOLECULE
CHEMBL428967_replica-1.pdb
 30 32 0 0 0
SMALL
GASTEIGER

@<TRIPOS>ATOM
      1  C13        7.2120   36.1400   57.7760 C.ar    0  <0>0        0.1587
      2  C14        7.6690   37.3950   57.4060 C.ar    0  <0>0        0.0388
      3  C15        7.7850   37.7200   56.0670 C.ar    0  <0>0        0.0032
      4  C16        7.4470   36.7970   55.0950 C.ar    0  <0>0        0.0015
      5  C17        6.9910   35.5430   55.4560 C.ar    0  <0>0        0.0178
      6  C18        6.8770   35.2070   56.7970 C.ar    0  <0>0        0.0856
      7  O2         7.0980   35.8180   59.0920 O.3     0  <0>0       -0.4492
      8  C10        8.2220   35.8480   59.8560 C.ar    0  <0>0        0.1787
      9  C9         9.2970   35.0300   59.5450 C.ar    0  <0>0        0.0403
     10  C8        10.4390   35.0620   60.3230 C.ar    0  <0>0       -0.0009
     11  C7        10.5130   35.9120   61.4120 C.ar    0  <0>0       -0.0190
     12  C12        9.4430   36.7260   61.7310 C.ar    0  <0>0        0.0355
     13  C11        8.2980   36.7020   60.9530 C.ar    0  <0>0        0.1680
     14  C6        11.7610   35.9430   62.2560 C.3     0  <0>0        0.0265
     15  C5        12.6080   34.7030   61.9610 C.3     0  <0>0        0.0047
     16  C4        12.7900   33.8930   63.2460 C.3     0  <0>0        0.0003
     17  C3        14.1740   33.2410   63.2470 C.3     0  <0>0        0.0000
     18  C2        14.0630   31.8080   63.7710 C.3     0  <0>0        0.0000
     19  C1        12.7970   31.1580   63.2110 C.3     0  <0>0        0.0000
     20  O1         7.2460   37.5080   61.2630 O.3     0  <0>0       -0.5029
     21  H17        7.2350   38.3440   60.7780 H       0  <0>0        0.2923
     22  N1         6.4200   33.9360   57.1650 N.am    0  <0>0       -0.2754
     23  C19        7.2620   32.8840   57.1370 C.2     0  <0>0        0.2870
     24  O3         8.3940   33.0220   56.7180 O.2     0  <0>0       -0.2664
     25  H22        5.4990   33.8130   57.4410 H       0  <0>0        0.1554
     26  C20        6.8080   31.5640   57.6160 C.ar    0  <0>0        0.2302
     27  O4         5.5290   31.1790   57.7910 O.2     0  <0>0       -0.3487
     28  N2         5.5390   29.8420   58.2590 N.ar    0  <0>0       -0.0751
     29  C22        6.7790   29.4570   58.3650 C.ar    0  <0>0        0.1440
     30  C21        7.6070   30.5200   57.9680 C.ar    0  <0>0        0.0690
@<TRIPOS>BOND
     1     4     5   ar
     2     4     3   ar
     3     5     6   ar
     4     3     2   ar
     5    24    23    2
     6     6    22    1
     7     6     1   ar
     8    23    22   am
     9    23    26    1
    10    22    25    1
    11     2     1   ar
    12    26    27   ar
    13    26    30   ar
    14     1     7    1
    15    27    28   ar
    16    30    29   ar
    17    28    29   ar
    18     7     8    1
    19     9     8   ar
    20     9    10   ar
    21     8    13   ar
    22    10    11   ar
    23    21    20    1
    24    13    20    1
    25    13    12   ar
    26    11    12   ar
    27    11    14    1
    28    15    14    1
    29    15    16    1
    30    19    18    1
    31    16    17    1
    32    17    18    1
