@<TRIPOS>MOLECULE
CHEMBL262343_replica-1.pdb
 28 29 0 0 0
SMALL
GASTEIGER

@<TRIPOS>ATOM
      1  C7        10.5220   35.8750   60.9030 C.ar    0  <0>0       -0.0190
      2  C8         9.8540   37.0840   60.8460 C.ar    0  <0>0       -0.0009
      3  C9         9.0040   37.3590   59.7900 C.ar    0  <0>0        0.0403
      4  C10        8.8200   36.4200   58.7860 C.ar    0  <0>0        0.1786
      5  C11        9.4930   35.2030   58.8460 C.ar    0  <0>0        0.1680
      6  C12       10.3480   34.9370   59.9030 C.ar    0  <0>0        0.0355
      7  O2         7.9850   36.6870   57.7480 O.3     0  <0>0       -0.4504
      8  C13        6.6590   36.4400   57.9160 C.ar    0  <0>0        0.1455
      9  C18        6.0910   36.5310   59.1780 C.ar    0  <0>0        0.0388
     10  C17        4.7430   36.2860   59.3480 C.ar    0  <0>0        0.0178
     11  C16        3.9580   35.9370   58.2570 C.ar    0  <0>0        0.0509
     12  C15        4.5290   35.8400   56.9930 C.ar    0  <0>0        0.0178
     13  C14        5.8760   36.0900   56.8240 C.ar    0  <0>0        0.0388
     14  N1         2.5930   35.6830   58.4290 N.am    0  <0>0       -0.2749
     15  C19        2.1810   34.4700   58.8450 C.2     0  <0>0        0.3297
     16  O3         2.9860   33.5740   58.9960 O.2     0  <0>0       -0.2625
     17  H22        1.9450   36.3800   58.2480 H       0  <0>0        0.1554
     18  C20        0.7320   34.2280   59.1240 C.2     0  <0>0        0.4405
     19  O4         0.3100   34.3040   60.2670 O.co2   0  <0>0       -0.2354
     20  O5        -0.0280   33.9520   58.2100 O.co2   0  <0>0       -0.2354
     21  O1         9.3170   34.2790   57.8640 O.3     0  <0>0       -0.5029
     22  H17        8.3910   34.0760   57.6750 H       0  <0>0        0.2923
     23  C6        11.4460   35.5830   62.0570 C.3     0  <0>0        0.0265
     24  C5        11.9360   34.1360   61.9640 C.3     0  <0>0        0.0047
     25  C4        13.4350   34.0850   62.2640 C.3     0  <0>0        0.0003
     26  C3        13.7660   32.7780   62.9870 C.3     0  <0>0        0.0000
     27  C2        12.5160   31.8960   63.0420 C.3     0  <0>0        0.0000
     28  C1        12.9160   30.4680   63.4200 C.3     0  <0>0        0.0000
@<TRIPOS>BOND
     1    13    12   ar
     2    13     8   ar
     3    12    11   ar
     4    22    21    1
     5     7     8    1
     6     7     4    1
     7    21     5    1
     8     8     9   ar
     9    20    18   ar
    10    17    14    1
    11    11    14    1
    12    11    10   ar
    13    14    15   am
    14     4     5   ar
    15     4     3   ar
    16    15    16    2
    17    15    18    1
    18     5     6   ar
    19    18    19   ar
    20     9    10   ar
    21     3     2   ar
    22     6     1   ar
    23     2     1   ar
    24     1    23    1
    25    24    23    1
    26    24    25    1
    27    25    26    1
    28    26    27    1
    29    27    28    1
