@<TRIPOS>MOLECULE
CHEMBL404983_replica-1.pdb
 26 27 0 0 0
SMALL
GASTEIGER

@<TRIPOS>ATOM
      1  C7        11.2960   35.4230   61.8180 C.ar    0  <0>0       -0.0190
      2  C8        10.9820   34.6030   60.7500 C.ar    0  <0>0       -0.0009
      3  C9         9.7850   34.7650   60.0790 C.ar    0  <0>0        0.0403
      4  C10        8.8970   35.7530   60.4750 C.ar    0  <0>0        0.1787
      5  C11        9.2130   36.5780   61.5500 C.ar    0  <0>0        0.1680
      6  C12       10.4120   36.4050   62.2220 C.ar    0  <0>0        0.0355
      7  O2         7.7190   35.9150   59.8150 O.3     0  <0>0       -0.4504
      8  C13        7.7650   36.3200   58.5190 C.ar    0  <0>0        0.1467
      9  C18        7.1660   35.5520   57.5320 C.ar    0  <0>0        0.0521
     10  C17        7.2110   35.9710   56.2090 C.ar    0  <0>0        0.0534
     11  C16        7.8630   37.1520   55.8770 C.ar    0  <0>0        0.0149
     12  C15        8.4620   37.9110   56.8640 C.ar    0  <0>0        0.0044
     13  C14        8.4150   37.5000   58.1820 C.ar    0  <0>0        0.0376
     14  N1         6.6030   35.2020   55.2100 N.am    0  <0>0       -0.2838
     15  C19        5.2940   35.3690   54.9350 C.2     0  <0>0        0.2266
     16  O3         4.6250   36.1280   55.6050 O.2     0  <0>0       -0.2748
     17  C20        4.6620   34.6130   53.7950 C.3     0  <0>0        0.0949
     18  H22        7.1220   34.5490   54.7180 H       0  <0>0        0.1549
     19  O1         8.3440   37.5480   61.9440 O.3     0  <0>0       -0.5029
     20  H17        8.0160   38.0990   61.2210 H       0  <0>0        0.2923
     21  C6        12.6030   35.2400   62.5470 C.3     0  <0>0        0.0265
     22  C5        13.2930   33.9710   62.0450 C.3     0  <0>0        0.0047
     23  C4        14.4680   33.6300   62.9650 C.3     0  <0>0        0.0003
     24  C3        14.2580   32.2410   63.5680 C.3     0  <0>0        0.0000
     25  C2        12.9350   31.6610   63.0620 C.3     0  <0>0        0.0000
     26  C1        12.7330   30.2630   63.6520 C.3     0  <0>0        0.0000
@<TRIPOS>BOND
     1    17    15    1
     2    18    14    1
     3    15    14   am
     4    15    16    2
     5    14    10    1
     6    11    10   ar
     7    11    12   ar
     8    10     9   ar
     9    12    13   ar
    10     9     8   ar
    11    13     8   ar
    12     8     7    1
    13     7     4    1
    14     3     4   ar
    15     3     2   ar
    16     4     5   ar
    17     2     1   ar
    18    20    19    1
    19     5    19    1
    20     5     6   ar
    21     1     6   ar
    22     1    21    1
    23    22    21    1
    24    22    23    1
    25    23    24    1
    26    25    24    1
    27    25    26    1
