@<TRIPOS>MOLECULE
CHEMBL385214_replica-1.pdb
 23 25 0 0 0
SMALL
GASTEIGER

@<TRIPOS>ATOM
      1  C8        10.2850   36.7350   61.1660 C.3     0  <0>0        0.1056
      2  C9         8.9030   36.7630   61.8600 C.3     0  <0>0        0.0961
      3  C10        7.9140   36.8050   60.7150 C.2     0  <0>0        0.2261
      4  O2         6.7460   37.1130   60.8170 O.2     0  <0>0       -0.2749
      5  N2         8.5200   36.4500   59.5680 N.am    0  <0>0       -0.2807
      6  C11        9.9350   36.1280   59.7900 C.3     0  <0>0        0.1029
      7  C7        11.2470   35.8510   61.9170 C.2     0  <0>0        0.2278
      8  N1        11.6540   34.6860   61.3750 N.am    0  <0>0       -0.2839
      9  H5        11.3890   34.4520   60.4720 H       0  <0>0        0.1549
     10  O1        11.6550   36.1880   63.0080 O.2     0  <0>0       -0.2747
     11  C3        12.4580   33.8130   62.1160 C.ar    0  <0>0        0.0508
     12  C2        13.8030   34.1020   62.3100 C.ar    0  <0>0        0.0147
     13  C1        14.5950   33.2380   63.0420 C.ar    0  <0>0        0.0018
     14  C6        14.0500   32.0870   63.5820 C.ar    0  <0>0        0.0068
     15  C5        12.7110   31.7970   63.3900 C.ar    0  <0>0        0.0358
     16  C4        11.9140   32.6560   62.6590 C.ar    0  <0>0        0.0214
     17 Br         11.9710   30.2220   64.1300 Br      0  <0>0       -0.0490
     18  C12        7.8520   36.3930   58.2650 C.3     0  <0>0        0.0753
     19  C17        8.0950   37.7000   57.5100 C.3     0  <0>0        0.0198
     20  C16        7.3980   37.6400   56.1490 C.3     0  <0>0        0.0017
     21  C15        7.9620   36.4710   55.3390 C.3     0  <0>0        0.0001
     22  C14        7.7190   35.1630   56.0950 C.3     0  <0>0        0.0017
     23  C13        8.4160   35.2230   57.4560 C.3     0  <0>0        0.0198
@<TRIPOS>BOND
     1    21    22    1
     2    21    20    1
     3    22    23    1
     4    20    19    1
     5    23    18    1
     6    19    18    1
     7    18     5    1
     8     5     6    1
     9     5     3   am
    10     6     1    1
    11     9     8    1
    12     3     4    2
    13     3     2    1
    14     1     2    1
    15     1     7    1
    16     8     7   am
    17     8    11    1
    18     7    10    2
    19    11    12   ar
    20    11    16   ar
    21    12    13   ar
    22    16    15   ar
    23    13    14   ar
    24    15    14   ar
    25    15    17    1
