@<TRIPOS>MOLECULE
CHEMBL216807_replica-1.pdb
 24 26 0 0 0
SMALL
GASTEIGER

@<TRIPOS>ATOM
      1  C8         9.9540   36.9080   60.9390 C.3     0  <0>0        0.1056
      2  C9         8.5660   36.9060   61.6200 C.3     0  <0>0        0.0961
      3  C10        7.5860   36.9350   60.4670 C.2     0  <0>0        0.2261
      4  O2         6.4110   37.2210   60.5620 O.2     0  <0>0       -0.2749
      5  N2         8.2070   36.6000   59.3240 N.am    0  <0>0       -0.2807
      6  C11        9.6260   36.3030   59.5550 C.3     0  <0>0        0.1029
      7  C7        10.9270   36.0380   61.6920 C.2     0  <0>0        0.2278
      8  N1        11.2230   34.8060   61.2320 N.am    0  <0>0       -0.2838
      9  H4        10.8700   34.5080   60.3790 H       0  <0>0        0.1549
     10  O1        11.4430   36.4460   62.7090 O.2     0  <0>0       -0.2747
     11  C2        12.0400   33.9560   61.9870 C.ar    0  <0>0        0.0520
     12  C1        13.3660   34.2910   62.2190 C.ar    0  <0>0        0.0261
     13  C6        14.1700   33.4510   62.9660 C.ar    0  <0>0        0.0597
     14  C5        13.6530   32.2740   63.4810 C.ar    0  <0>0        0.0229
     15 Cl         15.8290   33.8690   63.2570 Cl      0  <0>0       -0.0822
     16  C4        12.3310   31.9370   63.2490 C.ar    0  <0>0        0.0597
     17  C3        11.5220   32.7750   62.5040 C.ar    0  <0>0        0.0261
     18 Cl         11.6860   30.4610   63.8970 Cl      0  <0>0       -0.0822
     19  C12        7.5530   36.5370   58.0150 C.3     0  <0>0        0.0753
     20  C17        7.9580   37.7570   57.1840 C.3     0  <0>0        0.0198
     21  C16        7.2750   37.6920   55.8170 C.3     0  <0>0        0.0017
     22  C15        7.7050   36.4150   55.0910 C.3     0  <0>0        0.0001
     23  C14        7.2990   35.1960   55.9230 C.3     0  <0>0        0.0017
     24  C13        7.9820   35.2610   57.2900 C.3     0  <0>0        0.0198
@<TRIPOS>BOND
     1    22    21    1
     2    22    23    1
     3    21    20    1
     4    23    24    1
     5    20    19    1
     6    24    19    1
     7    19     5    1
     8     5     6    1
     9     5     3   am
    10     6     1    1
    11     9     8    1
    12     3     4    2
    13     3     2    1
    14     1     2    1
    15     1     7    1
    16     8     7   am
    17     8    11    1
    18     7    10    2
    19    11    12   ar
    20    11    17   ar
    21    12    13   ar
    22    17    16   ar
    23    13    15    1
    24    13    14   ar
    25    16    14   ar
    26    16    18    1
