@<TRIPOS>MOLECULE
CHEMBL264416_replica-1.pdb
 24 25 0 0 0
SMALL
GASTEIGER

@<TRIPOS>ATOM
      1  C7        10.4210   35.9250   60.8030 C.ar    0  <0>0       -0.0190
      2  C8        10.2130   35.0250   59.7750 C.ar    0  <0>0       -0.0009
      3  C9         9.3700   35.3500   58.7280 C.ar    0  <0>0        0.0403
      4  C10        8.7320   36.5800   58.7080 C.ar    0  <0>0        0.1787
      5  C11        8.9420   37.4860   59.7430 C.ar    0  <0>0        0.1680
      6  C12        9.7840   37.1520   60.7910 C.ar    0  <0>0        0.0355
      7  O2         7.9030   36.9000   57.6790 O.3     0  <0>0       -0.4504
      8  C13        6.6780   36.3140   57.6390 C.ar    0  <0>0        0.1471
      9  C18        6.3030   35.5620   56.5350 C.ar    0  <0>0        0.0615
     10  C17        5.0590   34.9630   56.5010 C.ar    0  <0>0        0.1459
     11  C16        4.1830   35.1230   57.5590 C.ar    0  <0>0        0.0243
     12  C15        4.5520   35.8760   58.6570 C.ar    0  <0>0        0.0048
     13  C14        5.7970   36.4730   58.7000 C.ar    0  <0>0        0.0376
     14  N1         4.6610   34.1530   55.3270 N.pl3   0  <0>0        0.0578
     15  O3         3.5010   33.8530   55.1650 O.2     0  <0>0       -0.1261
     16  O4         5.4950   33.7930   54.5300 O.2     0  <0>0       -0.1261
     17  O1         8.3180   38.6940   59.7270 O.3     0  <0>0       -0.5029
     18  H17        8.5210   39.2510   60.4910 H       0  <0>0        0.2923
     19  C6        11.3400   35.5660   61.9430 C.3     0  <0>0        0.0265
     20  C5        11.9690   34.1970   61.6790 C.3     0  <0>0        0.0047
     21  C4        13.4280   34.2090   62.1390 C.3     0  <0>0        0.0003
     22  C3        13.6670   33.0500   63.1080 C.3     0  <0>0        0.0000
     23  C2        12.4830   32.0830   63.0480 C.3     0  <0>0        0.0000
     24  C1        12.9600   30.6700   63.3890 C.3     0  <0>0        0.0000
@<TRIPOS>BOND
     1    16    14    2
     2    15    14    2
     3    14    10    1
     4    10     9   ar
     5    10    11   ar
     6     9     8   ar
     7    11    12   ar
     8     8     7    1
     9     8    13   ar
    10     7     4    1
    11    12    13   ar
    12     4     3   ar
    13     4     5   ar
    14     3     2   ar
    15    17     5    1
    16    17    18    1
    17     5     6   ar
    18     2     1   ar
    19     6     1   ar
    20     1    19    1
    21    20    19    1
    22    20    21    1
    23    21    22    1
    24    23    22    1
    25    23    24    1
