@<TRIPOS>MOLECULE
CHEMBL261355_replica-1.pdb
 30 32 0 0 0
SMALL
GASTEIGER

@<TRIPOS>ATOM
      1  C13        6.5070   36.3400   57.7250 C.ar    0  <0>0        0.1454
      2  C14        5.6770   36.4420   58.8310 C.ar    0  <0>0        0.0372
      3  C15        4.4410   35.8250   58.8250 C.ar    0  <0>0        0.0002
      4  C16        4.0310   35.1070   57.7170 C.ar    0  <0>0       -0.0059
      5  C17        4.8570   35.0040   56.6120 C.ar    0  <0>0        0.0002
      6  C18        6.0910   35.6240   56.6120 C.ar    0  <0>0        0.0372
      7  O2         7.7240   36.9450   57.7290 O.3     0  <0>0       -0.4504
      8  C10        8.5870   36.6390   58.7350 C.ar    0  <0>0        0.1786
      9  C9         9.2540   35.4240   58.7310 C.ar    0  <0>0        0.0403
     10  C8        10.1310   35.1150   59.7540 C.ar    0  <0>0       -0.0009
     11  C7        10.3440   36.0140   60.7820 C.ar    0  <0>0       -0.0190
     12  C12        9.6770   37.2250   60.7940 C.ar    0  <0>0        0.0355
     13  C11        8.8010   37.5450   59.7690 C.ar    0  <0>0        0.1680
     14  C6        11.3010   35.6710   61.8940 C.3     0  <0>0        0.0265
     15  C5        11.6760   34.1910   61.8070 C.3     0  <0>0        0.0047
     16  C4        13.1760   34.0280   62.0600 C.3     0  <0>0        0.0003
     17  C3        13.3990   32.9650   63.1370 C.3     0  <0>0        0.0000
     18  C2        12.3320   31.8770   63.0080 C.3     0  <0>0        0.0000
     19  C1        12.9260   30.5280   63.4200 C.3     0  <0>0        0.0000
     20  O1         8.1480   38.7370   59.7770 O.3     0  <0>0       -0.5029
     21  H17        7.2350   38.6850   60.0900 H       0  <0>0        0.2923
     22  C19        2.6820   34.4350   57.7120 C.3     0  <0>0        0.0990
     23  N1         2.2290   34.2380   59.0950 N.3     0  <0>0       -0.2732
     24  C23        0.8180   34.6220   59.2470 C.3     0  <0>0        0.0496
     25  C22        0.4020   34.4590   60.7110 C.3     0  <0>0       -0.0598
     26  N2         0.5940   33.0620   61.1210 N.4     0  <0>0        0.3874
     27  C21        2.0110   32.7000   60.9870 C.3     0  <0>0       -0.0598
     28  C24        0.1780   32.9010   62.5210 C.3     0  <0>0       -0.1006
     29  H35        0.0360   32.4590   60.5330 H       0  <0>0       -0.0797
     30  C20        2.4400   32.8490   59.5260 C.3     0  <0>0        0.0496
@<TRIPOS>BOND
     1     5     6   ar
     2     5     4   ar
     3     6     1   ar
     4    22     4    1
     5    22    23    1
     6     4     3   ar
     7     1     7    1
     8     1     2   ar
     9     7     8    1
    10     9     8   ar
    11     9    10   ar
    12     8    13   ar
    13     3     2   ar
    14    23    24    1
    15    23    30    1
    16    24    25    1
    17    30    27    1
    18    10    11   ar
    19    13    20    1
    20    13    12   ar
    21    20    21    1
    22    29    26    1
    23    25    26    1
    24    11    12   ar
    25    11    14    1
    26    27    26    1
    27    26    28    1
    28    15    14    1
    29    15    16    1
    30    16    17    1
    31    18    17    1
    32    18    19    1
