@<TRIPOS>MOLECULE
CHEMBL260399_replica-1.pdb
 30 32 0 0 0
SMALL
GASTEIGER

@<TRIPOS>ATOM
      1  C13        6.2890   36.5000   57.3510 C.ar    0  <0>0        0.1455
      2  C14        5.5030   36.1590   58.4420 C.ar    0  <0>0        0.0388
      3  C15        4.3380   35.4410   58.2570 C.ar    0  <0>0        0.0178
      4  C16        3.9540   35.0610   56.9780 C.ar    0  <0>0        0.0508
      5  C17        4.7410   35.4030   55.8870 C.ar    0  <0>0        0.0178
      6  C18        5.9030   36.1250   56.0730 C.ar    0  <0>0        0.0388
      7  O2         7.4350   37.2070   57.5350 O.3     0  <0>0       -0.4504
      8  C10        8.3290   36.7480   58.4510 C.ar    0  <0>0        0.1786
      9  C9         8.9440   35.5200   58.2650 C.ar    0  <0>0        0.0403
     10  C8         9.8540   35.0560   59.1970 C.ar    0  <0>0       -0.0009
     11  C7        10.1510   35.8140   60.3150 C.ar    0  <0>0       -0.0190
     12  C12        9.5360   37.0360   60.5100 C.ar    0  <0>0        0.0355
     13  C11        8.6280   37.5100   59.5760 C.ar    0  <0>0        0.1680
     14  C6        11.1430   35.3010   61.3280 C.3     0  <0>0        0.0265
     15  C5        10.8210   33.8440   61.6660 C.3     0  <0>0        0.0047
     16  C4        11.9330   33.2660   62.5440 C.3     0  <0>0        0.0003
     17  C3        13.1030   34.2500   62.5990 C.3     0  <0>0        0.0000
     18  C2        14.4100   33.4760   62.7890 C.3     0  <0>0        0.0000
     19  C1        14.1290   32.1820   63.5560 C.3     0  <0>0        0.0000
     20  O1         8.0260   38.7160   59.7630 O.3     0  <0>0       -0.5029
     21  H17        7.9960   39.0020   60.6860 H       0  <0>0        0.2923
     22  N1         2.7730   34.3310   56.7890 N.am    0  <0>0       -0.2778
     23  C19        2.8020   32.9840   56.8150 C.2     0  <0>0        0.2869
     24  O3         3.8630   32.4010   56.9240 O.2     0  <0>0       -0.2664
     25  H22        1.9360   34.7960   56.6390 H       0  <0>0        0.1553
     26  C20        1.5460   32.2190   56.7120 C.ar    0  <0>0        0.2302
     27  O4         0.5220   32.4790   55.8770 O.2     0  <0>0       -0.3487
     28  N2        -0.4800   31.5040   56.1000 N.ar    0  <0>0       -0.0751
     29  C22       -0.0650   30.7020   57.0400 C.ar    0  <0>0        0.1440
     30  C21        1.2100   31.1250   57.4500 C.ar    0  <0>0        0.0690
@<TRIPOS>BOND
     1    27    28   ar
     2    27    26   ar
     3     5     6   ar
     4     5     4   ar
     5     6     1   ar
     6    28    29   ar
     7    25    22    1
     8    26    23    1
     9    26    30   ar
    10    22    23   am
    11    22     4    1
    12    23    24    2
    13     4     3   ar
    14    29    30   ar
    15     1     7    1
    16     1     2   ar
    17     7     8    1
    18     3     2   ar
    19     9     8   ar
    20     9    10   ar
    21     8    13   ar
    22    10    11   ar
    23    13    20    1
    24    13    12   ar
    25    20    21    1
    26    11    12   ar
    27    11    14    1
    28    14    15    1
    29    15    16    1
    30    16    17    1
    31    17    18    1
    32    18    19    1
