@<TRIPOS>MOLECULE
CHEMBL217057_replica-1.pdb
 37 41 0 0 0
SMALL
GASTEIGER

@<TRIPOS>ATOM
      1  C7        -0.3570   29.6280   57.4650 C.ar    0  <0>0        0.0349
      2  C8         0.2610   30.8550   57.2400 C.ar    0  <0>0        0.0177
      3  C9         0.6390   31.2200   55.9560 C.ar    0  <0>0        0.0505
      4  C10        0.4040   30.3630   54.8900 C.ar    0  <0>0        0.0177
      5  C11       -0.2130   29.1330   55.1050 C.ar    0  <0>0        0.0349
      6  C12       -0.5910   28.7600   56.3970 C.ar    0  <0>0        0.1336
      7  N1         1.2600   32.4560   55.7350 N.am    0  <0>0       -0.2839
      8  C19        2.4400   32.7320   56.3270 C.2     0  <0>0        0.2278
      9  O2         3.0040   31.8810   56.9820 O.2     0  <0>0       -0.2747
     10  H14        0.8410   33.1130   55.1570 H       0  <0>0        0.1549
     11  C20        3.0570   34.0980   56.1730 C.3     0  <0>0        0.1056
     12  C23        3.9340   34.4490   57.3960 C.3     0  <0>0        0.1029
     13  N2         5.0750   35.1990   56.8570 N.am    0  <0>0       -0.2807
     14  C22        5.1920   35.0230   55.5300 C.2     0  <0>0        0.2261
     15  C21        4.0950   34.1110   55.0270 C.3     0  <0>0        0.0961
     16  O3         6.0520   35.5230   54.8360 O.2     0  <0>0       -0.2749
     17  C24        5.9710   36.0330   57.6630 C.3     0  <0>0        0.0753
     18  C30        5.3130   36.3520   58.9210 C.3     0  <0>0        0.0198
     19  C29        6.1630   37.2860   59.8070 C.3     0  <0>0        0.0017
     20  C28        7.2080   36.4600   60.5080 C.3     0  <0>0        0.0001
     21  C27        8.5480   36.4350   59.7470 C.3     0  <0>0        0.0001
     22  C26        8.3670   36.2830   58.2240 C.3     0  <0>0        0.0017
     23  C25        7.3020   35.2810   57.8690 C.3     0  <0>0        0.0198
     24  C4        -0.7600   29.2400   58.8390 C.ar    0  <0>0        0.0029
     25  C3        -1.6860   28.2160   59.0330 C.ar    0  <0>0        0.0001
     26  C2        -2.0580   27.8590   60.3130 C.ar    0  <0>0        0.0000
     27  C1        -1.5130   28.5140   61.4020 C.ar    0  <0>0        0.0000
     28  C6        -0.5940   29.5310   61.2160 C.ar    0  <0>0        0.0000
     29  C5        -0.2160   29.8970   59.9400 C.ar    0  <0>0        0.0001
     30  C13       -0.4650   28.2190   53.9640 C.ar    0  <0>0        0.0029
     31  C18       -1.2900   28.6210   52.9150 C.ar    0  <0>0        0.0001
     32  C17       -1.5180   27.7680   51.8540 C.ar    0  <0>0        0.0000
     33  C16       -0.9350   26.5130   51.8350 C.ar    0  <0>0        0.0000
     34  C15       -0.1190   26.1080   52.8760 C.ar    0  <0>0        0.0000
     35  C14        0.1180   26.9540   53.9400 C.ar    0  <0>0        0.0001
     36  O1        -1.1890   27.5600   56.6110 O.3     0  <0>0       -0.5055
     37  H8        -1.0540   27.2050   57.4990 H       0  <0>0        0.2922
@<TRIPOS>BOND
     1    33    32   ar
     2    33    34   ar
     3    32    31   ar
     4    34    35   ar
     5    31    30   ar
     6    35    30   ar
     7    30     5    1
     8    16    14    2
     9     4     5   ar
    10     4     3   ar
    11    15    14    1
    12    15    11    1
    13     5     6   ar
    14    10     7    1
    15    14    13   am
    16     7     3    1
    17     7     8   am
    18     3     2   ar
    19    11     8    1
    20    11    12    1
    21     8     9    2
    22     6    36    1
    23     6     1   ar
    24    36    37    1
    25    13    12    1
    26    13    17    1
    27     2     1   ar
    28     1    24    1
    29    17    23    1
    30    17    18    1
    31    23    22    1
    32    22    21    1
    33    24    25   ar
    34    24    29   ar
    35    18    19    1
    36    25    26   ar
    37    21    20    1
    38    19    20    1
    39    29    28   ar
    40    26    27   ar
    41    28    27   ar
