@<TRIPOS>MOLECULE
CHEMBL263646_replica-1.pdb
 28 29 0 0 0
SMALL
GASTEIGER

@<TRIPOS>ATOM
      1  C7        10.1120   36.1890   60.7200 C.ar    0  <0>0       -0.0190
      2  C8        10.0460   35.3430   59.6280 C.ar    0  <0>0       -0.0009
      3  C9         9.2870   35.6870   58.5260 C.ar    0  <0>0        0.0403
      4  C10        8.5890   36.8850   58.5130 C.ar    0  <0>0        0.1787
      5  C11        8.6550   37.7370   59.6110 C.ar    0  <0>0        0.1680
      6  C12        9.4140   37.3820   60.7150 C.ar    0  <0>0        0.0355
      7  O2         7.8420   37.2270   57.4290 O.3     0  <0>0       -0.4504
      8  C13        6.9170   36.3360   56.9860 C.ar    0  <0>0        0.1467
      9  C18        5.7710   36.1000   57.7280 C.ar    0  <0>0        0.0522
     10  C17        4.8240   35.1930   57.2710 C.ar    0  <0>0        0.0538
     11  C16        5.0350   34.5170   56.0750 C.ar    0  <0>0        0.0149
     12  C15        6.1820   34.7500   55.3400 C.ar    0  <0>0        0.0044
     13  C14        7.1210   35.6570   55.7920 C.ar    0  <0>0        0.0376
     14  N1         3.6650   34.9560   58.0130 N.am    0  <0>0       -0.2748
     15  C19        2.5060   35.5460   57.6580 C.2     0  <0>0        0.3297
     16  O3         2.4860   36.3420   56.7430 O.2     0  <0>0       -0.2625
     17  H22        3.6940   34.3680   58.7830 H       0  <0>0        0.1554
     18  C20        1.2450   35.2170   58.3910 C.2     0  <0>0        0.4405
     19  O4         1.2290   35.2270   59.6120 O.co2   0  <0>0       -0.2354
     20  O5         0.2320   34.9400   57.7710 O.co2   0  <0>0       -0.2354
     21  O1         7.9730   38.9130   59.6030 O.3     0  <0>0       -0.5029
     22  H17        8.3880   39.6050   59.0700 H       0  <0>0        0.2923
     23  C6        10.9420   35.8080   61.9180 C.3     0  <0>0        0.0265
     24  C5        11.7840   34.5750   61.5840 C.3     0  <0>0        0.0047
     25  C4        12.4330   34.0390   62.8610 C.3     0  <0>0        0.0003
     26  C3        13.8910   33.6720   62.5780 C.3     0  <0>0        0.0000
     27  C2        14.2810   32.4500   63.4120 C.3     0  <0>0        0.0000
     28  C1        13.1890   31.3850   63.2970 C.3     0  <0>0        0.0000
@<TRIPOS>BOND
     1    12    13   ar
     2    12    11   ar
     3    13     8   ar
     4    11    10   ar
     5    16    15    2
     6     8     7    1
     7     8     9   ar
     8    10     9   ar
     9    10    14    1
    10     7     4    1
    11    15    14   am
    12    15    18    1
    13    20    18   ar
    14    14    17    1
    15    18    19   ar
    16     4     3   ar
    17     4     5   ar
    18     3     2   ar
    19    22    21    1
    20    21     5    1
    21     5     6   ar
    22     2     1   ar
    23     6     1   ar
    24     1    23    1
    25    24    23    1
    26    24    25    1
    27    26    25    1
    28    26    27    1
    29    28    27    1
