@<TRIPOS>MOLECULE
CHEMBL258933_replica-1.pdb
 25 26 0 0 0
SMALL
GASTEIGER

@<TRIPOS>ATOM
      1  C7        10.3880   35.9630   60.7940 C.ar    0  <0>0       -0.0190
      2  C8        10.2500   35.0800   59.7410 C.ar    0  <0>0       -0.0009
      3  C9         9.4500   35.4060   58.6620 C.ar    0  <0>0        0.0415
      4  C10        8.7810   36.6190   58.6360 C.ar    0  <0>0        0.1946
      5  C11        8.9190   37.5090   59.6970 C.ar    0  <0>0        0.1692
      6  C12        9.7200   37.1740   60.7770 C.ar    0  <0>0        0.0356
      7  O2         7.9930   36.9410   57.5750 O.3     0  <0>0       -0.3718
      8  C13        6.8480   36.2390   57.3980 C.1     0  <0>0        0.3201
      9  N2         5.8790   36.3510   58.2910 N.2     0  <0>0       -0.2772
     10  C16        4.7390   35.6820   58.1460 C.2     0  <0>0        0.2772
     11  C15        4.5790   34.8470   57.0450 C.3     0  <0>0        0.1994
     12  C14        5.6230   34.7510   56.1310 C.2     0  <0>0        0.2772
     13  N1         6.7310   35.4550   56.3380 N.2     0  <0>0       -0.2772
     14  O3         3.7480   35.8070   59.0620 O.2     0  <0>0       -0.4498
     15  C17        2.8430   34.7090   59.1920 C.3     0  <0>0        0.2550
     16  O4         5.5110   33.9500   55.0430 O.2     0  <0>0       -0.4498
     17  C18        4.9480   34.5310   53.8660 C.3     0  <0>0        0.2550
     18  O1         8.2660   38.7010   59.6760 O.3     0  <0>0       -0.5028
     19  H17        7.4210   38.6950   60.1470 H       0  <0>0        0.2923
     20  C6        11.2610   35.6040   61.9680 C.3     0  <0>0        0.0265
     21  C5        11.8350   34.1990   61.7670 C.3     0  <0>0        0.0047
     22  C4        13.3210   34.1980   62.1320 C.3     0  <0>0        0.0003
     23  C3        13.6170   33.0170   63.0580 C.3     0  <0>0        0.0000
     24  C2        12.4410   32.0390   63.0290 C.3     0  <0>0        0.0000
     25  C1        12.9350   30.6360   63.3870 C.3     0  <0>0        0.0000
@<TRIPOS>BOND
     1    17    16    1
     2    16    12    1
     3    12    13    2
     4    12    11    1
     5    13     8    2
     6    11    10    1
     7     8     7    1
     8     8     9    2
     9     7     4    1
    10    10     9    2
    11    10    14    1
    12     4     3   ar
    13     4     5   ar
    14     3     2   ar
    15    14    15    1
    16    18     5    1
    17    18    19    1
    18     5     6   ar
    19     2     1   ar
    20     6     1   ar
    21     1    20    1
    22    21    20    1
    23    21    22    1
    24    22    23    1
    25    24    23    1
    26    24    25    1
