@<TRIPOS>MOLECULE
CHEMBL424724_replica-1.pdb
 29 32 0 0 0
SMALL
GASTEIGER

@<TRIPOS>ATOM
      1  N1         1.4690   31.1810   56.3100 N.am    0  <0>0       -0.2839
      2  C14        1.4930   32.5030   56.5710 C.2     0  <0>0        0.2278
      3  O1         0.4540   33.1280   56.6340 O.2     0  <0>0       -0.2747
      4  H12        2.2900   30.6670   56.3360 H       0  <0>0        0.1549
      5  C12        0.2580   30.5510   56.0020 C.ar    0  <0>0        0.0500
      6  C11       -0.6370   30.2290   57.0130 C.ar    0  <0>0        0.0147
      7  C10       -1.8310   29.6070   56.7040 C.ar    0  <0>0        0.0010
      8  C9        -2.1360   29.3050   55.3890 C.ar    0  <0>0       -0.0039
      9  C8        -1.2460   29.6240   54.3790 C.ar    0  <0>0       -0.0166
     10  C13       -0.0480   30.2400   54.6820 C.ar    0  <0>0        0.0107
     11  C7        -1.5820   29.2930   52.9490 C.3     0  <0>0        0.0527
     12  C4        -1.1720   27.8730   52.6530 C.ar    0  <0>0       -0.0178
     13  C3        -1.6060   27.2560   51.4940 C.ar    0  <0>0       -0.0039
     14  C2        -1.2290   25.9550   51.2210 C.ar    0  <0>0       -0.0003
     15  C1        -0.4190   25.2690   52.1080 C.ar    0  <0>0       -0.0000
     16  C6         0.0150   25.8860   53.2660 C.ar    0  <0>0       -0.0003
     17  C5        -0.3630   27.1870   53.5390 C.ar    0  <0>0       -0.0039
     18  C15        2.8080   33.2050   56.7860 C.3     0  <0>0        0.1056
     19  C18        3.8990   32.2090   57.2410 C.3     0  <0>0        0.1029
     20  N2         5.1370   32.6640   56.5990 N.am    0  <0>0       -0.2807
     21  C17        4.8800   33.5060   55.5840 C.2     0  <0>0        0.2261
     22  C16        3.3880   33.7160   55.4460 C.3     0  <0>0        0.0961
     23  O2         5.7210   34.0240   54.8810 O.2     0  <0>0       -0.2749
     24  C19        6.4810   32.2520   57.0120 C.3     0  <0>0        0.0753
     25  C24        7.0970   33.3350   57.9000 C.3     0  <0>0        0.0198
     26  C23        8.5000   32.9040   58.3310 C.3     0  <0>0        0.0017
     27  C22        8.4130   31.5920   59.1130 C.3     0  <0>0        0.0001
     28  C21        7.7970   30.5090   58.2240 C.3     0  <0>0        0.0017
     29  C20        6.3940   30.9400   57.7940 C.3     0  <0>0        0.0198
@<TRIPOS>BOND
     1    14    13   ar
     2    14    15   ar
     3    13    12   ar
     4    15    16   ar
     5    12    11    1
     6    12    17   ar
     7    11     9    1
     8    16    17   ar
     9     9    10   ar
    10     9     8   ar
    11    10     5   ar
    12    23    21    2
    13     8     7   ar
    14    22    21    1
    15    22    18    1
    16    21    20   am
    17     5     1    1
    18     5     6   ar
    19     1     4    1
    20     1     2   am
    21     2     3    2
    22     2    18    1
    23    20    24    1
    24    20    19    1
    25     7     6   ar
    26    18    19    1
    27    24    29    1
    28    24    25    1
    29    29    28    1
    30    25    26    1
    31    28    27    1
    32    26    27    1
