@<TRIPOS>MOLECULE
CHEMBL425259_replica-1.pdb
 24 26 0 0 0
SMALL
GASTEIGER

@<TRIPOS>ATOM
      1  C9         9.9400   36.8970   60.9250 C.3     0  <0>0        0.1056
      2  C10        8.5480   36.9280   61.5970 C.3     0  <0>0        0.0961
      3  C11        7.5770   36.9770   60.4370 C.2     0  <0>0        0.2261
      4  O2         6.4090   37.2900   60.5220 O.2     0  <0>0       -0.2749
      5  N2         8.1990   36.6250   59.2980 N.am    0  <0>0       -0.2807
      6  C12        9.6090   36.2960   59.5410 C.3     0  <0>0        0.1029
      7  C8        10.8860   36.0070   61.6880 C.2     0  <0>0        0.2278
      8  N1        11.2210   34.7980   61.1940 N.am    0  <0>0       -0.2841
      9  H7        10.9050   34.5280   60.3170 H       0  <0>0        0.1548
     10  O1        11.3460   36.3780   62.7470 O.2     0  <0>0       -0.2747
     11  C7        12.0230   33.9330   61.9460 C.ar    0  <0>0        0.0471
     12  C2        11.5130   32.7190   62.3890 C.ar    0  <0>0       -0.0083
     13  C1        10.0940   32.3330   62.0600 C.3     0  <0>0        0.0323
     14  C3        12.3090   31.8640   63.1250 C.ar    0  <0>0       -0.0022
     15  C4        13.6110   32.2170   63.4280 C.ar    0  <0>0        0.0112
     16  C5        14.1210   33.4280   62.9930 C.ar    0  <0>0        0.0589
     17  C6        13.3290   34.2880   62.2560 C.ar    0  <0>0        0.0257
     18 Cl         15.7570   33.8680   63.3760 Cl      0  <0>0       -0.0822
     19  C13        7.5520   36.5740   57.9850 C.3     0  <0>0        0.0753
     20  C18        7.9460   37.8100   57.1740 C.3     0  <0>0        0.0198
     21  C17        7.2690   37.7560   55.8030 C.3     0  <0>0        0.0017
     22  C16        7.7190   36.4960   55.0620 C.3     0  <0>0        0.0001
     23  C15        7.3250   35.2600   55.8730 C.3     0  <0>0        0.0017
     24  C14        8.0010   35.3130   57.2440 C.3     0  <0>0        0.0198
@<TRIPOS>BOND
     1    22    21    1
     2    22    23    1
     3    21    20    1
     4    23    24    1
     5    20    19    1
     6    24    19    1
     7    19     5    1
     8     5     6    1
     9     5     3   am
    10     6     1    1
    11     9     8    1
    12     3     4    2
    13     3     2    1
    14     1     2    1
    15     1     7    1
    16     8     7   am
    17     8    11    1
    18     7    10    2
    19    11    17   ar
    20    11    12   ar
    21    13    12    1
    22    17    16   ar
    23    12    14   ar
    24    16    18    1
    25    16    15   ar
    26    14    15   ar
