@<TRIPOS>MOLECULE
CHEMBL426702_replica-1.pdb
 32 37 0 0 0
SMALL
GASTEIGER

@<TRIPOS>ATOM
      1  C1         6.9150   33.1390   61.0720 C.3     0  <0>0        0.1152
      2  N1         7.4450   32.9200   59.7240 N.am    0  <0>0       -0.2736
      3  C17        6.6020   32.6630   58.7030 C.2     0  <0>0        0.2276
      4  O1         7.0440   32.3890   57.6070 O.2     0  <0>0       -0.2748
      5  C2         8.8880   32.9820   59.4850 C.3     0  <0>0        0.1202
      6  C3         9.4380   34.2630   60.0590 C.ar    0  <0>0       -0.0023
      7  C12        9.0260   35.4930   59.5500 C.ar    0  <0>0       -0.0024
      8  C11        9.5550   36.7400   60.1140 C.ar    0  <0>0       -0.0003
      9  C13        8.0910   35.5690   58.4940 C.ar    0  <0>0       -0.0003
     10  C10       10.4830   36.7010   61.1510 C.ar    0  <0>0       -0.0000
     11  C16        9.1110   37.9680   59.5790 C.ar    0  <0>0       -0.0000
     12  C9        10.9010   35.4710   61.6560 C.ar    0  <0>0       -0.0003
     13  C4        10.3660   34.2240   61.0970 C.ar    0  <0>0       -0.0024
     14  C8        11.8390   35.3940   62.7080 C.ar    0  <0>0       -0.0000
     15  C5        10.8100   32.9960   61.6330 C.ar    0  <0>0       -0.0003
     16  C6        11.7150   32.9940   62.6450 C.ar    0  <0>0       -0.0000
     17  C7        12.2240   34.1800   63.1760 C.ar    0  <0>0       -0.0000
     18  C15        8.2200   37.9700   58.5540 C.ar    0  <0>0       -0.0000
     19  C14        7.7120   36.7840   58.0230 C.ar    0  <0>0       -0.0000
     20  C18        5.1120   32.7150   58.9240 C.3     0  <0>0        0.1055
     21  C21        4.4310   33.6310   57.8840 C.3     0  <0>0        0.1029
     22  N2         3.1470   32.9890   57.5780 N.am    0  <0>0       -0.2807
     23  C20        3.1370   31.7040   57.9740 C.2     0  <0>0        0.2261
     24  C19        4.4590   31.3470   58.6160 C.3     0  <0>0        0.0961
     25  O2         2.2040   30.9420   57.8350 O.2     0  <0>0       -0.2749
     26  C22        2.0210   33.6620   56.9250 C.3     0  <0>0        0.0753
     27  C27        0.9200   34.0160   57.9710 C.3     0  <0>0        0.0182
     28  C26        1.6960   34.7010   59.1390 C.3     0  <0>0        0.0016
     29  C28        0.2630   35.2670   57.2880 C.3     0  <0>0        0.0017
     30  C25        2.1420   36.0640   58.5640 C.3     0  <0>0        0.0001
     31  C24        1.5940   36.0750   57.1040 C.3     0  <0>0        0.0017
     32  C23        2.4680   35.0260   56.3520 C.3     0  <0>0        0.0198
@<TRIPOS>BOND
     1    32    26    1
     2    32    31    1
     3    26    22    1
     4    26    27    1
     5    31    29    1
     6    31    30    1
     7    29    27    1
     8    22    21    1
     9    22    23   am
    10     4     3    2
    11    25    23    2
    12    21    20    1
    13    27    28    1
    14    23    24    1
    15    19     9   ar
    16    19    18   ar
    17     9     7   ar
    18    18    11   ar
    19    30    28    1
    20    24    20    1
    21     3    20    1
    22     3     2   am
    23     5     2    1
    24     5     6    1
    25     7     6   ar
    26     7     8   ar
    27    11     8   ar
    28     2     1    1
    29     6    13   ar
    30     8    10   ar
    31    13    15   ar
    32    13    12   ar
    33    10    12   ar
    34    15    16   ar
    35    12    14   ar
    36    16    17   ar
    37    14    17   ar
