@<TRIPOS>MOLECULE
CHEMBL258932_replica-1.pdb
 21 22 0 0 0
SMALL
GASTEIGER

@<TRIPOS>ATOM
      1  C7        10.4590   35.9300   60.8340 C.ar    0  <0>0       -0.0190
      2  C8        10.3040   35.0510   59.7790 C.ar    0  <0>0       -0.0009
      3  C9         9.4600   35.3650   58.7310 C.ar    0  <0>0        0.0404
      4  C10        8.7650   36.5640   58.7350 C.ar    0  <0>0        0.1806
      5  C11        8.9200   37.4500   59.7990 C.ar    0  <0>0        0.1681
      6  C12        9.7640   37.1260   60.8490 C.ar    0  <0>0        0.0355
      7  O2         7.9350   36.8740   57.7050 O.3     0  <0>0       -0.4317
      8  C13        6.6960   36.3210   57.6960 C.ar    0  <0>0        0.2494
      9  N2         5.8690   36.5290   58.7100 N.ar    0  <0>0       -0.2069
     10  C16        4.6600   35.9930   58.6950 C.ar    0  <0>0        0.1227
     11  C15        4.2630   35.2080   57.6310 C.ar    0  <0>0        0.1198
     12  N1         5.0880   34.9930   56.6200 N.ar    0  <0>0       -0.2358
     13  C14        6.2940   35.5290   56.6250 C.ar    0  <0>0        0.1568
     14  O1         8.2410   38.6270   59.8090 O.3     0  <0>0       -0.5029
     15  H17        8.6380   39.3060   60.3710 H       0  <0>0        0.2923
     16  C6        11.3800   35.5830   61.9750 C.3     0  <0>0        0.0265
     17  C5        11.9480   34.1780   61.7630 C.3     0  <0>0        0.0047
     18  C4        13.4250   34.1590   62.1650 C.3     0  <0>0        0.0003
     19  C3        13.6860   32.9710   63.0910 C.3     0  <0>0        0.0000
     20  C2        12.4850   32.0230   63.0580 C.3     0  <0>0        0.0000
     21  C1        12.9400   30.6080   63.4200 C.3     0  <0>0        0.0000
@<TRIPOS>BOND
     1    12    13   ar
     2    12    11   ar
     3    13     8   ar
     4    11    10   ar
     5     8     7    1
     6     8     9   ar
     7     7     4    1
     8    10     9   ar
     9     3     4   ar
    10     3     2   ar
    11     4     5   ar
    12     2     1   ar
    13     5    14    1
    14     5     6   ar
    15    14    15    1
    16     1     6   ar
    17     1    16    1
    18    17    16    1
    19    17    18    1
    20    18    19    1
    21    20    19    1
    22    20    21    1
