@<TRIPOS>MOLECULE
CHEMBL849_replica-1.pdb
 18 19 0 0 0
SMALL
GASTEIGER

@<TRIPOS>ATOM
      1  C1        10.0300   35.0350   59.3230 C.ar    0  <0>0        0.0147
      2  C2         9.1740   35.5470   58.3660 C.ar    0  <0>0        0.0415
      3  C3         8.5830   36.7850   58.5550 C.ar    0  <0>0        0.1788
      4  C4         8.8510   37.5120   59.7110 C.ar    0  <0>0        0.1692
      5  C5         9.7090   36.9960   60.6680 C.ar    0  <0>0        0.0512
      6  C6        10.2960   35.7580   60.4730 C.ar    0  <0>0        0.0609
      7 Cl         11.3710   35.1110   61.6730 Cl      0  <0>0       -0.0821
      8  O2         7.7420   37.2900   57.6120 O.3     0  <0>0       -0.4496
      9  C7         6.6120   36.5910   57.3250 C.ar    0  <0>0        0.1559
     10  C12        6.3930   36.1210   56.0370 C.ar    0  <0>0        0.0929
     11  C11        5.2450   35.4060   55.7500 C.ar    0  <0>0        0.0259
     12 Cl          7.5620   36.4260   54.7900 Cl      0  <0>0       -0.0790
     13  C10        4.3110   35.1690   56.7410 C.ar    0  <0>0        0.0587
     14  C9         4.5250   35.6410   58.0240 C.ar    0  <0>0        0.0146
     15 Cl          2.8670   34.2770   56.3750 Cl      0  <0>0       -0.0822
     16  C8         5.6730   36.3500   58.3180 C.ar    0  <0>0        0.0392
     17  O1         8.2720   38.7290   59.9010 O.3     0  <0>0       -0.5028
     18  H4         7.3980   38.8150   59.4980 H       0  <0>0        0.2923
@<TRIPOS>BOND
     1    12    10    1
     2    11    10   ar
     3    11    13   ar
     4    10     9   ar
     5    15    13    1
     6    13    14   ar
     7     9     8    1
     8     9    16   ar
     9     8     3    1
    10    14    16   ar
    11     2     3   ar
    12     2     1   ar
    13     3     4   ar
    14     1     6   ar
    15    18    17    1
    16     4    17    1
    17     4     5   ar
    18     6     5   ar
    19     6     7    1
