@<TRIPOS>MOLECULE
CHEMBL429332_replica-1.pdb
 21 22 0 0 0
SMALL
GASTEIGER

@<TRIPOS>ATOM
      1  C7        10.3570   35.8440   60.6330 C.ar    0  <0>0       -0.0190
      2  C8        10.3490   34.8150   59.7090 C.ar    0  <0>0       -0.0009
      3  C9         9.5880   34.9190   58.5600 C.ar    0  <0>0        0.0415
      4  C10        8.8320   36.0570   58.3310 C.ar    0  <0>0        0.1930
      5  C11        8.8400   37.0930   59.2600 C.ar    0  <0>0        0.1737
      6  C12        9.6000   36.9800   60.4130 C.ar    0  <0>0        0.0358
      7  O2         8.0840   36.1620   57.2000 O.3     0  <0>0       -0.3886
      8  C14        7.1240   35.2300   56.9840 C.1     0  <0>0        0.1965
      9  N2         6.1240   35.1230   57.8430 N.2     0  <0>0       -0.1623
     10  C17        5.1670   34.2280   57.6590 C.2     0  <0>0        0.1099
     11  C16        5.2270   33.3900   56.5570 C.2     0  <0>0        0.0224
     12  C15        6.2920   33.5260   55.6800 C.3     0  <0>0        0.1670
     13  N1         7.2120   34.4460   55.9210 N.2     0  <0>0       -0.1847
     14  O1         8.0990   38.2120   59.0400 O.3     0  <0>0       -0.4683
     15  C13        6.7980   38.2550   59.6280 C.3     0  <0>0        0.2526
     16  C6        11.1880   35.7240   61.8840 C.3     0  <0>0        0.0265
     17  C5        11.9810   34.4170   61.8460 C.3     0  <0>0        0.0047
     18  C4        12.8860   34.3340   63.0770 C.3     0  <0>0        0.0003
     19  C3        13.5500   32.9560   63.1310 C.3     0  <0>0        0.0000
     20  C2        12.4890   31.8710   62.9440 C.3     0  <0>0        0.0000
     21  C1        12.9830   30.5610   63.5610 C.3     0  <0>0        0.0000
@<TRIPOS>BOND
     1    12    13    1
     2    12    11    1
     3    13     8    2
     4    11    10    2
     5     8     7    1
     6     8     9    2
     7     7     4    1
     8    10     9    1
     9     4     3   ar
    10     4     5   ar
    11     3     2   ar
    12    14     5    1
    13    14    15    1
    14     5     6   ar
    15     2     1   ar
    16     6     1   ar
    17     1    16    1
    18    17    16    1
    19    17    18    1
    20    20    19    1
    21    20    21    1
    22    18    19    1
