@<TRIPOS>MOLECULE
CHEMBL217594_replica-1.pdb
 31 35 0 0 0
SMALL
GASTEIGER

@<TRIPOS>ATOM
      1  C1         6.5180   35.5280   60.0660 C.3     0  <0>0        0.1152
      2  N1         7.5320   35.4080   59.0150 N.am    0  <0>0       -0.2736
      3  C17        8.8400   35.4030   59.3390 C.2     0  <0>0        0.2276
      4  O1         9.6810   35.4070   58.4660 O.2     0  <0>0       -0.2748
      5  C2         7.1240   35.2960   57.6140 C.3     0  <0>0        0.1202
      6  C3         6.1070   34.1920   57.4720 C.ar    0  <0>0       -0.0023
      7  C12        6.4840   32.8640   57.6580 C.ar    0  <0>0       -0.0024
      8  C11        5.4930   31.7910   57.5270 C.ar    0  <0>0       -0.0003
      9  C13        7.8150   32.5210   57.9800 C.ar    0  <0>0       -0.0003
     10  C10        4.1710   32.0910   57.2030 C.ar    0  <0>0       -0.0000
     11  C16        5.9080   30.4560   57.7280 C.ar    0  <0>0       -0.0000
     12  C9         3.7970   33.4200   57.0110 C.ar    0  <0>0       -0.0003
     13  C4         4.7860   34.4940   57.1490 C.ar    0  <0>0       -0.0024
     14  C8         2.4660   33.7610   56.6830 C.ar    0  <0>0       -0.0000
     15  C5         4.3710   35.8280   56.9480 C.ar    0  <0>0       -0.0003
     16  C6         3.0760   36.0870   56.6340 C.ar    0  <0>0       -0.0000
     17  C7         2.1340   35.0650   56.5030 C.ar    0  <0>0       -0.0000
     18  C15        7.2070   30.1950   58.0220 C.ar    0  <0>0       -0.0000
     19  C14        8.1480   31.2170   58.1540 C.ar    0  <0>0       -0.0000
     20  C18        9.2580   35.3920   60.7870 C.3     0  <0>0        0.1055
     21  C21       10.1330   34.1580   61.1010 C.3     0  <0>0        0.1029
     22  N2        11.1350   34.6250   62.0670 N.am    0  <0>0       -0.2807
     23  C20       11.2150   35.9670   62.0790 C.2     0  <0>0        0.2261
     24  C19       10.2300   36.5540   61.0920 C.3     0  <0>0        0.0961
     25  O2        11.9650   36.6120   62.7800 O.2     0  <0>0       -0.2749
     26  C22       11.9440   33.7410   62.9100 C.3     0  <0>0        0.0753
     27  C27       11.3550   32.3290   62.8810 C.3     0  <0>0        0.0198
     28  C26       12.2000   31.4060   63.7620 C.3     0  <0>0        0.0017
     29  C25       13.6350   31.3700   63.2320 C.3     0  <0>0        0.0001
     30  C24       14.2240   32.7810   63.2600 C.3     0  <0>0        0.0017
     31  C23       13.3790   33.7040   62.3800 C.3     0  <0>0        0.0198
@<TRIPOS>BOND
     1    17    16   ar
     2    17    14   ar
     3    16    15   ar
     4    14    12   ar
     5    15    13   ar
     6    12    13   ar
     7    12    10   ar
     8    13     6   ar
     9    10     8   ar
    10     6     5    1
    11     6     7   ar
    12     8     7   ar
    13     8    11   ar
    14     5     2    1
    15     7     9   ar
    16    11    18   ar
    17     9    19   ar
    18    18    19   ar
    19     4     3    2
    20     2     3   am
    21     2     1    1
    22     3    20    1
    23    20    24    1
    24    20    21    1
    25    24    23    1
    26    21    22    1
    27    22    23   am
    28    22    26    1
    29    23    25    2
    30    31    26    1
    31    31    30    1
    32    27    26    1
    33    27    28    1
    34    29    30    1
    35    29    28    1
