@<TRIPOS>MOLECULE
CHEMBL264434_replica-1.pdb
 24 25 0 0 0
SMALL
GASTEIGER

@<TRIPOS>ATOM
      1  C7        10.0350   36.3000   60.5970 C.ar    0  <0>0       -0.0190
      2  C8         9.9640   35.4950   59.4750 C.ar    0  <0>0       -0.0009
      3  C9         9.1980   35.8810   58.3910 C.ar    0  <0>0        0.0403
      4  C10        8.5000   37.0770   58.4260 C.ar    0  <0>0        0.1787
      5  C11        8.5710   37.8870   59.5560 C.ar    0  <0>0        0.1680
      6  C12        9.3360   37.4920   60.6410 C.ar    0  <0>0        0.0355
      7  O2         7.7480   37.4600   57.3600 O.3     0  <0>0       -0.4492
      8  C13        6.7980   36.5980   56.9060 C.ar    0  <0>0        0.1582
      9  C18        6.8210   36.1710   55.5800 C.ar    0  <0>0        0.0766
     10  C17        5.8530   35.2890   55.1230 C.ar    0  <0>0        0.0172
     11  C16        4.8630   34.8450   55.9810 C.ar    0  <0>0        0.0015
     12  C15        4.8370   35.2750   57.2950 C.ar    0  <0>0        0.0032
     13  C14        5.8030   36.1500   57.7580 C.ar    0  <0>0        0.0388
     14  N1         7.8210   36.6250   54.7130 N.pl3   0  <0>0       -0.3546
     15  H22        8.7510   36.4110   54.8890 H       0  <0>0        0.1424
     16  H23        7.5840   37.1540   53.9350 H       0  <0>0        0.1424
     17  O1         7.8870   39.0630   59.5960 O.3     0  <0>0       -0.5029
     18  H17        8.0420   39.5800   60.3990 H       0  <0>0        0.2923
     19  C6        10.8710   35.8740   61.7760 C.3     0  <0>0        0.0265
     20  C5        11.5690   34.5510   61.4550 C.3     0  <0>0        0.0047
     21  C4        12.2980   34.0430   62.7000 C.3     0  <0>0        0.0003
     22  C3        13.7360   33.6700   62.3330 C.3     0  <0>0        0.0000
     23  C2        14.2600   32.6260   63.3220 C.3     0  <0>0        0.0000
     24  C1        13.3090   31.4290   63.3500 C.3     0  <0>0        0.0000
@<TRIPOS>BOND
     1    16    14    1
     2    14    15    1
     3    14     9    1
     4    10     9   ar
     5    10    11   ar
     6     9     8   ar
     7    11    12   ar
     8     8     7    1
     9     8    13   ar
    10    12    13   ar
    11     7     4    1
    12     3     4   ar
    13     3     2   ar
    14     4     5   ar
    15     2     1   ar
    16     5    17    1
    17     5     6   ar
    18    17    18    1
    19     1     6   ar
    20     1    19    1
    21    20    19    1
    22    20    21    1
    23    22    21    1
    24    22    23    1
    25    23    24    1
