@<TRIPOS>MOLECULE
CHEMBL264679_replica-1.pdb
 21 22 0 0 0
SMALL
GASTEIGER

@<TRIPOS>ATOM
      1  C7        10.7970   35.6570   61.4820 C.ar    0  <0>0       -0.0190
      2  C8        10.6270   34.9250   60.3230 C.ar    0  <0>0       -0.0009
      3  C9         9.4730   35.0680   59.5750 C.ar    0  <0>0        0.0404
      4  C10        8.4830   35.9450   59.9880 C.ar    0  <0>0        0.1805
      5  C11        8.6550   36.6820   61.1570 C.ar    0  <0>0        0.1681
      6  C12        9.8120   36.5300   61.9040 C.ar    0  <0>0        0.0355
      7  O2         7.3470   36.0870   59.2540 O.3     0  <0>0       -0.4330
      8  C13        7.4090   36.8350   58.1240 C.ar    0  <0>0        0.2298
      9  N1         6.6690   36.5060   57.0780 N.ar    0  <0>0       -0.2098
     10  C17        6.6960   37.2090   55.9620 C.ar    0  <0>0        0.1021
     11  C16        7.5130   38.3160   55.8430 C.ar    0  <0>0        0.0209
     12  C15        8.3090   38.6910   56.9170 C.ar    0  <0>0        0.0064
     13  C14        8.2540   37.9370   58.0740 C.ar    0  <0>0        0.0581
     14  O1         7.6870   37.5450   61.5660 O.3     0  <0>0       -0.5029
     15  H17        6.9320   37.6030   60.9640 H       0  <0>0        0.2923
     16  C6        12.0570   35.4980   62.2940 C.3     0  <0>0        0.0265
     17  C5        12.3240   34.0110   62.5360 C.3     0  <0>0        0.0047
     18  C4        13.8030   33.8060   62.8690 C.3     0  <0>0        0.0003
     19  C3        14.0350   32.3530   63.2890 C.3     0  <0>0        0.0000
     20  C2        12.7520   31.5480   63.0720 C.3     0  <0>0        0.0000
     21  C1        12.8190   30.2530   63.8840 C.3     0  <0>0        0.0000
@<TRIPOS>BOND
     1    11    10   ar
     2    11    12   ar
     3    10     9   ar
     4    12    13   ar
     5     9     8   ar
     6    13     8   ar
     7     8     7    1
     8     7     4    1
     9     3     4   ar
    10     3     2   ar
    11     4     5   ar
    12     2     1   ar
    13    15    14    1
    14     5    14    1
    15     5     6   ar
    16     1     6   ar
    17     1    16    1
    18    16    17    1
    19    17    18    1
    20    18    19    1
    21    20    19    1
    22    20    21    1
