@<TRIPOS>MOLECULE
CHEMBL414086_replica-1.pdb
 33 37 0 0 0
SMALL
GASTEIGER

@<TRIPOS>ATOM
      1  C1         6.1670   33.4040   58.7530 C.3     0  <0>0        0.1152
      2  N1         7.4510   32.7290   58.5380 N.am    0  <0>0       -0.2736
      3  C17        7.6920   31.5390   59.1250 C.2     0  <0>0        0.2276
      4  O1         8.7880   31.0300   59.0320 O.2     0  <0>0       -0.2748
      5  C2         8.4700   33.3470   57.6880 C.3     0  <0>0        0.1202
      6  C3         8.6210   34.7990   58.0590 C.ar    0  <0>0       -0.0023
      7  C12        8.1230   35.7930   57.2190 C.ar    0  <0>0       -0.0024
      8  C11        8.2650   37.2070   57.5830 C.ar    0  <0>0       -0.0003
      9  C13        7.4700   35.4670   56.0100 C.ar    0  <0>0       -0.0003
     10  C10        8.9100   37.5660   58.7650 C.ar    0  <0>0       -0.0000
     11  C16        7.7430   38.1870   56.7110 C.ar    0  <0>0       -0.0000
     12  C9         9.4130   36.5710   59.6020 C.ar    0  <0>0       -0.0003
     13  C4         9.2660   35.1580   59.2410 C.ar    0  <0>0       -0.0024
     14  C8        10.0720   36.8990   60.8070 C.ar    0  <0>0       -0.0000
     15  C5         9.7880   34.1780   60.1130 C.ar    0  <0>0       -0.0003
     16  C6        10.4100   34.5610   61.2570 C.ar    0  <0>0       -0.0000
     17  C7        10.5500   35.9070   61.6000 C.ar    0  <0>0       -0.0000
     18  C15        7.1380   37.8050   55.5580 C.ar    0  <0>0       -0.0000
     19  C14        6.9970   36.4600   55.2150 C.ar    0  <0>0       -0.0000
     20  C18        6.6000   30.8440   59.8960 C.3     0  <0>0        0.1055
     21  C21        6.8150   29.3140   59.9010 C.3     0  <0>0        0.1029
     22  N2         6.3810   28.8620   61.2280 N.am    0  <0>0       -0.2807
     23  C20        6.3060   29.8880   62.0930 C.2     0  <0>0        0.2261
     24  C19        6.6860   31.1790   61.4020 C.3     0  <0>0        0.0961
     25  O2         5.9780   29.7930   63.2570 O.2     0  <0>0       -0.2749
     26  C22        6.0710   27.4710   61.5670 C.3     0  <0>0        0.0753
     27  C29        5.3360   26.8130   60.3960 C.3     0  <0>0        0.0198
     28  C28        4.6670   25.5230   60.8750 C.3     0  <0>0        0.0017
     29  C27        3.9850   25.7700   62.2210 C.3     0  <0>0        0.0001
     30  C26        4.7030   24.9720   63.3110 C.3     0  <0>0        0.0000
     31  C25        6.0180   25.6670   63.6680 C.3     0  <0>0        0.0001
     32  C24        7.0500   25.4030   62.5700 C.3     0  <0>0        0.0017
     33  C23        7.3700   26.7100   61.8440 C.3     0  <0>0        0.0198
@<TRIPOS>BOND
     1    19    18   ar
     2    19     9   ar
     3    18    11   ar
     4     9     7   ar
     5    11     8   ar
     6     7     8   ar
     7     7     6   ar
     8     8    10   ar
     9     5     6    1
    10     5     2    1
    11     6    13   ar
    12     2     1    1
    13     2     3   am
    14    10    12   ar
    15     4     3    2
    16     3    20    1
    17    13    12   ar
    18    13    15   ar
    19    12    14   ar
    20    20    21    1
    21    20    24    1
    22    21    22    1
    23    15    16   ar
    24    27    28    1
    25    27    26    1
    26    14    17   ar
    27    28    29    1
    28    22    26    1
    29    22    23   am
    30    16    17   ar
    31    24    23    1
    32    26    33    1
    33    33    32    1
    34    23    25    2
    35    29    30    1
    36    32    31    1
    37    30    31    1
