@<TRIPOS>MOLECULE
CHEMBL392127_replica-1.pdb
 28 32 0 0 0
SMALL
GASTEIGER

@<TRIPOS>ATOM
      1  C8         5.0840   31.7830   58.7430 C.2     0  <0>0        0.2491
      2  O1         4.9820   30.9410   57.8720 O.2     0  <0>0       -0.2699
      3  N1         6.3040   32.1440   59.1910 N.am    0  <0>0       -0.2732
      4  C9         6.4470   33.0890   60.3100 C.3     0  <0>0        0.1111
      5  C10        7.4130   34.2000   59.8860 C.3     0  <0>0        0.0944
      6  N2         8.6680   33.6010   59.4150 N.3     0  <0>0       -0.2638
      7  C11        8.4480   32.7770   58.2200 C.3     0  <0>0        0.0944
      8  C12        7.5250   31.6010   58.5780 C.3     0  <0>0        0.1111
      9  C13        9.6820   34.6340   59.1620 C.3     0  <0>0        0.1031
     10  C21       10.4450   34.9340   60.4300 C.ar    0  <0>0       -0.0036
     11  C20       10.2410   36.2770   60.7330 C.ar    0  <0>0       -0.0026
     12  C22       11.2330   34.1480   61.2440 C.ar    0  <0>0       -0.0026
     13  C19        9.3620   36.8880   59.7070 C.ar    0  <0>0       -0.0026
     14  C25       10.8420   36.8200   61.8710 C.ar    0  <0>0       -0.0003
     15  C14        9.0180   35.9280   58.7600 C.ar    0  <0>0       -0.0036
     16  C18        8.8750   38.1890   59.5700 C.ar    0  <0>0       -0.0003
     17  C15        8.2010   36.2580   57.6990 C.ar    0  <0>0       -0.0026
     18  C16        7.7220   37.5490   57.5690 C.ar    0  <0>0       -0.0003
     19  C17        8.0590   38.5110   58.5050 C.ar    0  <0>0       -0.0000
     20  C24       11.6290   36.0270   62.6800 C.ar    0  <0>0       -0.0000
     21  C23       11.8250   34.6930   62.3690 C.ar    0  <0>0       -0.0003
     22  C5         3.8720   32.4090   59.3120 C.ar    0  <0>0        0.0536
     23  C4         3.2000   31.7990   60.3720 C.ar    0  <0>0        0.0042
     24  C3         2.0690   32.3880   60.8990 C.ar    0  <0>0       -0.0041
     25  C2         1.6010   33.5820   60.3770 C.ar    0  <0>0       -0.0218
     26  C1         0.3660   34.2210   60.9580 C.3     0  <0>0        0.0310
     27  C7         2.2600   34.1890   59.3230 C.ar    0  <0>0       -0.0041
     28  C6         3.3950   33.6120   58.7920 C.ar    0  <0>0        0.0042
@<TRIPOS>BOND
     1    18    17   ar
     2    18    19   ar
     3    17    15   ar
     4     2     1    2
     5     7     8    1
     6     7     6    1
     7    19    16   ar
     8     8     3    1
     9     1     3   am
    10     1    22    1
    11    15     9    1
    12    15    13   ar
    13    28    22   ar
    14    28    27   ar
    15     9     6    1
    16     9    10    1
    17     3     4    1
    18    22    23   ar
    19    27    25   ar
    20     6     5    1
    21    16    13   ar
    22    13    11    1
    23     5     4    1
    24    23    24   ar
    25    25    24   ar
    26    25    26    1
    27    10    11   ar
    28    10    12   ar
    29    11    14   ar
    30    12    21   ar
    31    14    20   ar
    32    21    20   ar
