@<TRIPOS>MOLECULE
CHEMBL259138_replica-1.pdb
 21 22 0 0 0
SMALL
GASTEIGER

@<TRIPOS>ATOM
      1  C7        10.4720   35.9250   60.8820 C.ar    0  <0>0       -0.0190
      2  C8        10.2960   35.0290   59.8440 C.ar    0  <0>0       -0.0009
      3  C9         9.4490   35.3370   58.7970 C.ar    0  <0>0        0.0403
      4  C10        8.7710   36.5470   58.7860 C.ar    0  <0>0        0.1787
      5  C11        8.9470   37.4490   59.8320 C.ar    0  <0>0        0.1680
      6  C12        9.7960   37.1310   60.8810 C.ar    0  <0>0        0.0355
      7  O2         7.9370   36.8510   57.7560 O.3     0  <0>0       -0.4503
      8  C13        6.7450   36.2080   57.6900 C.ar    0  <0>0        0.1486
      9  C17        5.7910   36.3670   58.6920 C.ar    0  <0>0        0.0582
     10  C16        4.5870   35.7000   58.5860 C.ar    0  <0>0        0.1020
     11  N1         4.3410   34.9120   57.5560 N.ar    0  <0>0       -0.2421
     12  C15        5.2210   34.7310   56.5900 C.ar    0  <0>0        0.1020
     13  C14        6.4450   35.3670   56.6210 C.ar    0  <0>0        0.0582
     14  O1         8.2860   38.6360   59.8260 O.3     0  <0>0       -0.5029
     15  H17        7.4250   38.6090   60.2660 H       0  <0>0        0.2923
     16  C6        11.3960   35.5840   62.0220 C.3     0  <0>0        0.0265
     17  C5        11.9790   34.1850   61.8050 C.3     0  <0>0        0.0047
     18  C4        13.4560   34.1810   62.2040 C.3     0  <0>0        0.0003
     19  C3        13.7600   32.9220   63.0180 C.3     0  <0>0        0.0000
     20  C2        12.5290   32.0130   63.0330 C.3     0  <0>0        0.0000
     21  C1        12.9500   30.5890   63.3980 C.3     0  <0>0        0.0000
@<TRIPOS>BOND
     1    12    13   ar
     2    12    11   ar
     3    13     8   ar
     4    11    10   ar
     5     8     7    1
     6     8     9   ar
     7     7     4    1
     8    10     9   ar
     9     4     3   ar
    10     4     5   ar
    11     3     2   ar
    12    14     5    1
    13    14    15    1
    14     5     6   ar
    15     2     1   ar
    16     6     1   ar
    17     1    16    1
    18    17    16    1
    19    17    18    1
    20    18    19    1
    21    19    20    1
    22    20    21    1
