@<TRIPOS>MOLECULE
CHEMBL262360_replica-1.pdb
 26 27 0 0 0
SMALL
GASTEIGER

@<TRIPOS>ATOM
      1  C7        10.1970   35.9000   60.4790 C.ar    0  <0>0       -0.0190
      2  C8         9.9830   35.1330   59.3500 C.ar    0  <0>0       -0.0009
      3  C9         9.1580   35.5950   58.3420 C.ar    0  <0>0        0.0403
      4  C10        8.5450   36.8320   58.4610 C.ar    0  <0>0        0.1786
      5  C11        8.7600   37.6060   59.5980 C.ar    0  <0>0        0.1680
      6  C12        9.5840   37.1330   60.6070 C.ar    0  <0>0        0.0355
      7  O2         7.7340   37.2890   57.4700 O.3     0  <0>0       -0.4504
      8  C13        6.5820   36.6110   57.2240 C.ar    0  <0>0        0.1455
      9  C18        5.7610   36.2360   58.2770 C.ar    0  <0>0        0.0388
     10  C17        4.5880   35.5510   58.0270 C.ar    0  <0>0        0.0178
     11  C16        4.2360   35.2290   56.7230 C.ar    0  <0>0        0.0505
     12  C15        5.0620   35.6000   55.6700 C.ar    0  <0>0        0.0178
     13  C14        6.2320   36.2890   55.9200 C.ar    0  <0>0        0.0388
     14  N1         3.0490   34.5300   56.4700 N.am    0  <0>0       -0.2839
     15  C19        3.0510   33.1820   56.4490 C.2     0  <0>0        0.2266
     16  O3         4.0950   32.5760   56.5710 O.2     0  <0>0       -0.2748
     17  C20        1.7580   32.4290   56.2750 C.3     0  <0>0        0.0949
     18  H22        2.2250   35.0160   56.3080 H       0  <0>0        0.1549
     19  O1         8.1610   38.8200   59.7200 O.3     0  <0>0       -0.5029
     20  H17        8.4060   39.4500   59.0290 H       0  <0>0        0.2923
     21  C6        11.0970   35.3910   61.5750 C.3     0  <0>0        0.0265
     22  C5        10.9690   33.8700   61.6750 C.3     0  <0>0        0.0047
     23  C4        12.0670   33.3240   62.5920 C.3     0  <0>0        0.0003
     24  C3        13.3890   34.0260   62.2780 C.3     0  <0>0        0.0000
     25  C2        14.5320   33.3040   62.9930 C.3     0  <0>0        0.0000
     26  C1        14.0090   32.0050   63.6100 C.3     0  <0>0        0.0000
@<TRIPOS>BOND
     1    12    13   ar
     2    12    11   ar
     3    13     8   ar
     4    17    15    1
     5    18    14    1
     6    15    14   am
     7    15    16    2
     8    14    11    1
     9    11    10   ar
    10     8     7    1
    11     8     9   ar
    12     7     4    1
    13    10     9   ar
    14     3     4   ar
    15     3     2   ar
    16     4     5   ar
    17    20    19    1
    18     2     1   ar
    19     5    19    1
    20     5     6   ar
    21     1     6   ar
    22     1    21    1
    23    21    22    1
    24    22    23    1
    25    24    23    1
    26    24    25    1
    27    25    26    1
