@<TRIPOS>MOLECULE
ZINC41435140_replica-1.pdb
 28 31 0 0 0
SMALL
GASTEIGER

@<TRIPOS>ATOM
      1  C6         1.9420   32.7610   59.4410 C.2     0  <0>0        0.0782
      2  C7         1.0290   32.0160   58.7520 C.2     0  <0>0        0.1871
      3  C8         0.3970   30.8340   59.2250 C.2     0  <0>0        0.2325
      4  O2         0.5560   30.2900   60.3050 O.2     0  <0>0       -0.2832
      5  C9        -0.4920   30.4080   58.1300 C.ar    0  <0>0        0.0728
      6  C10       -1.3720   29.3370   57.9680 C.ar    0  <0>0       -0.0127
      7  C11       -2.0750   29.2060   56.8040 C.ar    0  <0>0        0.0330
      8  C12       -1.9170   30.1360   55.7800 C.ar    0  <0>0        0.1418
      9  C13       -1.0470   31.2050   55.9280 C.ar    0  <0>0        0.0744
     10  C14       -0.3250   31.3520   57.1030 C.ar    0  <0>0        0.1513
     11  O3         0.5680   32.2810   57.5080 O.3     0  <0>0       -0.4500
     12  C22       -1.5440   28.3280   59.0730 C.3     0  <0>0        0.0313
     13  O4        -2.6230   29.9960   54.6290 O.3     0  <0>0       -0.4705
     14  C15       -1.8990   30.1370   53.4040 C.3     0  <0>0        0.2320
     15  C16       -1.5220   28.7740   52.8840 C.ar    0  <0>0        0.0221
     16  C21       -0.7170   27.9450   53.6420 C.ar    0  <0>0        0.0116
     17  C20       -0.3750   26.6910   53.1680 C.ar    0  <0>0        0.0680
     18  C19       -0.8310   26.2730   51.9290 C.ar    0  <0>0        0.0682
     19 Cl          0.6300   25.6460   54.1220 Cl      0  <0>0       -0.0814
     20  C18       -1.6320   27.1070   51.1690 C.ar    0  <0>0        0.0120
     21 Cl         -0.3970   24.7020   51.3300 Cl      0  <0>0       -0.0814
     22  C17       -1.9770   28.3570   51.6470 C.ar    0  <0>0        0.0002
     23  C5         2.4910   33.9230   58.8540 C.ar    0  <0>0        0.1481
     24  C4         2.2740   35.2240   59.2650 C.ar    0  <0>0        0.0404
     25  C3         3.0130   36.0450   58.4000 C.ar    0  <0>0        0.0361
     26  C2         3.6370   35.2350   57.5160 C.ar    0  <0>0        0.1233
     27  C1         4.5420   35.6900   56.4000 C.3     0  <0>0        0.0725
     28  O1         3.3180   33.9620   57.7880 O.2     0  <0>0       -0.4576
@<TRIPOS>BOND
     1    20    22   ar
     2    20    18   ar
     3    21    18    1
     4    22    15   ar
     5    18    17   ar
     6    15    14    1
     7    15    16   ar
     8    17    16   ar
     9    17    19    1
    10    14    13    1
    11    13     8    1
    12     8     9   ar
    13     8     7   ar
    14     9    10   ar
    15    27    26    1
    16     7     6   ar
    17    10    11    1
    18    10     5   ar
    19    11     2    1
    20    26    28   ar
    21    26    25   ar
    22    28    23   ar
    23     6     5   ar
    24     6    12    1
    25     5     3    1
    26    25    24   ar
    27     2     3    1
    28     2     1    2
    29    23    24   ar
    30    23     1    1
    31     3     4    2

@<TRIPOS>MOLECULE
ZINC04649151_replica-1.pdb
 24 27 0 0 0
SMALL
GASTEIGER

@<TRIPOS>ATOM
      1  C1         8.3130   34.6760   57.4780 C.3     0  <0>0        0.0354
      2  C2         8.4470   34.1650   58.9150 C.3     0  <0>0        0.1509
      3  C3         8.3890   35.3410   59.9100 C.3     0  <0>0        0.1579
      4  O1         7.2320   35.0730   60.7350 O.3     0  <0>0       -0.3197
      5  C4         6.4120   34.2050   59.9370 C.3     0  <0>0        0.2610
      6  O2         7.3210   33.3260   59.2560 O.3     0  <0>0       -0.3250
      7  C5         5.2920   33.5250   60.6710 C.2     0  <0>0        0.0130
      8  C6         4.4280   34.1600   59.8680 C.2     0  <0>0        0.0150
      9  C7         5.4070   34.8950   59.0610 C.2     0  <0>0        0.2234
     10  O3         5.4050   35.6790   58.1350 O.2     0  <0>0       -0.2862
     11  C8         2.9210   34.1300   59.8130 C.3     0  <0>0        0.0337
     12  C9         5.1850   32.5500   61.8160 C.3     0  <0>0        0.0315
     13  C10        9.6380   35.3760   60.7520 C.ar    0  <0>0        0.0083
     14  C15        9.9550   36.5120   61.4730 C.ar    0  <0>0       -0.0016
     15  C14       11.1000   36.5430   62.2460 C.ar    0  <0>0       -0.0002
     16  C13       11.9290   35.4390   62.2980 C.ar    0  <0>0       -0.0000
     17  C12       11.6140   34.3030   61.5770 C.ar    0  <0>0       -0.0002
     18  C11       10.4650   34.2700   60.8080 C.ar    0  <0>0       -0.0016
     19  C16        8.2170   36.6440   59.1730 C.ar    0  <0>0        0.0083
     20  C21        7.4310   37.6440   59.7110 C.ar    0  <0>0       -0.0016
     21  C20        7.2720   38.8390   59.0340 C.ar    0  <0>0       -0.0002
     22  C19        7.9020   39.0330   57.8180 C.ar    0  <0>0       -0.0000
     23  C18        8.6900   38.0330   57.2800 C.ar    0  <0>0       -0.0002
     24  C17        8.8500   36.8400   57.9590 C.ar    0  <0>0       -0.0016
@<TRIPOS>BOND
     1    23    22   ar
     2    23    24   ar
     3     1     2    1
     4    22    21   ar
     5    24    19   ar
     6    10     9    2
     7     2     6    1
     8     2     3    1
     9    21    20   ar
    10     9     8    1
    11     9     5    1
    12    19    20   ar
    13    19     3    1
    14     6     5    1
    15    11     8    1
    16     8     7    2
    17     3     4    1
    18     3    13    1
    19     5     7    1
    20     5     4    1
    21     7    12    1
    22    13    18   ar
    23    13    14   ar
    24    18    17   ar
    25    14    15   ar
    26    17    16   ar
    27    15    16   ar

@<TRIPOS>MOLECULE
ZINC59104978_replica-1.pdb
 28 31 0 0 0
SMALL
GASTEIGER

@<TRIPOS>ATOM
      1  C6         5.4030   36.2730   58.6410 C.ar    0  <0>0        0.0193
      2  C7         6.3150   36.8700   59.4640 C.ar    0  <0>0        0.0762
      3  N3         7.4350   37.1780   58.7590 N.ar    0  <0>0       -0.3218
      4  C8         7.2940   36.7920   57.4410 C.ar    0  <0>0        0.0602
      5  C9         6.0260   36.2060   57.3050 C.ar    0  <0>0        0.0173
      6  C10        5.6120   35.7150   56.0700 C.ar    0  <0>0        0.0015
      7  C11        6.4540   35.8050   54.9830 C.ar    0  <0>0        0.0001
      8  C12        7.7100   36.3800   55.1170 C.ar    0  <0>0        0.0015
      9  C13        8.1290   36.8760   56.3320 C.ar    0  <0>0        0.0172
     10  C5         4.0720   35.7910   59.0130 C.2     0  <0>0        0.0127
     11  C4         3.9010   34.5010   59.4100 C.2     0  <0>0        0.0859
     12  C3         2.6940   33.8340   59.9200 C.2     0  <0>0        0.2603
     13  S1         5.0870   33.1650   59.4580 S.3     0  <0>0       -0.0484
     14  N2         2.8010   32.5560   60.2390 N.am    0  <0>0       -0.2332
     15  O1         1.6420   34.4340   60.0440 O.2     0  <0>0       -0.2690
     16  C2         4.0040   31.8940   60.0920 C.2     0  <0>0        0.1648
     17  C21        1.6340   31.8350   60.7530 C.3     0  <0>0        0.1223
     18  N1         4.2830   30.6470   60.3560 N.2     0  <0>0       -0.2482
     19  C1         3.2160   29.7270   60.7580 C.3     0  <0>0        0.1537
     20  C14        8.6230   37.8270   59.3170 C.3     0  <0>0        0.1328
     21  C15        9.4850   36.7960   60.0000 C.ar    0  <0>0        0.0013
     22  C20       10.0790   37.0880   61.2140 C.ar    0  <0>0        0.0099
     23  C19       10.8660   36.1410   61.8430 C.ar    0  <0>0        0.0679
     24  C18       11.0650   34.9040   61.2530 C.ar    0  <0>0        0.0682
     25 Cl         11.6070   36.5030   63.3710 Cl      0  <0>0       -0.0814
     26  C17       10.4730   34.6150   60.0360 C.ar    0  <0>0        0.0120
     27 Cl         12.0560   33.7160   62.0390 Cl      0  <0>0       -0.0814
     28  C16        9.6840   35.5620   59.4110 C.ar    0  <0>0       -0.0015
@<TRIPOS>BOND
     1     7     8   ar
     2     7     6   ar
     3     8     9   ar
     4     6     5   ar
     5     9     4   ar
     6     5     4   ar
     7     5     1   ar
     8     4     3   ar
     9     1    10    1
    10     1     2   ar
    11     3    20    1
    12     3     2   ar
    13    10    11    2
    14    20    21    1
    15    11    13    1
    16    11    12    1
    17    28    21   ar
    18    28    26   ar
    19    13    16    1
    20    12    15    2
    21    12    14   am
    22    21    22   ar
    23    26    24   ar
    24    16    14    1
    25    16    18    2
    26    14    17    1
    27    18    19    1
    28    22    23   ar
    29    24    23   ar
    30    24    27    1
    31    23    25    1

@<TRIPOS>MOLECULE
ZINC35564367_replica-1.pdb
 26 29 0 0 0
SMALL
GASTEIGER

@<TRIPOS>ATOM
      1  C4         1.9830   32.2390   56.5870 C.1     0  <0>0        0.1366
      2  N1         1.0670   31.7210   55.7810 N.2     0  <0>0       -0.3236
      3  C5         0.2070   30.8280   56.2610 C.ar    0  <0>0        0.2270
      4  C6         0.3080   30.4650   57.6210 C.ar    0  <0>0        0.1522
      5  C7        -0.7540   29.4750   57.8650 C.ar    0  <0>0        0.0399
      6  C8        -1.1580   28.7580   58.9890 C.ar    0  <0>0        0.0098
      7  C9        -2.2200   27.8810   58.8970 C.ar    0  <0>0        0.0347
      8  C10       -2.8830   27.7120   57.6910 C.ar    0  <0>0        0.0082
      9  C11       -2.4920   28.4150   56.5720 C.ar    0  <0>0        0.0178
     10  C12       -1.4250   29.3040   56.6440 C.ar    0  <0>0        0.0639
     11  N2        -0.8300   30.1250   55.7000 N.ar    0  <0>0       -0.2968
     12 Br         -2.7700   26.9060   60.4210 Br      0  <0>0       -0.0490
     13  N3         1.2470   31.0190   58.3740 N.2     0  <0>0       -0.1336
     14  N4         2.0610   31.8780   57.8640 N.2     0  <0>0       -0.0753
     15  C13       -1.2490   30.2290   54.3000 C.3     0  <0>0        0.1352
     16  C14       -0.9980   28.9170   53.6020 C.ar    0  <0>0        0.0006
     17  C19       -0.1520   27.9840   54.1710 C.ar    0  <0>0       -0.0001
     18  C18        0.0740   26.7770   53.5350 C.ar    0  <0>0        0.0294
     19  C17       -0.5390   26.5080   52.3230 C.ar    0  <0>0        0.1401
     20  C16       -1.3830   27.4470   51.7520 C.ar    0  <0>0        0.0294
     21  F1        -0.3140   25.3320   51.6980 F       0  <0>0       -0.2042
     22  C15       -1.6110   28.6500   52.3930 C.ar    0  <0>0       -0.0001
     23  S1         3.1220   33.4250   55.9530 S.3     0  <0>0       -0.0242
     24  C3         2.3590   35.0220   56.3460 C.3     0  <0>0        0.0994
     25  C2         3.1760   35.7230   57.4020 C.2     0  <0>0       -0.0134
     26  C1         2.6200   36.0710   58.5360 C.2     0  <0>0       -0.0040
@<TRIPOS>BOND
     1    21    19    1
     2    20    19   ar
     3    20    22   ar
     4    19    18   ar
     5    22    16   ar
     6    18    17   ar
     7    16    17   ar
     8    16    15    1
     9    15    11    1
    10    11     3   ar
    11    11    10   ar
    12     2     3    2
    13     2     1    2
    14    23    24    1
    15    23     1    1
    16     3     4   ar
    17    24    25    1
    18     9    10   ar
    19     9     8   ar
    20     1    14    2
    21    10     5   ar
    22    25    26    2
    23     4     5   ar
    24     4    13    2
    25     8     7   ar
    26    14    13    1
    27     5     6   ar
    28     7     6   ar
    29     7    12    1

@<TRIPOS>MOLECULE
ZINC37641144_replica-1.pdb
 26 29 0 0 0
SMALL
GASTEIGER

@<TRIPOS>ATOM
      1  N1         0.0580   29.9650   56.8580 N.ar    0  <0>0       -0.2447
      2  C9         0.0460   28.9730   55.9500 C.ar    0  <0>0        0.2660
      3  O1         0.6590   27.9420   56.1560 O.2     0  <0>0       -0.2668
      4  C10       -0.7210   29.1520   54.7000 C.ar    0  <0>0        0.0750
      5  C11       -0.8700   28.2010   53.5770 C.ar    0  <0>0       -0.0062
      6  C12       -1.6390   28.6200   52.5360 C.ar    0  <0>0        0.0267
      7  S1        -2.1830   30.2440   52.9900 S.2     0  <0>0       -0.0700
      8  C13       -1.3840   30.3670   54.5680 C.ar    0  <0>0        0.0947
      9  N2        -1.3220   31.3280   55.5390 N.ar    0  <0>0       -0.3014
     10  H1        -1.7940   32.1660   55.4190 H       0  <0>0        0.1709
     11  C14       -0.6120   31.1130   56.6640 C.ar    0  <0>0        0.3311
     12  O2        -0.5730   31.9780   57.5180 O.2     0  <0>0       -0.2464
     13  C15       -1.6760   27.5360   51.5020 C.2     0  <0>0       -0.0020
     14  C16       -0.8240   26.4250   52.0740 C.2     0  <0>0       -0.0396
     15  C17       -0.3830   26.8320   53.2500 C.3     0  <0>0        0.0413
     16  C18        0.5060   26.0120   54.1510 C.3     0  <0>0        0.0091
     17  C19       -0.5330   25.0970   51.4230 C.3     0  <0>0        0.0267
     18  C8         0.8190   29.7870   58.0970 C.3     0  <0>0        0.1399
     19  C6        -0.1150   29.3790   59.2060 C.ar    0  <0>0       -0.0036
     20  C5        -0.0600   30.0220   60.4290 C.ar    0  <0>0       -0.0240
     21  C4        -0.9170   29.6480   61.4470 C.ar    0  <0>0       -0.0048
     22  C20        0.9350   31.1320   60.6520 C.3     0  <0>0        0.0308
     23  C3        -1.8310   28.6310   61.2420 C.ar    0  <0>0       -0.0046
     24  C2        -1.8870   27.9880   60.0180 C.ar    0  <0>0       -0.0221
     25  C1        -2.8830   26.8800   59.7950 C.3     0  <0>0        0.0310
     26  C7        -1.0260   28.3600   59.0030 C.ar    0  <0>0       -0.0070
@<TRIPOS>BOND
     1    17    14    1
     2    13    14    2
     3    13     6    1
     4    14    15    1
     5     6     7   ar
     6     6     5   ar
     7     7     8   ar
     8    15     5    1
     9    15    16    1
    10     5     4   ar
    11     8     4   ar
    12     8     9   ar
    13     4     2   ar
    14    10     9    1
    15     9    11   ar
    16     2     3    2
    17     2     1   ar
    18    11     1   ar
    19    11    12    2
    20     1    18    1
    21    18    19    1
    22    26    19   ar
    23    26    24   ar
    24    19    20   ar
    25    25    24    1
    26    24    23   ar
    27    20    22    1
    28    20    21   ar
    29    23    21   ar

@<TRIPOS>MOLECULE
ZINC39458383_replica-1.pdb
 27 30 0 0 0
SMALL
GASTEIGER

@<TRIPOS>ATOM
      1  C1        10.3170   35.1600   60.1160 C.3     0  <0>0        0.0513
      2  C2         8.9180   34.6110   60.0030 C.ar    0  <0>0        0.0521
      3  C3         8.5000   33.4100   60.4700 C.ar    0  <0>0        0.0671
      4  C4         7.1430   33.2850   60.1620 C.ar    0  <0>0        0.0075
      5  C5         6.7540   34.4200   59.5010 C.ar    0  <0>0        0.0784
      6  N1         7.8610   35.2400   59.4190 N.ar    0  <0>0       -0.3054
      7  C12        5.4250   34.7460   58.9610 C.ar    0  <0>0        0.1002
      8  C13        4.2170   34.3240   59.5310 C.ar    0  <0>0        0.0595
      9  C14        3.0070   34.8360   58.9730 C.ar    0  <0>0        0.0310
     10  C15        3.0720   35.6320   57.8360 C.ar    0  <0>0        0.0269
     11  C16        4.3040   35.9270   57.2900 C.ar    0  <0>0        0.0994
     12  N2         5.4120   35.4970   57.8520 N.ar    0  <0>0       -0.2423
     13  C18        4.0560   33.4000   60.5770 C.2     0  <0>0        0.1754
     14  O2         2.9090   33.2070   60.9250 O.2     0  <0>0       -0.2913
     15  C19        5.0680   32.6360   61.3080 C.3     0  <0>0        0.0740
     16  C20        6.2300   32.1400   60.4790 C.3     0  <0>0        0.0369
     17 Cl          9.4740   32.2390   61.3030 Cl      0  <0>0       -0.0814
     18  C6         7.8930   36.5110   58.8300 C.ar    0  <0>0        0.0977
     19  C11        7.4760   37.6280   59.5520 C.ar    0  <0>0        0.1496
     20  C10        7.5150   38.8820   58.9650 C.ar    0  <0>0        0.0381
     21  C9         7.9570   39.0230   57.6630 C.ar    0  <0>0        0.0032
     22  C8         8.3650   37.9150   56.9440 C.ar    0  <0>0        0.0017
     23  C7         8.3340   36.6610   57.5230 C.ar    0  <0>0        0.0206
     24  O1         7.0380   37.4870   60.8310 O.3     0  <0>0       -0.5040
     25  H8         7.7450   37.4880   61.4910 H       0  <0>0        0.2923
     26  S1         1.4540   34.4640   59.7160 S.3     0  <0>0       -0.1125
     27  C17        0.3820   34.0550   58.3110 C.3     0  <0>0        0.0742
@<TRIPOS>BOND
     1    22    23   ar
     2    22    21   ar
     3    11    10   ar
     4    11    12   ar
     5    23    18   ar
     6    21    20   ar
     7    10     9   ar
     8    12     7   ar
     9    27    26    1
    10    18     6    1
    11    18    19   ar
    12     7     5    1
    13     7     8   ar
    14    20    19   ar
    15     9     8   ar
    16     9    26    1
    17     6     5   ar
    18     6     2   ar
    19     5     4   ar
    20     8    13    1
    21    19    24    1
    22     2     1    1
    23     2     3   ar
    24     4     3   ar
    25     4    16    1
    26     3    17    1
    27    16    15    1
    28    13    14    2
    29    13    15    1
    30    24    25    1

@<TRIPOS>MOLECULE
ZINC41350962_replica-1.pdb
 29 32 0 0 0
SMALL
GASTEIGER

@<TRIPOS>ATOM
      1  C6        11.5080   34.7020   62.2340 C.2     0  <0>0        0.0470
      2  C7        10.6920   34.8410   61.1500 C.2     0  <0>0        0.1845
      3  C8        10.2040   36.0690   60.6310 C.2     0  <0>0        0.2327
      4  O1        10.4230   37.1920   61.0540 O.2     0  <0>0       -0.2832
      5  C9         9.3740   35.6960   59.4720 C.ar    0  <0>0        0.0764
      6  C10        8.6280   36.4280   58.5490 C.ar    0  <0>0        0.0095
      7  C11        7.9460   35.7790   57.5580 C.ar    0  <0>0        0.0376
      8  C12        7.9940   34.3910   57.4670 C.ar    0  <0>0        0.1474
      9  C13        8.7310   33.6510   58.3760 C.ar    0  <0>0        0.0474
     10  C14        9.4300   34.2950   59.3890 C.ar    0  <0>0        0.1474
     11  O2        10.2160   33.8310   60.3840 O.3     0  <0>0       -0.4504
     12  C15        8.7750   32.1490   58.2670 C.3     0  <0>0        0.0375
     13  O3         7.3120   33.7580   56.4780 O.3     0  <0>0       -0.4233
     14  C16        5.9700   33.7830   56.5200 C.2     0  <0>0        0.3407
     15  O4         5.3670   32.9100   57.0980 O.2     0  <0>0       -0.2480
     16  C17        5.2170   34.9010   55.8470 C.3     0  <0>0        0.2007
     17 Cl          4.6940   34.3700   54.2040 Cl      0  <0>0       -0.0981
     18  C18        4.0050   35.2580   56.6680 C.ar    0  <0>0        0.0032
     19  C23        2.7400   35.1110   56.1330 C.ar    0  <0>0       -0.0025
     20  C22        1.6280   35.4340   56.8900 C.ar    0  <0>0       -0.0003
     21  C21        1.7820   35.9130   58.1770 C.ar    0  <0>0       -0.0000
     22  C20        3.0480   36.0630   58.7110 C.ar    0  <0>0       -0.0003
     23  C19        4.1600   35.7370   57.9560 C.ar    0  <0>0       -0.0025
     24  C5        11.9270   33.4170   62.6430 C.ar    0  <0>0        0.0287
     25  C2        13.2190   32.9330   62.8310 C.ar    0  <0>0       -0.0152
     26  C1        14.4390   33.7880   62.6020 C.3     0  <0>0        0.0316
     27  C3        13.3100   31.6250   63.2440 C.ar    0  <0>0        0.0032
     28  C4        12.1710   30.9120   63.4310 C.ar    0  <0>0        0.0351
     29  S1        10.9400   31.9900   63.0540 S.2     0  <0>0       -0.0867
@<TRIPOS>BOND
     1    17    16    1
     2    16    14    1
     3    16    18    1
     4    19    18   ar
     5    19    20   ar
     6    13    14    1
     7    13     8    1
     8    14    15    2
     9    18    23   ar
    10    20    21   ar
    11     8     7   ar
    12     8     9   ar
    13     7     6   ar
    14    23    22   ar
    15    21    22   ar
    16    12     9    1
    17     9    10   ar
    18     6     5   ar
    19    10     5   ar
    20    10    11    1
    21     5     3    1
    22    11     2    1
    23     3     4    2
    24     3     2    1
    25     2     1    2
    26     1    24    1
    27    26    25    1
    28    24    25   ar
    29    24    29   ar
    30    25    27   ar
    31    29    28   ar
    32    27    28   ar

@<TRIPOS>MOLECULE
ZINC09578622_replica-1.pdb
 24 26 0 0 0
SMALL
GASTEIGER

@<TRIPOS>ATOM
      1  C3        -2.1170   27.3280   58.3120 C.ar    0  <0>0        0.0378
      2  C4        -1.6880   28.1490   59.2920 C.ar    0  <0>0        0.0547
      3  C5        -0.8050   29.2120   58.9830 C.ar    0  <0>0        0.2009
      4  O1        -0.4010   29.9680   59.8520 O.2     0  <0>0       -0.2864
      5  C6        -0.3910   29.3730   57.5860 C.ar    0  <0>0        0.0881
      6  C7         0.4500   30.2830   56.9110 C.ar    0  <0>0        0.0853
      7  N1         0.4660   29.9640   55.6470 N.ar    0  <0>0       -0.1680
      8  N2        -0.3520   28.8470   55.4390 N.ar    0  <0>0       -0.2143
      9  C8        -0.8880   28.4820   56.6340 C.ar    0  <0>0        0.1460
     10  N3        -1.7330   27.4800   57.0210 N.ar    0  <0>0       -0.3416
     11  H1        -2.0700   26.8630   56.3520 H       0  <0>0        0.1671
     12  C16        1.2010   31.4260   57.5430 C.3     0  <0>0        0.0542
     13  C9        -0.5840   28.2150   54.2100 C.ar    0  <0>0        0.0882
     14  C14       -1.4060   28.8140   53.2650 C.ar    0  <0>0        0.0891
     15  C13       -1.6340   28.1880   52.0540 C.ar    0  <0>0        0.0054
     16  C12       -1.0440   26.9670   51.7840 C.ar    0  <0>0        0.0000
     17  C11       -0.2240   26.3690   52.7230 C.ar    0  <0>0        0.0015
     18  C10        0.0080   26.9890   53.9350 C.ar    0  <0>0        0.0192
     19  C15       -2.0490   30.1440   53.5590 C.3     0  <0>0        0.4200
     20  F1        -1.0560   31.1130   53.7390 F       0  <0>0       -0.1658
     21  F2        -2.8700   30.5120   52.4860 F       0  <0>0       -0.1658
     22  F3        -2.8200   30.0430   54.7220 F       0  <0>0       -0.1658
     23  C2        -3.0570   26.2030   58.6630 C.3     0  <0>0        0.0437
     24  C1        -2.3060   24.8720   58.5950 C.3     0  <0>0        0.0066
@<TRIPOS>BOND
     1    16    15   ar
     2    16    17   ar
     3    15    14   ar
     4    21    19    1
     5    17    18   ar
     6    14    19    1
     7    14    13   ar
     8    19    20    1
     9    19    22    1
    10    18    13   ar
    11    13     8    1
    12     8     7   ar
    13     8     9   ar
    14     7     6   ar
    15    11    10    1
    16     9    10   ar
    17     9     5   ar
    18     6    12    1
    19     6     5   ar
    20    10     1   ar
    21     5     3   ar
    22     1    23    1
    23     1     2   ar
    24    24    23    1
    25     3     2   ar
    26     3     4    2

@<TRIPOS>MOLECULE
ZINC15015656_replica-1.pdb
 27 29 0 0 0
SMALL
GASTEIGER

@<TRIPOS>ATOM
      1  C8         3.3880   33.6030   56.2100 C.2     0  <0>0        0.0142
      2  C9         4.5340   34.2860   55.9630 C.2     0  <0>0        0.0858
      3  C10        5.0510   34.8150   54.6870 C.2     0  <0>0        0.2570
      4  O3         4.4390   34.6750   53.6440 O.2     0  <0>0       -0.2692
      5  N1         6.2100   35.4520   54.7270 N.am    0  <0>0       -0.2602
      6  C11        6.8870   35.6020   55.9170 C.2     0  <0>0        0.1658
      7  N2         8.0380   36.1990   56.1330 N.2     0  <0>0       -0.2244
      8  S1         5.8180   34.7920   57.0970 S.3     0  <0>0       -0.0483
      9  H8         6.5860   35.8160   53.9110 H       0  <0>0        0.1571
     10  C4         2.9770   33.3330   57.5930 C.ar    0  <0>0        0.0379
     11  C3         2.1120   34.2130   58.2550 C.ar    0  <0>0        0.0400
     12  C2         1.7300   33.9530   59.5570 C.ar    0  <0>0        0.1394
     13  C7         2.2030   32.8230   60.2120 C.ar    0  <0>0        0.0466
     14  C6         3.0520   31.9440   59.5660 C.ar    0  <0>0        0.0712
     15  C5         3.4460   32.1900   58.2600 C.ar    0  <0>0        0.1399
     16 Br          3.6840   30.4060   60.4680 Br      0  <0>0       -0.0457
     17  O1         0.8900   34.8080   60.2000 O.3     0  <0>0       -0.4714
     18  C1        -0.0070   34.2390   61.1560 C.3     0  <0>0        0.2525
     19  O2         4.2850   31.3290   57.6280 O.3     0  <0>0       -0.5050
     20  H6         3.9870   31.0610   56.7490 H       0  <0>0        0.2922
     21  C12        8.5570   36.2480   57.3980 C.ar    0  <0>0        0.0833
     22  C17        8.4260   37.4070   58.1660 C.ar    0  <0>0        0.0197
     23  C16        8.9470   37.4460   59.4440 C.ar    0  <0>0        0.0082
     24  C15        9.6090   36.3450   59.9590 C.ar    0  <0>0        0.0347
     25  C14        9.7480   35.1950   59.2000 C.ar    0  <0>0        0.0082
     26 Br         10.3270   36.4110   61.7070 Br      0  <0>0       -0.0490
     27  C13        9.2260   35.1400   57.9240 C.ar    0  <0>0        0.0197
@<TRIPOS>BOND
     1     4     3    2
     2     9     5    1
     3     3     5   am
     4     3     2    1
     5     5     6    1
     6     6     7    2
     7     6     8    1
     8     2     1    2
     9     2     8    1
    10     7    21    1
    11     1    10    1
    12    20    19    1
    13    21    27   ar
    14    21    22   ar
    15    10    11   ar
    16    10    15   ar
    17    19    15    1
    18    27    25   ar
    19    22    23   ar
    20    11    12   ar
    21    15    14   ar
    22    25    24   ar
    23    23    24   ar
    24    12    17    1
    25    12    13   ar
    26    14    13   ar
    27    14    16    1
    28    24    26    1
    29    17    18    1

@<TRIPOS>MOLECULE
ZINC39364976_replica-1.pdb
 25 28 0 0 0
SMALL
GASTEIGER

@<TRIPOS>ATOM
      1  C1         6.9370   37.8660   55.9000 C.ar    0  <0>0        0.0013
      2  C2         8.0370   38.6120   56.2820 C.ar    0  <0>0        0.0006
      3  C3         8.6060   38.4190   57.5310 C.ar    0  <0>0        0.0074
      4  C4         8.0700   37.4660   58.3750 C.ar    0  <0>0        0.0388
      5  C5         6.9880   36.6900   57.9890 C.ar    0  <0>0        0.0537
      6  C6         6.4060   36.9090   56.7460 C.ar    0  <0>0        0.0150
      7  N1         6.5120   35.6530   58.8030 N.pl3   0  <0>0       -0.3036
      8  C7         7.3230   34.4310   58.9240 C.3     0  <0>0        0.0921
      9  C8         8.2880   34.5210   60.0770 C.3     0  <0>0        0.0370
     10  C9         9.4090   35.5360   59.9110 C.3     0  <0>0        0.0759
     11  S1         8.7390   37.2230   60.0030 S.3     0  <0>0       -0.1088
     12  C10       10.4240   35.3440   61.0080 C.ar    0  <0>0       -0.0097
     13  C15       10.9520   34.0890   61.2470 C.ar    0  <0>0        0.0285
     14  C14       11.8870   33.9110   62.2510 C.ar    0  <0>0        0.1671
     15  C13       12.2870   34.9910   63.0230 C.ar    0  <0>0        0.1674
     16  F1        12.4080   32.6850   62.4820 F       0  <0>0       -0.2018
     17  C12       11.7530   36.2450   62.7860 C.ar    0  <0>0        0.0317
     18  F2        13.1960   34.8190   64.0070 F       0  <0>0       -0.2018
     19  C11       10.8220   36.4200   61.7790 C.ar    0  <0>0       -0.0010
     20  C16        5.2390   35.7810   59.5170 C.3     0  <0>0        0.1407
     21  C17        4.1750   34.9350   58.8160 C.3     0  <0>0        0.2246
     22  N3         3.4130   34.1590   59.8040 N.2     0  <0>0       -0.2431
     23  C19        2.1800   34.5280   59.7120 C.2     0  <0>0        0.1156
     24  C18        2.0460   35.5590   58.6700 C.2     0  <0>0        0.1156
     25  N2         3.1990   35.8020   58.1440 N.2     0  <0>0       -0.2431
@<TRIPOS>BOND
     1     1     2   ar
     2     1     6   ar
     3     2     3   ar
     4     6     5   ar
     5     3     4   ar
     6     5     4   ar
     7     5     7    1
     8    25    24    2
     9    25    21    1
    10     4    11    1
    11    24    23    1
    12     7     8    1
    13     7    20    1
    14    21    20    1
    15    21    22    1
    16     8     9    1
    17    23    22    2
    18    10    11    1
    19    10     9    1
    20    10    12    1
    21    12    13   ar
    22    12    19   ar
    23    13    14   ar
    24    19    17   ar
    25    14    16    1
    26    14    15   ar
    27    17    15   ar
    28    15    18    1

@<TRIPOS>MOLECULE
ZINC09158004_replica-1.pdb
 29 32 0 0 0
SMALL
GASTEIGER

@<TRIPOS>ATOM
      1  C8         2.4410   35.8720   58.1840 C.ar    0  <0>0        0.1518
      2  C9         2.4000   36.0100   56.7990 C.ar    0  <0>0        0.0379
      3  C10        3.5610   36.0690   56.0810 C.ar    0  <0>0        0.0095
      4  C11        4.7900   35.9810   56.7360 C.ar    0  <0>0        0.0767
      5  C12        4.8430   35.8370   58.1310 C.ar    0  <0>0        0.1516
      6  C13        3.6540   35.7840   58.8470 C.ar    0  <0>0        0.0752
      7  O3         6.1320   35.7730   58.5330 O.3     0  <0>0       -0.4500
      8  C14        6.9900   35.8660   57.4900 C.2     0  <0>0        0.1841
      9  C15        8.3440   35.8350   57.5620 C.2     0  <0>0        0.0425
     10  C22        6.1860   36.0060   56.2660 C.2     0  <0>0        0.2327
     11  O4         6.5870   36.1160   55.1210 O.2     0  <0>0       -0.2832
     12  O2         1.2830   35.8190   58.8900 O.3     0  <0>0       -0.4209
     13  C7         0.6370   34.6360   58.9180 C.2     0  <0>0        0.3479
     14  O1         0.1100   34.2070   57.9110 O.2     0  <0>0       -0.2444
     15  C5         0.5700   33.8620   60.1720 C.ar    0  <0>0        0.1034
     16  C4         1.2810   32.6640   60.2980 C.ar    0  <0>0        0.1463
     17  C3         1.2130   31.9440   61.4770 C.ar    0  <0>0        0.0299
     18  F1         2.0330   32.2110   59.2700 F       0  <0>0       -0.2040
     19  C2         0.4440   32.4060   62.5280 C.ar    0  <0>0        0.0023
     20  C1        -0.2620   33.5920   62.4100 C.ar    0  <0>0        0.0004
     21  C6        -0.2090   34.3180   61.2390 C.ar    0  <0>0        0.0087
     22  C16        9.0080   35.6900   58.8640 C.ar    0  <0>0        0.0243
     23  C21        9.3320   36.8240   59.6200 C.ar    0  <0>0        0.0586
     24  C20        9.9550   36.6780   60.8420 C.ar    0  <0>0        0.0114
     25 Cl          8.9490   38.4090   59.0210 Cl      0  <0>0       -0.0822
     26  C19       10.2610   35.4170   61.3220 C.ar    0  <0>0        0.0017
     27  C18        9.9440   34.2900   60.5820 C.ar    0  <0>0        0.0114
     28  C17        9.3150   34.4180   59.3600 C.ar    0  <0>0        0.0586
     29 Cl          8.9130   33.0020   58.4370 Cl      0  <0>0       -0.0822
@<TRIPOS>BOND
     1    11    10    2
     2     3     4   ar
     3     3     2   ar
     4    10     4    1
     5    10     8    1
     6     4     5   ar
     7     2     1   ar
     8     8     9    2
     9     8     7    1
    10     9    22    1
    11    14    13    2
    12     5     7    1
    13     5     6   ar
    14     1     6   ar
    15     1    12    1
    16    29    28    1
    17    22    28   ar
    18    22    23   ar
    19    12    13    1
    20    13    15    1
    21    25    23    1
    22    18    16    1
    23    28    27   ar
    24    23    24   ar
    25    15    16   ar
    26    15    21   ar
    27    16    17   ar
    28    27    26   ar
    29    24    26   ar
    30    21    20   ar
    31    17    19   ar
    32    20    19   ar

@<TRIPOS>MOLECULE
ZINC27909869_replica-1.pdb
 28 30 0 0 0
SMALL
GASTEIGER

@<TRIPOS>ATOM
      1  N1         7.2870   35.1020   58.6390 N.pl3   0  <0>0       -0.2797
      2  C6         7.2380   35.5840   57.3430 C.2     0  <0>0        0.0645
      3  C7         8.3610   36.3270   57.1620 C.2     0  <0>0        0.0748
      4  N2         9.0630   36.3090   58.3030 N.pl3   0  <0>0       -0.3039
      5  C8         8.4350   35.5770   59.1950 C.3     0  <0>0        0.2112
      6  N3         8.8680   35.3330   60.4850 N.3     0  <0>0       -0.2626
      7  H13        8.2650   34.7050   61.1580 H       0  <0>0        0.1266
      8  H28       10.0120   36.8600   58.3720 H       0  <0>0        0.1496
      9  C5         6.2930   34.2450   59.2910 C.3     0  <0>0        0.0936
     10  C4         5.1410   35.1080   59.8110 C.3     0  <0>0        0.0215
     11  C2         3.8080   34.4350   59.4740 C.3     0  <0>0        0.0017
     12  C1         2.8620   35.4620   58.8490 C.3     0  <0>0        0.0001
     13  C3         4.0480   33.2940   58.4840 C.3     0  <0>0        0.0001
     14  C9        10.1290   35.9100   60.9560 C.3     0  <0>0        0.0981
     15  C10       10.9530   34.8390   61.6250 C.ar    0  <0>0       -0.0063
     16  C15       12.1220   35.1770   62.2810 C.ar    0  <0>0       -0.0024
     17  C14       12.8790   34.1990   62.8940 C.ar    0  <0>0        0.0059
     18  C13       12.4640   32.8730   62.8510 C.ar    0  <0>0        0.0252
     19  C12       11.2890   32.5370   62.1900 C.ar    0  <0>0        0.0059
     20  C11       10.5350   33.5220   61.5840 C.ar    0  <0>0       -0.0024
     21  S1        13.4270   31.6200   63.6330 S.3     0  <0>0       -0.1127
     22  C16       12.2100   30.3590   64.1000 C.3     0  <0>0        0.0742
     23  C17        6.1750   35.3320   56.3480 C.ar    0  <0>0        0.0147
     24  C22        6.2230   34.1930   55.5420 C.ar    0  <0>0        0.0013
     25  C21        5.2270   33.9650   54.6150 C.ar    0  <0>0        0.0000
     26  C20        4.1840   34.8620   54.4810 C.ar    0  <0>0        0.0000
     27  C19        4.1290   35.9930   55.2760 C.ar    0  <0>0        0.0000
     28  C18        5.1180   36.2340   56.2080 C.ar    0  <0>0        0.0013
@<TRIPOS>BOND
     1    26    25   ar
     2    26    27   ar
     3    25    24   ar
     4    27    28   ar
     5    24    23   ar
     6    28    23   ar
     7    23     2    1
     8     3     2    2
     9     3     4    1
    10     2     1    1
    11     4     8    1
    12     4     5    1
    13    13    11    1
    14     1     5    1
    15     1     9    1
    16    12    11    1
    17     5     6    1
    18     9    10    1
    19    11    10    1
    20     6    14    1
    21     6     7    1
    22    14    15    1
    23    20    15   ar
    24    20    19   ar
    25    15    16   ar
    26    19    18   ar
    27    16    17   ar
    28    18    17   ar
    29    18    21    1
    30    21    22    1

@<TRIPOS>MOLECULE
ZINC40485965_replica-1.pdb
 28 31 0 0 0
SMALL
GASTEIGER

@<TRIPOS>ATOM
      1  C8         8.5060   36.4420   57.9010 C.2     0  <0>0        0.0382
      2  C9         8.3340   37.6110   57.2450 C.2     0  <0>0        0.1856
      3  C10        7.4710   37.3960   56.0820 C.2     0  <0>0        0.2834
      4  O1         7.1350   38.2610   55.2950 O.2     0  <0>0       -0.2666
      5  N1         7.1060   36.1040   56.0080 N.am    0  <0>0       -0.2604
      6  C11        7.7270   35.3980   57.1360 C.3     0  <0>0        0.1243
      7  C5         9.3020   36.2270   59.1190 C.ar    0  <0>0        0.0009
      8  C4        10.0720   35.0670   59.2610 C.ar    0  <0>0       -0.0005
      9  C3        10.8150   34.8730   60.4050 C.ar    0  <0>0       -0.0043
     10  C2        10.8020   35.8210   61.4130 C.ar    0  <0>0       -0.0218
     11  C1        11.6180   35.6000   62.6610 C.3     0  <0>0        0.0310
     12  C7        10.0380   36.9680   61.2830 C.ar    0  <0>0       -0.0043
     13  C6         9.2930   37.1800   60.1420 C.ar    0  <0>0       -0.0005
     14  C12        6.6620   34.7940   58.0160 C.ar    0  <0>0        0.0001
     15  C17        5.8490   35.6140   58.7760 C.ar    0  <0>0       -0.0018
     16  C16        4.8690   35.0620   59.5790 C.ar    0  <0>0        0.0064
     17  C15        4.7090   33.6880   59.6300 C.ar    0  <0>0        0.0345
     18  C14        5.5260   32.8690   58.8730 C.ar    0  <0>0        0.0064
     19 Br          3.3730   32.9320   60.7340 Br      0  <0>0       -0.0490
     20  C13        6.5020   33.4220   58.0660 C.ar    0  <0>0       -0.0018
     21  O3         8.8770   38.8030   57.6110 O.2     0  <0>0       -0.5020
     22  H18        9.1460   38.8450   58.5390 H       0  <0>0        0.2924
     23  C18        6.2460   35.5060   54.9830 C.3     0  <0>0        0.1590
     24  C19        4.8330   35.4200   55.5010 C.ar    0  <0>0        0.1431
     25  O2         4.1470   34.2870   55.7240 O.2     0  <0>0       -0.4530
     26  C22        2.9240   34.5900   56.1870 C.ar    0  <0>0        0.1792
     27  C21        2.8140   35.9290   56.2570 C.ar    0  <0>0        0.0435
     28  C20        4.0450   36.4640   55.8150 C.ar    0  <0>0        0.0379
@<TRIPOS>BOND
     1    23    24    1
     2    23     5    1
     3     4     3    2
     4    24    25   ar
     5    24    28   ar
     6    25    26   ar
     7    28    27   ar
     8     5     3   am
     9     5     6    1
    10     3     2    1
    11    26    27   ar
    12     6     1    1
    13     6    14    1
    14     2    21    1
    15     2     1    2
    16    21    22    1
    17     1     7    1
    18    14    20   ar
    19    14    15   ar
    20    20    18   ar
    21    15    16   ar
    22    18    17   ar
    23     7     8   ar
    24     7    13   ar
    25     8     9   ar
    26    16    17   ar
    27    17    19    1
    28    13    12   ar
    29     9    10   ar
    30    12    10   ar
    31    10    11    1

@<TRIPOS>MOLECULE
ZINC20319772_replica-1.pdb
 29 32 0 0 0
SMALL
GASTEIGER

@<TRIPOS>ATOM
      1  C1         6.9920   37.2460   55.2380 C.ar    0  <0>0        0.0208
      2  C2         6.9340   35.8650   55.1470 C.ar    0  <0>0        0.0074
      3  C3         7.4230   35.1120   56.2190 C.ar    0  <0>0        0.0705
      4  C4         7.9440   35.7790   57.3300 C.ar    0  <0>0        0.1004
      5  N1         7.9770   37.0930   57.3710 N.ar    0  <0>0       -0.2447
      6  C5         7.5230   37.8300   56.3740 C.ar    0  <0>0        0.0986
      7  C6         8.3750   34.7070   58.3020 C.3     0  <0>0        0.1914
      8  N2         8.0710   33.4230   57.6610 N.am    0  <0>0       -0.2521
      9  C7         7.5170   33.6610   56.4590 C.2     0  <0>0        0.2519
     10  O1         7.1490   32.8020   55.6810 O.2     0  <0>0       -0.2698
     11  N3         9.8140   34.8140   58.5580 N.pl3   0  <0>0       -0.3140
     12  H10       10.5340   34.5510   57.7690 H       0  <0>0        0.1486
     13  C13       10.2710   35.2500   59.8050 C.ar    0  <0>0        0.0460
     14  C18       11.1730   34.4760   60.5240 C.ar    0  <0>0        0.0190
     15  C17       11.6230   34.9080   61.7560 C.ar    0  <0>0        0.0832
     16  C16       11.1780   36.1120   62.2730 C.ar    0  <0>0        0.0616
     17  C15       10.2790   36.8840   61.5580 C.ar    0  <0>0        0.0126
     18 Cl         11.7460   36.6530   63.8210 Cl      0  <0>0       -0.0823
     19  C14        9.8290   36.4590   60.3240 C.ar    0  <0>0        0.0152
     20  C19       12.6020   34.0700   62.5370 C.3     0  <0>0        0.4194
     21  F1        13.8970   34.3050   62.0630 F       0  <0>0       -0.1658
     22  F2        12.5320   34.4120   63.8920 F       0  <0>0       -0.1658
     23  F3        12.2860   32.7160   62.3800 F       0  <0>0       -0.1658
     24  C8         8.3240   32.1010   58.2370 C.3     0  <0>0        0.1287
     25  C9         7.3860   31.8700   59.3950 C.ar    0  <0>0        0.0273
     26  S1         5.6170   32.1000   59.4730 S.2     0  <0>0       -0.0891
     27  C12        5.3730   31.6010   61.1680 C.ar    0  <0>0        0.0352
     28  C11        6.6350   31.2920   61.5560 C.ar    0  <0>0        0.0072
     29  C10        7.6680   31.4360   60.6480 C.ar    0  <0>0        0.0044
@<TRIPOS>BOND
     1     2     1   ar
     2     2     3   ar
     3     1     6   ar
     4    10     9    2
     5     3     9    1
     6     3     4   ar
     7     6     5   ar
     8     9     8   am
     9     4     5   ar
    10     4     7    1
    11     8    24    1
    12     8     7    1
    13    12    11    1
    14    24    25    1
    15     7    11    1
    16    11    13    1
    17    25    26   ar
    18    25    29   ar
    19    26    27   ar
    20    13    19   ar
    21    13    14   ar
    22    19    17   ar
    23    14    15   ar
    24    29    28   ar
    25    27    28   ar
    26    17    16   ar
    27    15    16   ar
    28    15    20    1
    29    21    20    1
    30    16    18    1
    31    23    20    1
    32    20    22    1

@<TRIPOS>MOLECULE
ZINC41587209_replica-1.pdb
 31 35 0 0 0
SMALL
GASTEIGER

@<TRIPOS>ATOM
      1  C1         4.9650   32.8650   60.4830 C.3     0  <0>0        0.0374
      2  C2         4.5590   33.6630   59.2710 C.ar    0  <0>0        0.0465
      3  C3         3.2930   33.4950   58.7250 C.ar    0  <0>0        0.1366
      4  C4         2.9060   34.2280   57.6070 C.ar    0  <0>0        0.0280
      5  C5         3.7750   35.1170   57.0360 C.ar    0  <0>0        0.0064
      6  C6         5.0480   35.2940   57.5740 C.ar    0  <0>0        0.0762
      7  C7         5.4480   34.5680   58.7080 C.ar    0  <0>0        0.1474
      8  O1         6.7090   34.9120   59.0500 O.3     0  <0>0       -0.4504
      9  C8         7.2190   35.8480   58.2150 C.2     0  <0>0        0.1840
     10  C9         8.4560   36.3980   58.2880 C.2     0  <0>0        0.0408
     11  C19        6.1910   36.1510   57.2060 C.2     0  <0>0        0.2327
     12  O2         6.2620   36.9420   56.2820 O.2     0  <0>0       -0.2832
     13  C20        1.5320   34.0570   57.0120 C.3     0  <0>0        0.1054
     14  N1         0.9380   32.8030   57.4950 N.3     0  <0>0       -0.2270
     15  C21        1.0570   32.7160   58.9600 C.3     0  <0>0        0.2851
     16  O3         2.4420   32.6050   59.2990 O.3     0  <0>0       -0.4586
     17  C10        9.3410   36.0700   59.4160 C.ar    0  <0>0        0.0031
     18  C15        9.4590   36.9500   60.4970 C.ar    0  <0>0       -0.0002
     19  C14       10.2850   36.6320   61.5530 C.ar    0  <0>0       -0.0043
     20  C13       11.0050   35.4500   61.5410 C.ar    0  <0>0       -0.0225
     21  C12       10.8990   34.5760   60.4730 C.ar    0  <0>0       -0.0043
     22  C11       10.0720   34.8770   59.4120 C.ar    0  <0>0       -0.0002
     23  C16       11.9120   35.1130   62.6970 C.3     0  <0>0        0.0224
     24  C17       13.2180   34.5210   62.1660 C.3     0  <0>0        0.0047
     25  C18       12.2150   36.3840   63.4950 C.3     0  <0>0        0.0047
     26  C22       -0.4650   32.6880   57.0740 C.3     0  <0>0        0.1088
     27  C23       -0.6120   31.5260   56.1260 C.ar    0  <0>0        0.0236
     28  S1        -2.0180   30.4570   55.8680 S.2     0  <0>0       -0.0894
     29  C26       -1.3110   29.4100   54.6060 C.ar    0  <0>0        0.0352
     30  C25       -0.0670   29.9330   54.4730 C.ar    0  <0>0        0.0072
     31  C24        0.2920   31.0170   55.2530 C.ar    0  <0>0        0.0041
@<TRIPOS>BOND
     1    30    29   ar
     2    30    31   ar
     3    29    28   ar
     4    31    27   ar
     5    28    27   ar
     6    27    26    1
     7    12    11    2
     8    13    14    1
     9    13     4    1
    10     5     6   ar
    11     5     4   ar
    12    26    14    1
    13    11     6    1
    14    11     9    1
    15    14    15    1
    16     6     7   ar
    17     4     3   ar
    18     9    10    2
    19     9     8    1
    20    10    17    1
    21     7     8    1
    22     7     2   ar
    23     3     2   ar
    24     3    16    1
    25    15    16    1
    26     2     1    1
    27    22    17   ar
    28    22    21   ar
    29    17    18   ar
    30    21    20   ar
    31    18    19   ar
    32    20    19   ar
    33    20    23    1
    34    24    23    1
    35    23    25    1

@<TRIPOS>MOLECULE
ZINC59566617_replica-1.pdb
 28 30 0 0 0
SMALL
GASTEIGER

@<TRIPOS>ATOM
      1  C8        11.3280   35.7490   62.3490 C.2     0  <0>0        0.0112
      2  C9        10.5830   35.6920   61.2150 C.2     0  <0>0        0.0857
      3  C10        9.4820   36.5680   60.7740 C.2     0  <0>0        0.2570
      4  O3         9.1070   37.5090   61.4500 O.2     0  <0>0       -0.2692
      5  N1         8.9210   36.2860   59.6100 N.am    0  <0>0       -0.2602
      6  C11        9.3590   35.2180   58.8590 C.2     0  <0>0        0.1659
      7  N2         8.9180   34.8020   57.6930 N.2     0  <0>0       -0.2235
      8  S1        10.6790   34.5400   59.8520 S.3     0  <0>0       -0.0483
      9  H8         8.1920   36.8380   59.2820 H       0  <0>0        0.1571
     10  C4        12.2050   34.6270   62.7080 C.ar    0  <0>0        0.0044
     11  C3        13.5870   34.8250   62.8240 C.ar    0  <0>0        0.0401
     12  C2        14.4060   33.7670   63.1620 C.ar    0  <0>0        0.1726
     13  C7        13.8600   32.5030   63.3810 C.ar    0  <0>0        0.1740
     14  C6        12.4900   32.3060   63.2720 C.ar    0  <0>0        0.0712
     15  C5        11.6630   33.3570   62.9350 C.ar    0  <0>0        0.0100
     16 Br         11.7550   30.5910   63.5800 Br      0  <0>0       -0.0457
     17  O1        15.7480   33.9560   63.2760 O.3     0  <0>0       -0.4684
     18  C1        16.2490   34.2940   64.5700 C.3     0  <0>0        0.2526
     19  O2        14.6700   31.4630   63.7080 O.3     0  <0>0       -0.5025
     20  H6        15.0650   31.5330   64.5880 H       0  <0>0        0.2923
     21  C12        7.9050   35.4750   57.0660 C.ar    0  <0>0        0.0946
     22  C17        6.5730   35.1360   57.3200 C.ar    0  <0>0        0.0858
     23  C16        5.5560   35.8240   56.6870 C.ar    0  <0>0        0.0697
     24 Cl          6.1980   33.8580   58.4340 Cl      0  <0>0       -0.0798
     25  C15        5.8550   36.8390   55.7940 C.ar    0  <0>0        0.0123
     26 Cl          3.9010   35.4110   57.0070 Cl      0  <0>0       -0.0813
     27  C14        7.1720   37.1750   55.5340 C.ar    0  <0>0        0.0025
     28  C13        8.1970   36.5000   56.1630 C.ar    0  <0>0        0.0201
@<TRIPOS>BOND
     1    27    25   ar
     2    27    28   ar
     3    25    23   ar
     4    28    21   ar
     5    23    26    1
     6    23    22   ar
     7    21    22   ar
     8    21     7    1
     9    22    24    1
    10     7     6    2
    11     6     5    1
    12     6     8    1
    13     9     5    1
    14     5     3   am
    15     8     2    1
    16     3     2    1
    17     3     4    2
    18     2     1    2
    19     1    10    1
    20    10    11   ar
    21    10    15   ar
    22    11    12   ar
    23    15    14   ar
    24    12    17    1
    25    12    13   ar
    26    14    13   ar
    27    14    16    1
    28    17    18    1
    29    13    19    1
    30    19    20    1

@<TRIPOS>MOLECULE
ZINC33812381_replica-1.pdb
 26 29 0 0 0
SMALL
GASTEIGER

@<TRIPOS>ATOM
      1  C5         0.3460   34.3340   58.9480 C.2     0  <0>0        0.0473
      2  C6         1.5100   34.7630   58.3780 C.2     0  <0>0        0.1845
      3  C7         1.6290   35.4080   57.1180 C.2     0  <0>0        0.2327
      4  O1         0.7300   35.6870   56.3400 O.2     0  <0>0       -0.2832
      5  C8         3.0690   35.6700   56.9520 C.ar    0  <0>0        0.0767
      6  C9         3.8270   36.2680   55.9460 C.ar    0  <0>0        0.0095
      7  C10        5.1840   36.3670   56.0840 C.ar    0  <0>0        0.0379
      8  C11        5.8090   35.8730   57.2250 C.ar    0  <0>0        0.1518
      9  C12        5.0700   35.2770   58.2330 C.ar    0  <0>0        0.0752
     10  C13        3.6910   35.1690   58.1080 C.ar    0  <0>0        0.1516
     11  O2         2.7450   34.6510   58.9210 O.3     0  <0>0       -0.4500
     12  O3         7.1580   35.9780   57.3520 O.3     0  <0>0       -0.4209
     13  C14        7.6190   36.8450   58.2750 C.2     0  <0>0        0.3457
     14  O4         7.1790   37.9760   58.3200 O.2     0  <0>0       -0.2445
     15  C15        8.6600   36.4190   59.2320 C.ar    0  <0>0        0.0761
     16  C20        9.4110   35.2670   58.9840 C.ar    0  <0>0        0.0070
     17  C19       10.3810   34.8750   59.8810 C.ar    0  <0>0        0.0069
     18  C18       10.6130   35.6190   61.0250 C.ar    0  <0>0        0.0346
     19  C17        9.8720   36.7610   61.2770 C.ar    0  <0>0        0.0069
     20 Br         11.9470   35.0730   62.2510 Br      0  <0>0       -0.0490
     21  C16        8.9010   37.1680   60.3850 C.ar    0  <0>0        0.0070
     22  C3         0.3690   33.7040   60.2110 C.ar    0  <0>0        0.0326
     23  C2        -0.0840   34.1810   61.4380 C.ar    0  <0>0        0.0071
     24  C1         0.0590   33.3480   62.5190 C.ar    0  <0>0        0.0075
     25  C4         0.6280   32.1250   62.3470 C.ar    0  <0>0        0.0354
     26  S1         0.9900   32.0900   60.6520 S.2     0  <0>0       -0.0863
@<TRIPOS>BOND
     1     6     7   ar
     2     6     5   ar
     3     7     8   ar
     4     4     3    2
     5     5     3    1
     6     5    10   ar
     7     3     2    1
     8     8    12    1
     9     8     9   ar
    10    12    13    1
    11    10     9   ar
    12    10    11    1
    13    13    14    2
    14    13    15    1
    15     2    11    1
    16     2     1    2
    17     1    22    1
    18    16    15   ar
    19    16    17   ar
    20    15    21   ar
    21    17    18   ar
    22    22    26   ar
    23    22    23   ar
    24    21    19   ar
    25    26    25   ar
    26    18    19   ar
    27    18    20    1
    28    23    24   ar
    29    25    24   ar

@<TRIPOS>MOLECULE
ZINC11115628_replica-1.pdb
 27 29 0 0 0
SMALL
GASTEIGER

@<TRIPOS>ATOM
      1  C10        0.8650   31.0770   55.9020 C.2     0  <0>0        0.2429
      2  O1         0.8730   30.4360   56.9310 O.2     0  <0>0       -0.2732
      3  N2         1.7540   32.0740   55.7220 N.am    0  <0>0       -0.2968
      4  H14        1.7480   32.5860   54.8990 H       0  <0>0        0.1500
      5  C11        2.7290   32.3840   56.7710 C.3     0  <0>0        0.1230
      6  C12        2.0870   33.2700   57.8070 C.ar    0  <0>0        0.0002
      7  C17        1.2530   34.3000   57.4150 C.ar    0  <0>0       -0.0023
      8  C16        0.6650   35.1130   58.3640 C.ar    0  <0>0       -0.0003
      9  C15        0.9100   34.8960   59.7080 C.ar    0  <0>0       -0.0000
     10  C14        1.7450   33.8660   60.1010 C.ar    0  <0>0       -0.0003
     11  C13        2.3290   33.0500   59.1500 C.ar    0  <0>0       -0.0023
     12  C18        3.9100   33.0940   56.1640 C.ar    0  <0>0        0.0292
     13  S1         5.6300   33.0210   56.6360 S.2     0  <0>0       -0.0888
     14  C21        6.2770   34.1420   55.4060 C.ar    0  <0>0        0.0352
     15  C20        5.1560   34.4950   54.7310 C.ar    0  <0>0        0.0072
     16  C19        3.9440   33.9540   55.1160 C.ar    0  <0>0        0.0046
     17  C9        -0.1370   30.7570   54.8220 C.3     0  <0>0        0.1736
     18  N1        -0.7880   29.4790   55.1220 N.pl3   0  <0>0       -0.3255
     19  H11       -1.2690   29.3650   55.9570 H       0  <0>0        0.1472
     20  C5        -0.7160   28.4270   54.2070 C.ar    0  <0>0        0.0409
     21  C4        -1.3090   28.5500   52.9570 C.ar    0  <0>0        0.0137
     22  C3        -1.2350   27.5070   52.0540 C.ar    0  <0>0       -0.0030
     23  C2        -0.5710   26.3430   52.3930 C.ar    0  <0>0       -0.0221
     24  C1        -0.4920   25.2080   51.4040 C.3     0  <0>0        0.0310
     25  C7         0.0200   26.2170   53.6360 C.ar    0  <0>0       -0.0073
     26  C6        -0.0460   27.2570   54.5430 C.ar    0  <0>0       -0.0090
     27  C8         0.6050   27.1220   55.8950 C.3     0  <0>0        0.0323
@<TRIPOS>BOND
     1    24    23    1
     2    22    23   ar
     3    22    21   ar
     4    23    25   ar
     5    21    20   ar
     6    25    26   ar
     7    20    26   ar
     8    20    18    1
     9    26    27    1
    10    15    16   ar
    11    15    14   ar
    12    17    18    1
    13    17     1    1
    14     4     3    1
    15    16    12   ar
    16    18    19    1
    17    14    13   ar
    18     3     1   am
    19     3     5    1
    20     1     2    2
    21    12    13   ar
    22    12     5    1
    23     5     6    1
    24     7     6   ar
    25     7     8   ar
    26     6    11   ar
    27     8     9   ar
    28    11    10   ar
    29     9    10   ar

@<TRIPOS>MOLECULE
ZINC02259382_replica-1.pdb
 26 28 0 0 0
SMALL
GASTEIGER

@<TRIPOS>ATOM
      1  C9         8.6360   35.8410   57.2560 C.2     0  <0>0        0.0142
      2  C10        7.3400   35.5570   56.9640 C.2     0  <0>0        0.0854
      3  C11        6.1910   35.3720   57.8710 C.2     0  <0>0        0.2633
      4  O3         6.3080   35.4660   59.0790 O.2     0  <0>0       -0.2687
      5  N1         5.0270   35.0990   57.3040 N.am    0  <0>0       -0.2223
      6  C12        4.9030   34.9910   55.9660 C.2     0  <0>0        0.1250
      7  S1         3.4980   34.6410   55.0540 S.2     0  <0>0       -0.0269
      8  S2         6.5590   35.3040   55.3760 S.3     0  <0>0       -0.0601
      9  C6         9.0210   36.1820   58.6300 C.ar    0  <0>0        0.0377
     10  C5         8.8730   37.4940   59.0980 C.ar    0  <0>0        0.0032
     11  C4         9.2370   37.8090   60.3890 C.ar    0  <0>0        0.0033
     12  C3         9.7480   36.8350   61.2300 C.ar    0  <0>0        0.0400
     13  C2         9.9010   35.5320   60.7830 C.ar    0  <0>0        0.1724
     14  C7         9.5340   35.1950   59.4850 C.ar    0  <0>0        0.1723
     15  O1        10.4040   34.5810   61.6150 O.3     0  <0>0       -0.4684
     16  C1        11.8200   34.5750   61.8120 C.3     0  <0>0        0.2526
     17  O2         9.6760   33.9180   59.0450 O.3     0  <0>0       -0.4684
     18  C8         8.6710   32.9810   59.4360 C.3     0  <0>0        0.2526
     19  C13        3.8980   34.9130   58.1150 C.ar    0  <0>0        0.0602
     20  C18        3.7100   33.7080   58.7790 C.ar    0  <0>0        0.0275
     21  C17        2.5960   33.5270   59.5770 C.ar    0  <0>0        0.0694
     22  C16        1.6690   34.5450   59.7130 C.ar    0  <0>0        0.0683
     23 Cl          2.3600   32.0210   60.4070 Cl      0  <0>0       -0.0813
     24  C15        1.8550   35.7470   59.0520 C.ar    0  <0>0        0.0135
     25 Cl          0.2750   34.3180   60.7220 Cl      0  <0>0       -0.0814
     26  C14        2.9660   35.9330   58.2540 C.ar    0  <0>0        0.0162
@<TRIPOS>BOND
     1     7     6    2
     2     8     6    1
     3     8     2    1
     4     6     5    1
     5     2     1    2
     6     2     3    1
     7     1     9    1
     8     5     3   am
     9     5    19    1
    10     3     4    2
    11    19    26   ar
    12    19    20   ar
    13    26    24   ar
    14     9    10   ar
    15     9    14   ar
    16    20    21   ar
    17    17    18    1
    18    17    14    1
    19    24    22   ar
    20    10    11   ar
    21    14    13   ar
    22    21    22   ar
    23    21    23    1
    24    22    25    1
    25    11    12   ar
    26    13    12   ar
    27    13    15    1
    28    15    16    1

@<TRIPOS>MOLECULE
ZINC33743198_replica-1.pdb
 32 35 0 0 0
SMALL
GASTEIGER

@<TRIPOS>ATOM
      1  C5         5.5600   36.4840   58.3440 C.ar    0  <0>0        0.0372
      2  C6         4.7120   35.7410   57.5880 C.ar    0  <0>0        0.0171
      3  C7         5.3180   35.6700   56.2470 C.ar    0  <0>0        0.0658
      4  C8         6.4800   36.3840   56.3180 C.ar    0  <0>0        0.0418
      5  N1         6.6180   36.8600   57.5720 N.ar    0  <0>0       -0.3297
      6  C17        7.4500   36.6010   55.1860 C.3     0  <0>0        0.0502
      7  C9         7.7440   37.6730   58.0360 C.3     0  <0>0        0.1322
      8  C10        8.7160   36.8020   58.7900 C.ar    0  <0>0        0.0036
      9  C15        9.2920   37.2630   59.9580 C.ar    0  <0>0        0.0378
     10  C14       10.1810   36.4620   60.6570 C.ar    0  <0>0        0.1762
     11  C13       10.4970   35.1930   60.1740 C.ar    0  <0>0        0.1764
     12  O1        10.8710   36.6720   61.8160 O.3     0  <0>0       -0.4346
     13  C12        9.9200   34.7400   58.9990 C.ar    0  <0>0        0.0399
     14  O2        11.3840   34.6090   61.0310 O.3     0  <0>0       -0.4346
     15  C11        9.0350   35.5450   58.3070 C.ar    0  <0>0        0.0009
     16  C16       11.2950   35.3660   62.2520 C.3     0  <0>0        0.4294
     17  C4         5.3660   36.8340   59.7970 C.3     0  <0>0        0.0438
     18  C3         6.2190   35.9050   60.6640 C.3     0  <0>0        0.0062
     19  C2         5.5200   34.5510   60.8000 C.3     0  <0>0        0.0004
     20  C1         6.4420   33.4470   60.2780 C.3     0  <0>0        0.0000
     21  C19        3.4340   35.1280   58.0240 C.ar    0  <0>0        0.0014
     22  C24        2.3200   35.9310   58.2650 C.ar    0  <0>0        0.0023
     23  C23        1.1330   35.3560   58.6710 C.ar    0  <0>0        0.0296
     24  C22        1.0470   33.9840   58.8380 C.ar    0  <0>0        0.1401
     25  C21        2.1520   33.1820   58.6000 C.ar    0  <0>0        0.0296
     26  F1        -0.1180   33.4260   59.2350 F       0  <0>0       -0.2042
     27  C20        3.3410   33.7470   58.1880 C.ar    0  <0>0        0.0023
     28  C18        4.7780   34.9750   55.0690 C.2     0  <0>0        0.2439
     29  O3         5.3160   33.9630   54.6590 O.2     0  <0>0       -0.2703
     30  N2         3.6860   35.4590   54.4420 N.am    0  <0>0       -0.3253
     31  H20        3.2820   34.9390   53.5600 H       0  <0>0        0.1453
     32  H21        3.2000   36.3730   54.8120 H       0  <0>0        0.1453
@<TRIPOS>BOND
     1    31    30    1
     2    30    32    1
     3    30    28   am
     4    29    28    2
     5    28     3    1
     6     6     4    1
     7     3     4   ar
     8     3     2   ar
     9     4     5   ar
    10     5     7    1
    11     5     1   ar
    12     2    21    1
    13     2     1   ar
    14    21    27   ar
    15    21    22   ar
    16     7     8    1
    17    27    25   ar
    18    22    23   ar
    19    15     8   ar
    20    15    13   ar
    21     1    17    1
    22    25    24   ar
    23    23    24   ar
    24     8     9   ar
    25    24    26    1
    26    13    11   ar
    27    17    18    1
    28     9    10   ar
    29    11    10   ar
    30    11    14    1
    31    20    19    1
    32    10    12    1
    33    18    19    1
    34    14    16    1
    35    12    16    1

@<TRIPOS>MOLECULE
ZINC39842485_replica-1.pdb
 32 36 0 0 0
SMALL
GASTEIGER

@<TRIPOS>ATOM
      1  C9        -0.3360   29.3720   56.9290 C.ar    0  <0>0        0.1028
      2  C10       -0.3910   30.5730   56.0850 C.ar    0  <0>0        0.0417
      3  C11       -0.5280   30.1260   54.7820 C.ar    0  <0>0        0.1020
      4  N1        -0.5570   28.7820   54.8100 N.ar    0  <0>0       -0.2282
      5  N2        -0.4340   28.3350   56.1280 N.ar    0  <0>0       -0.1651
      6  C18       -0.3140   31.9660   56.5330 C.2     0  <0>0        0.0439
      7  C19        0.8980   32.5560   56.7170 C.2     0  <0>0        0.1841
      8  O2         2.1020   31.9670   56.5250 O.3     0  <0>0       -0.4502
      9  C20        1.1150   33.8920   57.1520 C.2     0  <0>0        0.2327
     10  C26        3.1170   32.8170   56.7900 C.ar    0  <0>0        0.1486
     11  C21        2.5810   34.0490   57.1940 C.ar    0  <0>0        0.0774
     12  C25        4.4980   32.6670   56.7330 C.ar    0  <0>0        0.0385
     13  C22        3.4250   35.1060   57.5340 C.ar    0  <0>0        0.0177
     14  C23        4.7920   34.9360   57.4700 C.ar    0  <0>0        0.0580
     15  C24        5.3230   33.7180   57.0710 C.ar    0  <0>0        0.0145
     16 Cl          5.8490   36.2480   57.8900 Cl      0  <0>0       -0.0822
     17  O1         0.2720   34.7280   57.4290 O.2     0  <0>0       -0.2832
     18  C6        -0.1920   29.3370   58.4030 C.ar    0  <0>0        0.0194
     19  C5        -1.2800   28.9860   59.2030 C.ar    0  <0>0        0.0021
     20  C4        -1.1430   28.9540   60.5740 C.ar    0  <0>0        0.0062
     21  C3         0.0770   29.2710   61.1600 C.ar    0  <0>0        0.0252
     22  C8         1.1620   29.6260   60.3650 C.ar    0  <0>0        0.0062
     23  C7         1.0320   29.6550   58.9940 C.ar    0  <0>0        0.0021
     24  S1         0.2480   29.2290   62.9140 S.3     0  <0>0       -0.1137
     25  C2        -0.7200   30.6530   63.4840 C.3     0  <0>0        0.0622
     26  C1        -0.2350   31.9170   62.7720 C.3     0  <0>0        0.0129
     27  C12       -0.6870   27.9540   53.6870 C.ar    0  <0>0        0.0828
     28  C17       -0.1380   26.6790   53.6960 C.ar    0  <0>0        0.0191
     29  C16       -0.2730   25.8640   52.5890 C.ar    0  <0>0        0.0015
     30  C15       -0.9430   26.3210   51.4690 C.ar    0  <0>0        0.0001
     31  C14       -1.4860   27.5930   51.4560 C.ar    0  <0>0        0.0015
     32  C13       -1.3590   28.4110   52.5610 C.ar    0  <0>0        0.0191
@<TRIPOS>BOND
     1    31    30   ar
     2    31    32   ar
     3    30    29   ar
     4    32    27   ar
     5    29    28   ar
     6    27    28   ar
     7    27     4    1
     8     3     4   ar
     9     3     2   ar
    10     4     5   ar
    11     2     6    1
    12     2     1   ar
    13     5     1   ar
    14     8     7    1
    15     8    10    1
    16     6     7    2
    17     7     9    1
    18    12    10   ar
    19    12    15   ar
    20    10    11   ar
    21     1    18    1
    22    15    14   ar
    23     9    11    1
    24     9    17    2
    25    11    13   ar
    26    14    13   ar
    27    14    16    1
    28    18    23   ar
    29    18    19   ar
    30    23    22   ar
    31    19    20   ar
    32    22    21   ar
    33    20    21   ar
    34    21    24    1
    35    26    25    1
    36    24    25    1

@<TRIPOS>MOLECULE
ZINC02474946_replica-1.pdb
 27 30 0 0 0
SMALL
GASTEIGER

@<TRIPOS>ATOM
      1  C8         0.1850   29.5800   56.6020 C.ar    0  <0>0        0.1338
      2  C9         0.5570   30.8870   56.8180 C.ar    0  <0>0        0.0365
      3  C10        0.3960   31.1560   58.1670 C.ar    0  <0>0        0.0894
      4  N2        -0.0560   30.0600   58.7580 N.ar    0  <0>0       -0.1677
      5  N3        -0.1960   29.0590   57.7950 N.ar    0  <0>0       -0.2165
      6  C17        0.7540   32.5660   58.6340 C.3     0  <0>0        0.1050
      7  S1         0.8190   33.4850   57.0410 S.3     0  <0>0       -0.1288
      8  C18        1.0740   32.0290   55.9460 C.3     0  <0>0        0.0882
      9  N1         0.1970   28.9120   55.3780 N.am    0  <0>0       -0.2658
     10  C7        -0.9600   28.6820   54.7260 C.2     0  <0>0        0.2549
     11  O1        -2.0020   29.1340   55.1580 O.2     0  <0>0       -0.2696
     12  H4         1.0370   28.6130   54.9970 H       0  <0>0        0.1566
     13  C4        -0.9600   27.8820   53.4870 C.ar    0  <0>0        0.1085
     14  C3        -0.3620   26.6170   53.4660 C.ar    0  <0>0        0.1467
     15  C2        -0.3670   25.8740   52.3000 C.ar    0  <0>0        0.0299
     16  F2         0.2180   26.1230   54.5810 F       0  <0>0       -0.2039
     17  C1        -0.9590   26.3760   51.1570 C.ar    0  <0>0        0.0046
     18  C6        -1.5540   27.6250   51.1690 C.ar    0  <0>0        0.0299
     19  C5        -1.5630   28.3800   52.3260 C.ar    0  <0>0        0.1467
     20  F1        -2.1470   29.5980   52.3370 F       0  <0>0       -0.2039
     21  C11       -0.6490   27.7520   58.0200 C.ar    0  <0>0        0.0842
     22  C16       -1.9980   27.5130   58.2440 C.ar    0  <0>0        0.0201
     23  C15       -2.4420   26.2240   58.4650 C.ar    0  <0>0        0.0129
     24  C14       -1.5430   25.1720   58.4650 C.ar    0  <0>0        0.0578
     25  C13       -0.1970   25.4080   58.2420 C.ar    0  <0>0        0.0129
     26 Cl         -2.1030   23.5520   58.7430 Cl      0  <0>0       -0.0822
     27  C12        0.2510   26.6950   58.0150 C.ar    0  <0>0        0.0201
@<TRIPOS>BOND
     1    17    18   ar
     2    17    15   ar
     3    18    19   ar
     4    15    14   ar
     5    19    20    1
     6    19    13   ar
     7    14    13   ar
     8    14    16    1
     9    13    10    1
    10    10    11    2
    11    10     9   am
    12    12     9    1
    13     9     1    1
    14     8     2    1
    15     8     7    1
    16     1     2   ar
    17     1     5   ar
    18     2     3   ar
    19     7     6    1
    20     5    21    1
    21     5     4   ar
    22    27    21   ar
    23    27    25   ar
    24    21    22   ar
    25     3     6    1
    26     3     4   ar
    27    25    24   ar
    28    22    23   ar
    29    23    24   ar
    30    24    26    1

@<TRIPOS>MOLECULE
ZINC21467671_replica-1.pdb
 29 31 0 0 0
SMALL
GASTEIGER

@<TRIPOS>ATOM
      1  C12        1.8150   31.9510   57.9150 C.ar    0  <0>0        0.2042
      2  N1         1.0590   31.0480   58.4720 N.ar    0  <0>0       -0.1274
      3  N2         0.3620   30.4420   57.5780 N.ar    0  <0>0       -0.1207
      4  C13        0.6460   30.9240   56.3900 C.ar    0  <0>0        0.2094
      5  N3         1.5790   31.9040   56.5680 N.ar    0  <0>0       -0.2242
      6  C11        2.7730   32.8750   58.6220 C.3     0  <0>0        0.2719
      7  O1         2.7180   34.1690   58.0190 O.3     0  <0>0       -0.4672
      8  C8         3.8570   34.9090   58.0430 C.ar    0  <0>0        0.1392
      9  C7         4.4770   35.1930   59.2520 C.ar    0  <0>0        0.0366
     10  C6         5.6350   35.9460   59.2730 C.ar    0  <0>0       -0.0012
     11  C5         6.1770   36.4160   58.0920 C.ar    0  <0>0       -0.0226
     12  C10        5.5620   36.1350   56.8860 C.ar    0  <0>0       -0.0012
     13  C9         4.4070   35.3770   56.8590 C.ar    0  <0>0        0.0366
     14  C2         7.4410   37.2360   58.1180 C.3     0  <0>0        0.0189
     15  C1         7.3030   38.3550   59.1520 C.3     0  <0>0        0.0044
     16  C3         8.6230   36.3390   58.4920 C.3     0  <0>0        0.0044
     17  C4         7.6820   37.8470   56.7360 C.3     0  <0>0        0.0044
     18  N4         2.1570   32.6780   55.6020 N.pl3   0  <0>0       -0.2947
     19  H16        1.5560   33.4240   55.0610 H       0  <0>0        0.1627
     20  H17        3.2250   32.5550   55.3650 H       0  <0>0        0.1627
     21  S1        -0.0530   30.4090   54.8560 S.3     0  <0>0       -0.0693
     22  C14       -0.0340   28.6130   55.0890 C.3     0  <0>0        0.0936
     23  C15       -0.4570   27.9370   53.8120 C.ar    0  <0>0        0.0166
     24  C20       -0.0500   26.6410   53.5470 C.ar    0  <0>0        0.1370
     25  C19       -0.4390   26.0200   52.3710 C.ar    0  <0>0        0.0293
     26  F1         0.7320   25.9840   54.4310 F       0  <0>0       -0.2045
     27  C18       -1.2340   26.6950   51.4650 C.ar    0  <0>0        0.0023
     28  C17       -1.6400   27.9900   51.7310 C.ar    0  <0>0       -0.0002
     29  C16       -1.2530   28.6100   52.9030 C.ar    0  <0>0       -0.0012
@<TRIPOS>BOND
     1    27    28   ar
     2    27    25   ar
     3    28    29   ar
     4    25    24   ar
     5    29    23   ar
     6    24    23   ar
     7    24    26    1
     8    23    22    1
     9    21    22    1
    10    21     4    1
    11    19    18    1
    12    20    18    1
    13    18     5    1
    14     4     5   ar
    15     4     3   ar
    16     5     1   ar
    17    17    14    1
    18    13    12   ar
    19    13     8   ar
    20    12    11   ar
    21     3     2   ar
    22     1     2   ar
    23     1     6    1
    24     7     8    1
    25     7     6    1
    26     8     9   ar
    27    11    14    1
    28    11    10   ar
    29    14    16    1
    30    14    15    1
    31     9    10   ar

@<TRIPOS>MOLECULE
ZINC41510005_replica-1.pdb
 30 34 0 0 0
SMALL
GASTEIGER

@<TRIPOS>ATOM
      1  C10        1.4170   31.8300   61.2020 C.2     0  <0>0        0.0423
      2  C11        0.7380   31.0200   60.3420 C.2     0  <0>0        0.1841
      3  C12       -0.2610   30.0780   60.7030 C.2     0  <0>0        0.2327
      4  O1        -0.6780   29.8330   61.8230 O.2     0  <0>0       -0.2832
      5  C13       -0.6860   29.4610   59.4350 C.ar    0  <0>0        0.0767
      6  C14       -1.6210   28.4780   59.1100 C.ar    0  <0>0        0.0095
      7  C15       -1.7930   28.1070   57.8070 C.ar    0  <0>0        0.0372
      8  C16       -1.0390   28.7060   56.8010 C.ar    0  <0>0        0.1421
      9  C17       -0.1070   29.6830   57.1090 C.ar    0  <0>0        0.0745
     10  C18        0.0800   30.0720   58.4280 C.ar    0  <0>0        0.1516
     11  O2         0.8980   30.9840   58.9970 O.3     0  <0>0       -0.4500
     12  C3         2.4200   32.7610   60.6910 C.ar    0  <0>0        0.0217
     13  C2         3.7720   32.7500   60.9590 C.ar    0  <0>0        0.0760
     14  N1         4.3730   33.7720   60.3010 N.ar    0  <0>0       -0.3240
     15  C1         5.8070   34.0690   60.3510 C.3     0  <0>0        0.1305
     16  C5         3.4450   34.4970   59.5820 C.ar    0  <0>0        0.0600
     17  C4         2.1890   33.9030   59.7830 C.ar    0  <0>0        0.0173
     18  C6         3.5440   35.6170   58.7620 C.ar    0  <0>0        0.0172
     19  C9         1.0580   34.4310   59.1670 C.ar    0  <0>0        0.0015
     20  C8         1.1760   35.5460   58.3660 C.ar    0  <0>0        0.0001
     21  C7         2.4160   36.1330   58.1610 C.ar    0  <0>0        0.0015
     22  O3        -1.2190   28.3280   55.5100 O.3     0  <0>0       -0.4705
     23  C19       -0.0430   28.0690   54.7410 C.3     0  <0>0        0.2321
     24  C20       -0.4110   27.2740   53.5140 C.ar    0  <0>0        0.0234
     25  C25       -1.1340   27.8680   52.4970 C.ar    0  <0>0        0.0289
     26  C24       -1.4670   27.1390   51.3680 C.ar    0  <0>0        0.1399
     27  C23       -1.0840   25.8130   51.2640 C.ar    0  <0>0        0.0296
     28  F1        -2.1690   27.7210   50.3710 F       0  <0>0       -0.2042
     29  C22       -0.3650   25.2190   52.2840 C.ar    0  <0>0        0.0021
     30  C21       -0.0290   25.9490   53.4080 C.ar    0  <0>0       -0.0005
@<TRIPOS>BOND
     1    28    26    1
     2    27    26   ar
     3    27    29   ar
     4    26    25   ar
     5    29    30   ar
     6    25    24   ar
     7    30    24   ar
     8    24    23    1
     9    23    22    1
    10    22     8    1
    11     8     9   ar
    12     8     7   ar
    13     9    10   ar
    14     7     6   ar
    15    21    20   ar
    16    21    18   ar
    17    20    19   ar
    18    10    11    1
    19    10     5   ar
    20    18    16   ar
    21    11     2    1
    22     6     5   ar
    23    19    17   ar
    24     5     3    1
    25    16    17   ar
    26    16    14   ar
    27    17    12   ar
    28    14    15    1
    29    14    13   ar
    30     2     3    1
    31     2     1    2
    32    12    13   ar
    33    12     1    1
    34     3     4    2

@<TRIPOS>MOLECULE
ZINC05328232_replica-1.pdb
 24 26 0 0 0
SMALL
GASTEIGER

@<TRIPOS>ATOM
      1  C9         7.7640   37.7690   57.6480 C.2     0  <0>0        0.2845
      2  N1         6.6150   37.1430   57.6890 N.2     0  <0>0       -0.3648
      3  C10        6.4230   36.4880   56.5100 C.2     0  <0>0        0.1924
      4  C11        5.3370   35.7130   56.1530 C.3     0  <0>0        0.0953
      5  C18        7.6200   36.7760   55.6990 C.2     0  <0>0        0.3738
      6  O2         7.8620   36.3810   54.5730 O.2     0  <0>0       -0.2419
      7  O3         8.3900   37.5740   56.4690 O.3     0  <0>0       -0.3911
      8  C12        4.2900   35.4240   57.1320 C.ar    0  <0>0        0.0193
      9  C17        3.0080   35.9860   56.9860 C.ar    0  <0>0        0.1301
     10  C16        2.0240   35.7010   57.9180 C.ar    0  <0>0        0.0368
     11  C15        2.3030   34.8770   58.9920 C.ar    0  <0>0        0.0098
     12  C14        3.5660   34.3230   59.1450 C.ar    0  <0>0        0.0345
     13  C13        4.5580   34.5900   58.2260 C.ar    0  <0>0        0.0058
     14 Br          3.9270   33.1980   60.6200 Br      0  <0>0       -0.0490
     15  O1         2.7370   36.8000   55.9350 O.3     0  <0>0       -0.5058
     16  H12        2.2230   36.3760   55.2330 H       0  <0>0        0.2922
     17  C8         8.3010   38.5780   58.7410 C.2     0  <0>0        0.0721
     18  C7         8.8930   37.9810   59.7950 C.2     0  <0>0        0.0060
     19  C4         8.8340   36.5170   59.9390 C.ar    0  <0>0        0.0002
     20  C3         9.9150   35.7270   59.5320 C.ar    0  <0>0        0.0000
     21  C2         9.8520   34.3570   59.6700 C.ar    0  <0>0        0.0000
     22  C1         8.7250   33.7620   60.2090 C.ar    0  <0>0        0.0000
     23  C6         7.6520   34.5370   60.6150 C.ar    0  <0>0        0.0000
     24  C5         7.7010   35.9090   60.4880 C.ar    0  <0>0        0.0000
@<TRIPOS>BOND
     1     6     5    2
     2    16    15    1
     3     5     7    1
     4     5     3    1
     5    15     9    1
     6     4     3    1
     7     4     8    1
     8     7     1    1
     9     3     2    2
    10     9     8   ar
    11     9    10   ar
    12     8    13   ar
    13     1     2    2
    14     1    17    1
    15    10    11   ar
    16    13    12   ar
    17    17    18    2
    18    11    12   ar
    19    12    14    1
    20    20    21   ar
    21    20    19   ar
    22    21    22   ar
    23    18    19    1
    24    19    24   ar
    25    22    23   ar
    26    24    23   ar

@<TRIPOS>MOLECULE
ZINC41356405_replica-1.pdb
 25 27 0 0 0
SMALL
GASTEIGER

@<TRIPOS>ATOM
      1  C1         8.2020   32.7030   57.6340 C.3     0  <0>0        0.0375
      2  C2         7.9720   34.1850   57.4850 C.ar    0  <0>0        0.0474
      3  C3         7.1840   34.6620   56.4480 C.ar    0  <0>0        0.1474
      4  C4         6.9630   36.0270   56.2990 C.ar    0  <0>0        0.0376
      5  C5         7.5220   36.9140   57.1760 C.ar    0  <0>0        0.0095
      6  C6         8.3160   36.4480   58.2230 C.ar    0  <0>0        0.0764
      7  C7         8.5420   35.0710   58.3880 C.ar    0  <0>0        0.1474
      8  O1         9.3300   34.8650   59.4670 O.3     0  <0>0       -0.4504
      9  C8         9.6680   36.0260   60.0740 C.2     0  <0>0        0.1840
     10  C9        10.4460   36.1570   61.1770 C.2     0  <0>0        0.0408
     11  C16        9.0470   37.1220   59.3120 C.2     0  <0>0        0.2327
     12  O2         9.1110   38.3180   59.5400 O.2     0  <0>0       -0.2832
     13  C10       11.1200   34.9810   61.7450 C.ar    0  <0>0        0.0032
     14  C15       12.3580   35.1210   62.3830 C.ar    0  <0>0        0.0006
     15  C14       12.9820   34.0150   62.9190 C.ar    0  <0>0        0.0067
     16  C13       12.3920   32.7650   62.8170 C.ar    0  <0>0        0.0346
     17  C12       11.1690   32.6180   62.1820 C.ar    0  <0>0        0.0067
     18 Br         13.2600   31.2540   63.5490 Br      0  <0>0       -0.0490
     19  C11       10.5310   33.7150   61.6460 C.ar    0  <0>0        0.0006
     20  O3         6.6240   33.7880   55.5710 O.3     0  <0>0       -0.4235
     21  C17        5.3160   33.5180   55.7000 C.2     0  <0>0        0.3364
     22  O4         4.9370   32.7520   56.5540 O.2     0  <0>0       -0.2483
     23  C18        4.3180   34.1710   54.7760 C.3     0  <0>0        0.1786
     24  C19        5.0320   34.6390   53.5070 C.3     0  <0>0        0.0295
     25 Cl          3.5700   35.5870   55.6030 Cl      0  <0>0       -0.1030
@<TRIPOS>BOND
     1    24    23    1
     2    23    25    1
     3    23    21    1
     4    20    21    1
     5    20     3    1
     6    21    22    2
     7     4     3   ar
     8     4     5   ar
     9     3     2   ar
    10     5     6   ar
    11     2     1    1
    12     2     7   ar
    13     6     7   ar
    14     6    11    1
    15     7     8    1
    16    11    12    2
    17    11     9    1
    18     8     9    1
    19     9    10    2
    20    10    13    1
    21    19    13   ar
    22    19    17   ar
    23    13    14   ar
    24    17    16   ar
    25    14    15   ar
    26    16    15   ar
    27    16    18    1

@<TRIPOS>MOLECULE
ZINC03134626_replica-1.pdb
 27 29 0 0 0
SMALL
GASTEIGER

@<TRIPOS>ATOM
      1  C6         8.4320   33.3790   59.9770 C.ar    0  <0>0        0.0586
      2  C7         8.3160   32.7100   58.7410 C.ar    0  <0>0        0.1236
      3  N2         7.0700   32.7830   58.3560 N.ar    0  <0>0       -0.1620
      4  N3         6.3460   33.4940   59.3200 N.ar    0  <0>0       -0.2098
      5  C8         7.1960   33.8520   60.3070 C.ar    0  <0>0        0.1052
      6  C4         9.6740   33.5390   60.7730 C.ar    0  <0>0        0.0949
      7  N1        10.0780   32.5570   61.5670 N.ar    0  <0>0       -0.2429
      8  C3        11.1780   32.6580   62.2860 C.ar    0  <0>0        0.1027
      9  C2        11.9500   33.8030   62.2460 C.ar    0  <0>0        0.0914
     10  C1        11.5610   34.8590   61.4340 C.ar    0  <0>0        0.0183
     11  C5        10.4040   34.7250   60.6850 C.ar    0  <0>0        0.0753
     12 Cl          9.8700   36.0130   59.6510 Cl      0  <0>0       -0.0807
     13  C15       13.2010   33.9060   63.0790 C.3     0  <0>0        0.4200
     14  F4        14.2820   34.2470   62.2580 F       0  <0>0       -0.1658
     15  F5        13.0300   34.8900   64.0580 F       0  <0>0       -0.1658
     16  F6        13.4550   32.6760   63.6950 F       0  <0>0       -0.1658
     17  C9         4.9790   33.7840   59.2720 C.ar    0  <0>0        0.1743
     18  N4         4.1160   32.9810   59.8720 N.ar    0  <0>0       -0.2243
     19  C13        2.8190   33.2210   59.8550 C.ar    0  <0>0        0.1045
     20  C12        2.3110   34.3210   59.1940 C.ar    0  <0>0        0.0915
     21  C11        3.1810   35.1860   58.5450 C.ar    0  <0>0        0.0199
     22  C10        4.5380   34.9110   58.5860 C.ar    0  <0>0        0.0934
     23 Cl          5.6730   35.9570   57.7920 Cl      0  <0>0       -0.0791
     24  C14        0.8260   34.5810   59.1770 C.3     0  <0>0        0.4200
     25  F1         0.5420   35.5990   58.2580 F       0  <0>0       -0.1658
     26  F2         0.1530   33.4140   58.8010 F       0  <0>0       -0.1658
     27  F3         0.4070   34.9730   60.4520 F       0  <0>0       -0.1658
@<TRIPOS>BOND
     1    23    22    1
     2    25    24    1
     3     3     2   ar
     4     3     4   ar
     5    21    22   ar
     6    21    20   ar
     7    22    17   ar
     8     2     1   ar
     9    26    24    1
    10    24    20    1
    11    24    27    1
    12    20    19   ar
    13    17     4    1
    14    17    18   ar
    15     4     5   ar
    16    12    11    1
    17    19    18   ar
    18     1     5   ar
    19     1     6    1
    20    11     6   ar
    21    11    10   ar
    22     6     7   ar
    23    10     9   ar
    24     7     8   ar
    25     9     8   ar
    26     9    13    1
    27    14    13    1
    28    13    16    1
    29    13    15    1

@<TRIPOS>MOLECULE
ZINC29415634_replica-1.pdb
 26 28 0 0 0
SMALL
GASTEIGER

@<TRIPOS>ATOM
      1  C6         5.4530   34.8710   58.5510 C.ar    0  <0>0        0.1511
      2  N2         6.4610   34.8330   59.3840 N.ar    0  <0>0       -0.1551
      3  N3         7.7540   34.7600   58.9180 N.ar    0  <0>0       -0.2050
      4  C7         7.9500   34.7420   57.5510 C.ar    0  <0>0        0.1890
      5  N4         9.0680   34.6820   56.8710 N.2     0  <0>0       -0.2758
      6  S1         6.2660   34.8220   56.9620 S.2     0  <0>0       -0.0270
      7  H4         9.0460   34.6770   55.9010 H       0  <0>0        0.1889
      8  C8         8.8380   34.7130   59.8020 C.ar    0  <0>0        0.1059
      9  C13        9.2660   33.4930   60.3140 C.ar    0  <0>0        0.0761
     10  C12       10.3380   33.4500   61.1870 C.ar    0  <0>0        0.0168
     11 Cl          8.4570   32.0270   59.8590 Cl      0  <0>0       -0.0807
     12  C11       10.9840   34.6180   61.5480 C.ar    0  <0>0        0.0732
     13  C10       10.5610   35.8330   61.0410 C.ar    0  <0>0        0.0168
     14  C9         9.4940   35.8840   60.1640 C.ar    0  <0>0        0.0761
     15 Cl          8.9690   37.4080   59.5210 Cl      0  <0>0       -0.0807
     16  C14       12.1520   34.5670   62.4990 C.3     0  <0>0        0.4186
     17  F1        12.2450   35.7810   63.1890 F       0  <0>0       -0.1659
     18  F2        11.9650   33.5240   63.4120 F       0  <0>0       -0.1659
     19  F3        13.3320   34.3500   61.7780 F       0  <0>0       -0.1659
     20  C3         4.0060   34.9450   58.8490 C.ar    0  <0>0        0.1077
     21  N1         3.2510   35.8440   58.2280 N.ar    0  <0>0       -0.2417
     22  C2         1.9600   35.9460   58.4690 C.ar    0  <0>0        0.0998
     23  C1         1.3380   35.1100   59.3790 C.ar    0  <0>0        0.0321
     24  C5         2.0890   34.1520   60.0470 C.ar    0  <0>0        0.0608
     25  C4         3.4450   34.0660   59.7750 C.ar    0  <0>0        0.0327
     26 Cl          1.3450   33.0840   61.1960 Cl      0  <0>0       -0.0821
@<TRIPOS>BOND
     1     7     5    1
     2     5     4    2
     3     6     4   ar
     4     6     1   ar
     5     4     3   ar
     6    21    22   ar
     7    21    20   ar
     8    22    23   ar
     9     1    20    1
    10     1     2   ar
    11    20    25   ar
    12     3     2   ar
    13     3     8    1
    14    23    24   ar
    15    15    14    1
    16    25    24   ar
    17     8    14   ar
    18     8     9   ar
    19    11     9    1
    20    24    26    1
    21    14    13   ar
    22     9    10   ar
    23    13    12   ar
    24    10    12   ar
    25    12    16    1
    26    19    16    1
    27    16    17    1
    28    16    18    1

@<TRIPOS>MOLECULE
ZINC41652730_replica-1.pdb
 28 32 0 0 0
SMALL
GASTEIGER

@<TRIPOS>ATOM
      1  N1         3.1000   33.3200   59.5930 N.3     0  <0>0       -0.2269
      2  C6         4.4190   33.7600   59.1180 C.3     0  <0>0        0.1085
      3  C7         4.2500   34.6570   57.9200 C.ar    0  <0>0        0.0626
      4  C8         3.0630   34.6780   57.2080 C.ar    0  <0>0        0.1407
      5  C9         2.9180   35.5110   56.0980 C.ar    0  <0>0        0.0370
      6  C10        3.9480   36.3160   55.7030 C.ar    0  <0>0        0.0094
      7  C11        5.1490   36.3070   56.4130 C.ar    0  <0>0        0.0765
      8  C12        5.3080   35.4720   57.5300 C.ar    0  <0>0        0.1487
      9  O1         6.5440   35.6340   58.0480 O.3     0  <0>0       -0.4503
     10  C13        7.2680   36.5430   57.3510 C.2     0  <0>0        0.1840
     11  C14        8.5410   36.9270   57.6160 C.2     0  <0>0        0.0408
     12  C21        6.4210   37.0360   56.2540 C.2     0  <0>0        0.2327
     13  O2         6.7070   37.8610   55.4030 O.2     0  <0>0       -0.2832
     14  O3         2.0170   33.8930   57.5800 O.3     0  <0>0       -0.4583
     15  C22        2.3010   32.8080   58.4670 C.3     0  <0>0        0.2851
     16  C15        9.2240   36.4300   58.8190 C.ar    0  <0>0        0.0032
     17  C20        9.8020   35.1550   58.8220 C.ar    0  <0>0        0.0010
     18  C19       10.4460   34.6980   59.9520 C.ar    0  <0>0        0.0114
     19  C18       10.5130   35.4930   61.0850 C.ar    0  <0>0        0.0577
     20  C17        9.9380   36.7540   61.0910 C.ar    0  <0>0        0.0114
     21 Cl         11.3190   34.9050   62.5050 Cl      0  <0>0       -0.0822
     22  C16        9.2960   37.2270   59.9670 C.ar    0  <0>0        0.0010
     23  C5         3.2310   32.3060   60.6480 C.3     0  <0>0        0.1088
     24  C3         1.8850   32.0590   61.2790 C.ar    0  <0>0        0.0236
     25  C2         1.1030   32.9150   61.9830 C.ar    0  <0>0        0.0041
     26  C1        -0.1080   32.4660   62.4750 C.ar    0  <0>0        0.0072
     27  C4        -0.4790   31.1830   62.2380 C.ar    0  <0>0        0.0352
     28  S1         0.9060   30.5670   61.2960 S.2     0  <0>0       -0.0894
@<TRIPOS>BOND
     1    13    12    2
     2     6     5   ar
     3     6     7   ar
     4     5     4   ar
     5    12     7    1
     6    12    10    1
     7     7     8   ar
     8     4    14    1
     9     4     3   ar
    10    10    11    2
    11    10     9    1
    12     8     3   ar
    13     8     9    1
    14    14    15    1
    15    11    16    1
    16     3     2    1
    17    15     1    1
    18    16    17   ar
    19    16    22   ar
    20    17    18   ar
    21     2     1    1
    22     1    23    1
    23    18    19   ar
    24    22    20   ar
    25    23    24    1
    26    19    20   ar
    27    19    21    1
    28    24    28   ar
    29    24    25   ar
    30    28    27   ar
    31    25    26   ar
    32    27    26   ar

@<TRIPOS>MOLECULE
ZINC66979181_replica-1.pdb
 27 28 0 0 0
SMALL
GASTEIGER

@<TRIPOS>ATOM
      1  C8        -0.4090   31.8710   56.7470 C.3     0  <0>0        0.0689
      2  C9         0.5910   31.3110   55.7310 C.3     0  <0>0       -0.0032
      3  C10       -0.1160   31.1030   54.3890 C.3     0  <0>0       -0.0752
      4  N3        -1.2250   30.1570   54.5590 N.4     0  <0>0        0.3897
      5  C11       -2.2230   30.7180   55.4780 C.3     0  <0>0       -0.0752
      6  C12       -1.5970   30.9110   56.8610 C.3     0  <0>0       -0.0032
      7  H26       -0.8720   29.2900   54.9370 H       0  <0>0       -0.0792
      8  N2         0.2420   32.0010   58.0530 N.am    0  <0>0       -0.2905
      9  C7         0.8770   33.1450   58.3780 C.2     0  <0>0        0.3044
     10  N1         1.4760   33.2650   59.5790 N.am    0  <0>0       -0.2560
     11  O1         0.9090   34.0680   57.5880 O.2     0  <0>0       -0.2526
     12  H11        0.2170   31.2650   58.6840 H       0  <0>0        0.1509
     13  C3         1.4370   32.1520   60.5320 C.3     0  <0>0        0.1217
     14  C2         0.2200   32.2860   61.4110 C.2     0  <0>0       -0.0046
     15  C1         0.3380   32.7740   62.6220 C.2     0  <0>0       -0.0031
     16  C4         2.1660   34.5080   59.9340 C.3     0  <0>0        0.1217
     17  C5         3.6440   34.3510   59.6840 C.2     0  <0>0       -0.0046
     18  C6         4.2890   35.2490   58.9810 C.2     0  <0>0       -0.0031
     19  C13       -1.8520   29.9000   53.2550 C.3     0  <0>0       -0.0499
     20  C14       -1.4730   28.5210   52.7790 C.ar    0  <0>0       -0.0423
     21  C19       -0.7310   27.6890   53.5940 C.ar    0  <0>0        0.0059
     22  C18       -0.3870   26.4200   53.1590 C.ar    0  <0>0        0.0678
     23  C17       -0.7810   25.9910   51.9030 C.ar    0  <0>0        0.0682
     24 Cl          0.5390   25.3710   54.1850 Cl      0  <0>0       -0.0814
     25  C16       -1.5200   26.8280   51.0860 C.ar    0  <0>0        0.0119
     26 Cl         -0.3460   24.4020   51.3540 Cl      0  <0>0       -0.0814
     27  C15       -1.8650   28.0920   51.5250 C.ar    0  <0>0       -0.0054
@<TRIPOS>BOND
     1    25    27   ar
     2    25    23   ar
     3    26    23    1
     4    27    20   ar
     5    23    22   ar
     6    20    19    1
     7    20    21   ar
     8    22    21   ar
     9    22    24    1
    10    19     4    1
    11     3     4    1
    12     3     2    1
    13     4     7    1
    14     4     5    1
    15     5     6    1
    16     2     1    1
    17     1     6    1
    18     1     8    1
    19    11     9    2
    20     8     9   am
    21     8    12    1
    22     9    10   am
    23    18    17    2
    24    10    16    1
    25    10    13    1
    26    17    16    1
    27    13    14    1
    28    14    15    2

@<TRIPOS>MOLECULE
ZINC35560627_replica-1.pdb
 32 34 0 0 0
SMALL
GASTEIGER

@<TRIPOS>ATOM
      1  C11        7.4640   34.3300   60.0010 C.3     0  <0>0        0.0582
      2  C10        8.7250   33.8010   60.6330 C.ar    0  <0>0        0.0005
      3  C7         9.8080   34.5980   61.2160 C.ar    0  <0>0        0.0130
      4  C6        10.0270   35.9670   61.3750 C.ar    0  <0>0        0.0012
      5  C8        10.7660   33.6750   61.6750 C.ar    0  <0>0        0.0523
      6  C5        11.1730   36.4050   61.9790 C.ar    0  <0>0       -0.0002
      7  C4        12.1190   35.4990   62.4370 C.ar    0  <0>0       -0.0028
      8  C3        11.9210   34.1440   62.2920 C.ar    0  <0>0       -0.0066
      9  N1        10.2890   32.4170   61.3840 N.ar    0  <0>0       -0.3525
     10  H1        10.7460   31.5860   61.5910 H       0  <0>0        0.1660
     11  C9         9.0770   32.5110   60.7580 C.ar    0  <0>0        0.0684
     12  C2        12.9570   33.1700   62.7940 C.3     0  <0>0        0.0278
     13  C1        14.3520   33.7730   62.6160 C.3     0  <0>0        0.0051
     14  C12        6.4570   33.1880   59.8400 C.3     0  <0>0        0.0939
     15  C13        5.0760   33.7610   59.6560 C.2     0  <0>0        0.2231
     16  O1         4.4730   34.2120   60.6070 O.2     0  <0>0       -0.2751
     17  N2         4.5090   33.7730   58.4330 N.am    0  <0>0       -0.3043
     18  H14        4.9900   33.4110   57.6720 H       0  <0>0        0.1494
     19  C14        3.1650   34.3290   58.2530 C.3     0  <0>0        0.0893
     20  C15        3.2730   35.7560   57.7120 C.3     0  <0>0        0.0196
     21  C16        4.4110   35.8310   56.6930 C.3     0  <0>0        0.0017
     22  C17        1.9570   36.1470   57.0370 C.3     0  <0>0        0.0017
     23  C18        7.7860   34.9100   58.6470 C.ar    0  <0>0        0.0191
     24  C23        7.7530   36.2810   58.4550 C.ar    0  <0>0        0.1687
     25  C22        8.0560   36.8130   57.2060 C.ar    0  <0>0        0.1721
     26  C21        8.3800   35.9690   56.1560 C.ar    0  <0>0        0.0400
     27  C20        8.4050   34.6000   56.3530 C.ar    0  <0>0        0.0030
     28  C19        8.1100   34.0720   57.5960 C.ar    0  <0>0       -0.0007
     29  O2         7.4290   37.1050   59.4870 O.3     0  <0>0       -0.4687
     30  C24        6.0400   37.3670   59.6970 C.3     0  <0>0        0.2526
     31  O3         8.0310   38.1600   57.0140 O.3     0  <0>0       -0.4684
     32  C25        7.3050   38.6400   55.8810 C.3     0  <0>0        0.2526
@<TRIPOS>BOND
     1    32    31    1
     2    26    27   ar
     3    26    25   ar
     4    27    28   ar
     5    21    20    1
     6    31    25    1
     7    22    20    1
     8    25    24   ar
     9    28    23   ar
    10    18    17    1
    11    20    19    1
    12    19    17    1
    13    17    15   am
    14    24    23   ar
    15    24    29    1
    16    23     1    1
    17    29    30    1
    18    15    14    1
    19    15    16    2
    20    14     1    1
    21     1     2    1
    22     2    11   ar
    23     2     3   ar
    24    11     9   ar
    25     3     4   ar
    26     3     5   ar
    27     4     6   ar
    28     9    10    1
    29     9     5   ar
    30     5     8   ar
    31     6     7   ar
    32     8     7   ar
    33     8    12    1
    34    13    12    1

@<TRIPOS>MOLECULE
ZINC32127628_replica-1.pdb
 28 30 0 0 0
SMALL
GASTEIGER

@<TRIPOS>ATOM
      1  N2         1.1610   32.3660   55.8760 N.am    0  <0>0       -0.1884
      2  C8         2.3660   32.8080   56.3960 C.3     0  <0>0        0.2204
      3  N1         3.5070   32.1670   56.4900 N.pl3   0  <0>0       -0.3083
      4  C5         4.6140   32.7270   57.0260 C.ar    0  <0>0        0.0532
      5  H10        3.5410   31.1340   56.1110 H       0  <0>0        0.1491
      6  C4         4.4640   34.0550   57.4870 C.ar    0  <0>0        0.0445
      7  C6         5.8950   32.1480   57.1840 C.ar    0  <0>0        0.0293
      8  C3         5.4950   34.7650   58.0500 C.ar    0  <0>0        0.0453
      9  S1         2.7630   34.3970   57.1100 S.3     0  <0>0       -0.0713
     10  C2         6.7400   34.1690   58.1910 C.ar    0  <0>0        0.1497
     11  C7         6.9210   32.8600   57.7520 C.ar    0  <0>0        0.0928
     12 Cl          8.4760   32.1120   57.9280 Cl      0  <0>0       -0.0790
     13  O1         7.7720   34.8550   58.7510 O.3     0  <0>0       -0.4706
     14  C1         8.4710   35.7750   57.9100 C.3     0  <0>0        0.2525
     15  C9         0.6880   31.1490   56.2110 C.2     0  <0>0        0.1589
     16  S2         0.2680   30.8110   57.8360 S.2     0  <0>0       -0.0167
     17  N3         0.5460   30.1980   55.2670 N.am    0  <0>0       -0.2624
     18  C10        0.0730   28.9810   55.6020 C.2     0  <0>0        0.2508
     19  H6         0.8160   30.4150   54.2220 H       0  <0>0        0.1569
     20  O2        -0.2250   28.7410   56.7560 O.2     0  <0>0       -0.2698
     21  C11       -0.0820   27.9390   54.5670 C.ar    0  <0>0        0.0546
     22  C16       -0.7970   28.2120   53.3990 C.ar    0  <0>0        0.0168
     23  C15       -0.9390   27.2350   52.4360 C.ar    0  <0>0        0.0683
     24  C14       -0.3740   25.9830   52.6260 C.ar    0  <0>0        0.0682
     25 Cl         -1.8270   27.5720   50.9830 Cl      0  <0>0       -0.0814
     26  C13        0.3360   25.7070   53.7830 C.ar    0  <0>0        0.0124
     27 Cl         -0.5580   24.7570   51.4100 Cl      0  <0>0       -0.0814
     28  C12        0.4900   26.6770   54.7500 C.ar    0  <0>0        0.0054
@<TRIPOS>BOND
     1    25    23    1
     2    27    24    1
     3    23    24   ar
     4    23    22   ar
     5    24    26   ar
     6    22    21   ar
     7    26    28   ar
     8    19    17    1
     9    21    28   ar
    10    21    18    1
    11    17    18   am
    12    17    15    1
    13    18    20    2
    14     1    15    1
    15     1     2    1
    16     5     3    1
    17    15    16    2
    18     2     3    1
    19     2     9    1
    20     3     4    1
    21     4     7   ar
    22     4     6   ar
    23     9     6    1
    24     7    11   ar
    25     6     8   ar
    26    11    12    1
    27    11    10   ar
    28    14    13    1
    29     8    10   ar
    30    10    13    1

@<TRIPOS>MOLECULE
ZINC02196307_replica-1.pdb
 30 33 0 0 0
SMALL
GASTEIGER

@<TRIPOS>ATOM
      1  C8        -0.7830   30.1850   56.8700 C.ar    0  <0>0        0.0392
      2  C9        -0.3570   31.3830   57.4120 C.ar    0  <0>0        0.1019
      3  N2         0.4620   31.9700   56.5190 N.ar    0  <0>0       -0.2282
      4  N3         0.5720   31.1650   55.3820 N.ar    0  <0>0       -0.1651
      5  C10       -0.1570   30.0840   55.5460 C.ar    0  <0>0        0.1027
      6  C7        -1.6840   29.2100   57.4930 C.2     0  <0>0        0.0142
      7  C6        -1.1850   28.2520   58.3170 C.2     0  <0>0        0.0850
      8  C5        -1.8870   27.1800   59.0470 C.2     0  <0>0        0.2595
      9  S1         0.5030   27.9510   58.8220 S.3     0  <0>0       -0.0604
     10  N1        -1.1410   26.3790   59.7880 N.am    0  <0>0       -0.2458
     11  O1        -3.0940   27.0410   58.9710 O.2     0  <0>0       -0.2690
     12  C24        0.1960   26.5380   59.8700 C.2     0  <0>0        0.1212
     13  S2         1.3240   25.6140   60.7670 S.2     0  <0>0       -0.0272
     14  C3        -1.7810   25.2950   60.5370 C.3     0  <0>0        0.0811
     15  C4        -2.7620   25.8850   61.5510 C.3     0  <0>0        0.0219
     16  C2        -2.5350   24.3820   59.5680 C.3     0  <0>0        0.0202
     17  C1        -1.5480   23.4320   58.8880 C.3     0  <0>0        0.0018
     18  C11       -0.3180   28.9740   54.5780 C.ar    0  <0>0        0.0194
     19  C16       -1.1510   29.1260   53.4710 C.ar    0  <0>0        0.0012
     20  C15       -1.2960   28.0890   52.5720 C.ar    0  <0>0       -0.0042
     21  C14       -0.6160   26.9000   52.7680 C.ar    0  <0>0       -0.0218
     22  C13        0.2130   26.7440   53.8640 C.ar    0  <0>0       -0.0042
     23  C17       -0.7800   25.7720   51.7820 C.3     0  <0>0        0.0310
     24  C12        0.3700   27.7750   54.7660 C.ar    0  <0>0        0.0012
     25  C18        1.1020   33.2040   56.6990 C.ar    0  <0>0        0.0828
     26  C23        2.3990   33.3880   56.2390 C.ar    0  <0>0        0.0191
     27  C22        3.0270   34.6060   56.4180 C.ar    0  <0>0        0.0015
     28  C21        2.3650   35.6390   57.0560 C.ar    0  <0>0        0.0001
     29  C20        1.0740   35.4580   57.5150 C.ar    0  <0>0        0.0015
     30  C19        0.4380   34.2450   57.3350 C.ar    0  <0>0        0.0191
@<TRIPOS>BOND
     1    23    21    1
     2    20    21   ar
     3    20    19   ar
     4    21    22   ar
     5    19    18   ar
     6    22    24   ar
     7    18    24   ar
     8    18     5    1
     9     4     5   ar
    10     4     3   ar
    11     5     1   ar
    12    26    27   ar
    13    26    25   ar
    14    27    28   ar
    15     3    25    1
    16     3     2   ar
    17    25    30   ar
    18     1     2   ar
    19     1     6    1
    20    28    29   ar
    21    30    29   ar
    22     6     7    2
    23     7     9    1
    24     7     8    1
    25     9    12    1
    26    17    16    1
    27    11     8    2
    28     8    10   am
    29    16    14    1
    30    10    12    1
    31    10    14    1
    32    12    13    2
    33    14    15    1

@<TRIPOS>MOLECULE
ZINC11965781_replica-1.pdb
 30 33 0 0 0
SMALL
GASTEIGER

@<TRIPOS>ATOM
      1  C8        10.1490   35.1440   60.1140 C.ar    0  <0>0        0.0022
      2  C9         9.7840   34.6560   58.8590 C.ar    0  <0>0       -0.0010
      3  C10        9.0850   35.4580   57.9880 C.ar    0  <0>0        0.0177
      4  C11        8.7240   36.7530   58.3420 C.ar    0  <0>0        0.1618
      5  C12        9.0930   37.2410   59.5980 C.ar    0  <0>0        0.1735
      6  C13        9.7990   36.4440   60.4730 C.ar    0  <0>0        0.0328
      7  F2         8.7570   38.4990   59.9540 F       0  <0>0       -0.2010
      8  O1         8.0180   37.3570   57.3460 O.3     0  <0>0       -0.4751
      9  C14        8.2500   36.6600   56.1110 C.3     0  <0>0        0.1899
     10  C15        8.5630   35.2200   56.5830 C.3     0  <0>0        0.0748
     11  C16        6.9970   36.6820   55.2330 C.3     0  <0>0        0.1336
     12  N1         5.8070   36.7590   56.0830 N.am    0  <0>0       -0.3008
     13  C17        4.7370   35.9840   55.8170 C.2     0  <0>0        0.2294
     14  O2         4.7600   35.2220   54.8750 O.2     0  <0>0       -0.2747
     15  H14        5.7880   37.3690   56.8370 H       0  <0>0        0.1496
     16  C18        3.5120   36.0630   56.6910 C.3     0  <0>0        0.1401
     17  C19        3.7660   35.3250   57.9800 C.2     0  <0>0        0.1073
     18  N2         4.9370   35.3960   58.5790 N.2     0  <0>0       -0.4073
     19  C21        5.1710   34.7580   59.7010 C.2     0  <0>0        0.1344
     20  S1         3.6530   33.9680   59.9980 S.3     0  <0>0       -0.0795
     21  C22        6.4340   34.7200   60.5230 C.3     0  <0>0        0.0735
     22  C20        2.7910   34.5750   58.5550 C.3     0  <0>0        0.1189
     23  C5        10.9050   34.2850   61.0580 C.ar    0  <0>0        0.0023
     24  C4        10.3330   33.1120   61.5460 C.ar    0  <0>0       -0.0002
     25  C3        11.0420   32.3130   62.4210 C.ar    0  <0>0       -0.0020
     26  C2        12.3130   32.6800   62.8230 C.ar    0  <0>0        0.0056
     27  C1        13.0790   31.8070   63.7820 C.3     0  <0>0        0.0334
     28  C7        12.8850   33.8480   62.3460 C.ar    0  <0>0        0.1361
     29  C6        12.1860   34.6530   61.4650 C.ar    0  <0>0        0.0293
     30  F1        14.1270   34.2020   62.7420 F       0  <0>0       -0.2045
@<TRIPOS>BOND
     1    14    13    2
     2    11    12    1
     3    11     9    1
     4    13    12   am
     5    13    16    1
     6    12    15    1
     7     9    10    1
     8     9     8    1
     9    10     3    1
    10    16    17    1
    11     8     4    1
    12    17    22    1
    13    17    18    2
    14     3     4   ar
    15     3     2   ar
    16     4     5   ar
    17    22    20    1
    18    18    19    2
    19     2     1   ar
    20     5     7    1
    21     5     6   ar
    22    19    20    1
    23    19    21    1
    24     1     6   ar
    25     1    23    1
    26    23    29   ar
    27    23    24   ar
    28    29    28   ar
    29    24    25   ar
    30    28    30    1
    31    28    26   ar
    32    25    26   ar
    33    26    27    1

@<TRIPOS>MOLECULE
ZINC12725918_replica-1.pdb
 24 26 0 0 0
SMALL
GASTEIGER

@<TRIPOS>ATOM
      1  C7        10.9720   35.1060   61.2010 C.ar    0  <0>0        0.1767
      2  C8        10.3840   34.9650   59.9740 C.ar    0  <0>0        0.0619
      3  C9         9.6920   36.1790   59.7880 C.ar    0  <0>0        0.1444
      4  N1         9.9100   36.8980   60.8520 N.ar    0  <0>0       -0.0776
      5  O1        10.6160   36.3240   61.6480 O.2     0  <0>0       -0.3536
      6  C10        8.8620   36.5700   58.5920 C.3     0  <0>0        0.2576
      7  O2         7.4540   36.4200   58.9100 O.3     0  <0>0       -0.4386
      8  C11        6.7920   35.4160   58.3010 C.2     0  <0>0        0.3424
      9  O3         7.2710   34.3010   58.2760 O.2     0  <0>0       -0.2449
     10  C12        5.4850   35.6730   57.6640 C.ar    0  <0>0        0.0867
     11  C17        5.4250   36.1060   56.3360 C.ar    0  <0>0        0.0639
     12  C16        4.1990   36.3450   55.7470 C.ar    0  <0>0        0.0121
     13 Cl          6.8870   36.3460   55.4310 Cl      0  <0>0       -0.0820
     14  C15        3.0330   36.1560   56.4660 C.ar    0  <0>0        0.0076
     15  C14        3.0860   35.7260   57.7820 C.ar    0  <0>0        0.0348
     16  C13        4.3040   35.4790   58.3830 C.ar    0  <0>0        0.0140
     17 Br          1.4860   35.4700   58.7550 Br      0  <0>0       -0.0490
     18  C6        11.8290   34.1210   61.8940 C.ar    0  <0>0        0.0374
     19  C1        13.1840   34.3900   62.0950 C.ar    0  <0>0        0.0054
     20  C2        13.9780   33.4710   62.7470 C.ar    0  <0>0        0.0297
     21  C3        13.4360   32.2760   63.1920 C.ar    0  <0>0        0.1401
     22  C4        12.0920   32.0010   62.9920 C.ar    0  <0>0        0.0297
     23  F1        14.2190   31.3760   63.8260 F       0  <0>0       -0.2042
     24  C5        11.2880   32.9170   62.3450 C.ar    0  <0>0        0.0054
@<TRIPOS>BOND
     1    13    11    1
     2    12    11   ar
     3    12    14   ar
     4    11    10   ar
     5    14    15   ar
     6    10     8    1
     7    10    16   ar
     8    15    16   ar
     9    15    17    1
    10     9     8    2
    11     8     7    1
    12     6     7    1
    13     6     3    1
    14     3     2   ar
    15     3     4   ar
    16     2     1   ar
    17     4     5   ar
    18     1     5   ar
    19     1    18    1
    20    18    19   ar
    21    18    24   ar
    22    19    20   ar
    23    24    22   ar
    24    20    21   ar
    25    22    21   ar
    26    21    23    1

@<TRIPOS>MOLECULE
ZINC13690140_replica-1.pdb
 26 28 0 0 0
SMALL
GASTEIGER

@<TRIPOS>ATOM
      1  C8        11.2280   34.3810   61.6130 C.ar    0  <0>0        0.1449
      2  C9        10.1510   33.8320   60.9920 C.ar    0  <0>0        0.0403
      3  C10        9.3750   34.9020   60.5020 C.ar    0  <0>0        0.0375
      4  C11       10.0100   36.0400   60.8450 C.ar    0  <0>0        0.1388
      5  O3        11.1270   35.7210   61.5210 O.2     0  <0>0       -0.4564
      6  C12        9.5430   37.4360   60.5290 C.3     0  <0>0        0.1341
      7  N1         8.0920   37.5270   60.7400 N.3     0  <0>0       -0.2908
      8  H9         7.6790   36.5190   60.8880 H       0  <0>0        0.1237
      9  C13        7.4280   38.1440   59.5840 C.3     0  <0>0        0.0736
     10  C14        8.3150   37.9930   58.3460 C.3     0  <0>0        0.0434
     11  C15        7.5920   37.1760   57.3070 C.ar    0  <0>0       -0.0207
     12  C20        8.0850   37.1060   56.0170 C.ar    0  <0>0       -0.0034
     13  C19        7.4220   36.3560   55.0630 C.ar    0  <0>0        0.0111
     14  C18        6.2650   35.6760   55.4010 C.ar    0  <0>0        0.0577
     15  C17        5.7720   35.7470   56.6910 C.ar    0  <0>0        0.0111
     16 Cl          5.4310   34.7350   54.2040 Cl      0  <0>0       -0.0822
     17  C16        6.4380   36.4930   57.6450 C.ar    0  <0>0       -0.0034
     18  C3        12.3190   33.6380   62.2790 C.ar    0  <0>0        0.0348
     19  C2        13.5950   34.1990   62.3670 C.ar    0  <0>0        0.0030
     20  C1        14.6160   33.5060   62.9880 C.ar    0  <0>0        0.0003
     21  C6        14.3820   32.2580   63.5290 C.ar    0  <0>0        0.0066
     22  C5        13.1110   31.6830   63.4430 C.ar    0  <0>0        0.0799
     23  C4        12.0760   32.3770   62.8180 C.ar    0  <0>0        0.0096
     24  C7        12.8630   30.3440   64.0180 C.2     0  <0>0        0.3878
     25  O1        12.6880   29.3910   63.2870 O.co2   0  <0>0       -0.2406
     26  O2        12.8240   30.1840   65.3550 O.co2   0  <0>0       -0.2406
@<TRIPOS>BOND
     1    16    14    1
     2    13    14   ar
     3    13    12   ar
     4    14    15   ar
     5    12    11   ar
     6    15    17   ar
     7    11    17   ar
     8    11    10    1
     9    10     9    1
    10     9     7    1
    11     3     4   ar
    12     3     2   ar
    13     6     7    1
    14     6     4    1
    15     7     8    1
    16     4     5   ar
    17     2     1   ar
    18     5     1   ar
    19     1    18    1
    20    18    19   ar
    21    18    23   ar
    22    19    20   ar
    23    23    22   ar
    24    20    21   ar
    25    25    24   ar
    26    22    21   ar
    27    22    24    1
    28    24    26   ar

@<TRIPOS>MOLECULE
ZINC20878443_replica-1.pdb
 31 33 0 0 0
SMALL
GASTEIGER

@<TRIPOS>ATOM
      1  N2         1.5170   31.4710   56.2140 N.pl3   0  <0>0       -0.3265
      2  H15        2.3330   31.3470   55.4860 H       0  <0>0        0.1472
      3  C10        0.2080   31.1330   55.8610 C.ar    0  <0>0        0.0451
      4  C9        -0.8560   31.5710   56.6390 C.ar    0  <0>0        0.0143
      5  C8        -2.1540   31.2400   56.2940 C.ar    0  <0>0        0.0014
      6  C7        -2.4010   30.4770   55.1710 C.ar    0  <0>0        0.0046
      7  C6        -1.3370   30.0280   54.3860 C.ar    0  <0>0        0.0546
      8  C11       -0.0290   30.3610   54.7340 C.ar    0  <0>0        0.0188
      9  C5        -1.5990   29.2040   53.1850 C.2     0  <0>0        0.2459
     10  N1        -0.9370   28.0430   53.0070 N.am    0  <0>0       -0.3009
     11  H10       -0.1980   27.7120   53.7520 H       0  <0>0        0.1497
     12  O1        -2.4110   29.5730   52.3600 O.2     0  <0>0       -0.2701
     13  C4        -1.2010   27.2240   51.8210 C.3     0  <0>0        0.0896
     14  C2        -0.3010   25.9870   51.8460 C.3     0  <0>0        0.0196
     15  C1         0.1140   25.6890   53.2880 C.3     0  <0>0        0.0017
     16  C3        -1.0630   24.7890   51.2750 C.3     0  <0>0        0.0017
     17  C12        1.8040   31.9890   57.5540 C.3     0  <0>0        0.1528
     18  C13        2.3790   33.3760   57.4440 C.ar    0  <0>0        0.1426
     19  O2         3.5660   33.7740   57.9330 O.2     0  <0>0       -0.4561
     20  C16        3.7540   35.0760   57.6490 C.ar    0  <0>0        0.1449
     21  C15        2.6660   35.5220   56.9640 C.ar    0  <0>0        0.0403
     22  C14        1.7930   34.4240   56.8320 C.ar    0  <0>0        0.0378
     23  C17        4.9370   35.8820   58.0160 C.ar    0  <0>0        0.0356
     24  C22        5.9160   36.1640   57.0610 C.ar    0  <0>0        0.0175
     25  C21        7.0160   36.9230   57.4070 C.ar    0  <0>0        0.0916
     26  C20        7.1540   37.3960   58.7060 C.ar    0  <0>0        0.1492
     27 Cl          8.2300   37.2790   56.2200 Cl      0  <0>0       -0.0791
     28  C19        6.1850   37.1130   59.6590 C.ar    0  <0>0        0.0379
     29  C18        5.0810   36.3610   59.3200 C.ar    0  <0>0        0.0062
     30  O3         8.2410   38.1380   59.0440 O.3     0  <0>0       -0.4706
     31  C23        9.0610   37.6420   60.1040 C.3     0  <0>0        0.2525
@<TRIPOS>BOND
     1    16    14    1
     2    13    14    1
     3    13    10    1
     4    14    15    1
     5    12     9    2
     6    10     9   am
     7    10    11    1
     8     9     7    1
     9     7     8   ar
    10     7     6   ar
    11     8     3   ar
    12     6     5   ar
    13     2     1    1
    14     3     1    1
    15     3     4   ar
    16     1    17    1
    17    27    25    1
    18     5     4   ar
    19    22    21   ar
    20    22    18   ar
    21    21    20   ar
    22    24    25   ar
    23    24    23   ar
    24    25    26   ar
    25    18    17    1
    26    18    19   ar
    27    20    19   ar
    28    20    23    1
    29    23    29   ar
    30    26    30    1
    31    26    28   ar
    32    30    31    1
    33    29    28   ar

@<TRIPOS>MOLECULE
ZINC04032150_replica-1.pdb
 28 31 0 0 0
SMALL
GASTEIGER

@<TRIPOS>ATOM
      1  C7         8.7620   34.9440   59.8140 C.ar    0  <0>0        0.0091
      2  C8         9.8720   34.9550   60.7750 C.ar    0  <0>0        0.0167
      3  C9        10.4360   33.7550   61.2230 C.ar    0  <0>0        0.0128
      4  C10       11.4760   33.7850   62.1250 C.ar    0  <0>0        0.0578
      5  C11       11.9680   34.9990   62.5880 C.ar    0  <0>0        0.0129
      6  C12       11.4230   36.1880   62.1560 C.ar    0  <0>0        0.0179
      7  C13       10.3700   36.1830   61.2450 C.ar    0  <0>0        0.0589
      8  N1         9.8250   37.3740   60.8110 N.ar    0  <0>0       -0.3209
      9  H1        10.1850   38.2100   61.1480 H       0  <0>0        0.1689
     10  C14        8.8090   37.4090   59.9320 C.ar    0  <0>0        0.2607
     11  O1         8.3590   38.4820   59.5750 O.2     0  <0>0       -0.2671
     12  C15        8.2390   36.1730   59.3930 C.ar    0  <0>0        0.0948
     13 Cl         12.1770   32.2990   62.6840 Cl      0  <0>0       -0.0822
     14  C16        7.1300   36.2210   58.4270 C.2     0  <0>0        0.2003
     15  O2         7.3640   36.3630   57.2390 O.2     0  <0>0       -0.2864
     16  C17        5.7930   36.1030   58.8770 C.2     0  <0>0        0.0453
     17  C18        4.9390   35.2530   58.2530 C.2     0  <0>0        0.0408
     18  C19        3.6030   35.1360   58.7020 C.ar    0  <0>0        0.1456
     19  O3         3.1320   34.2100   59.5640 O.2     0  <0>0       -0.4504
     20  C22        1.8210   34.4090   59.7600 C.ar    0  <0>0        0.1796
     21  C21        1.4190   35.4660   59.0170 C.ar    0  <0>0        0.0438
     22  C20        2.5460   35.9430   58.3320 C.ar    0  <0>0        0.0407
     23  C4         8.2160   33.6730   59.3000 C.ar    0  <0>0        0.0003
     24  C3         7.2680   32.9640   60.0430 C.ar    0  <0>0        0.0000
     25  C2         6.7620   31.7770   59.5560 C.ar    0  <0>0        0.0000
     26  C1         7.1900   31.2880   58.3340 C.ar    0  <0>0        0.0000
     27  C6         8.1280   31.9850   57.5920 C.ar    0  <0>0        0.0000
     28  C5         8.6440   33.1730   58.0670 C.ar    0  <0>0        0.0000
@<TRIPOS>BOND
     1    15    14    2
     2    27    28   ar
     3    27    26   ar
     4    28    23   ar
     5    17    18    1
     6    17    16    2
     7    22    18   ar
     8    22    21   ar
     9    26    25   ar
    10    14    16    1
    11    14    12    1
    12    18    19   ar
    13    21    20   ar
    14    23     1    1
    15    23    24   ar
    16    12     1   ar
    17    12    10   ar
    18    25    24   ar
    19    19    20   ar
    20    11    10    2
    21     1     2   ar
    22    10     8   ar
    23     2     3   ar
    24     2     7   ar
    25     8     9    1
    26     8     7   ar
    27     3     4   ar
    28     7     6   ar
    29     4     5   ar
    30     4    13    1
    31     6     5   ar

@<TRIPOS>MOLECULE
ZINC19889313_replica-1.pdb
 25 28 0 0 0
SMALL
GASTEIGER

@<TRIPOS>ATOM
      1  C1         1.3420   35.9400   56.7040 C.3     0  <0>0        0.0310
      2  C2         2.6780   35.6490   57.3360 C.ar    0  <0>0       -0.0224
      3  C3         2.7500   34.9150   58.5060 C.ar    0  <0>0       -0.0073
      4  C4         3.9700   34.6550   59.0870 C.ar    0  <0>0       -0.0094
      5  C5         5.1520   35.1240   58.5110 C.ar    0  <0>0        0.0367
      6  C6         5.0660   35.8530   57.3220 C.ar    0  <0>0       -0.0099
      7  C7         3.8400   36.1140   56.7490 C.ar    0  <0>0       -0.0073
      8  C8         6.3280   36.3240   56.7100 C.3     0  <0>0        0.0254
      9  C9         6.4040   37.5500   55.8770 C.3     0  <0>0        0.0045
     10  C10        7.6020   38.0990   56.0420 C.3     0  <0>0        0.0004
     11  C11        8.4170   37.2810   57.0490 C.3     0  <0>0        0.0023
     12  C12        7.3080   36.6350   57.8850 C.3     0  <0>0        0.0262
     13  C13        7.5860   35.2860   58.5160 C.3     0  <0>0        0.0921
     14  N1         6.3450   34.8530   59.1780 N.pl3   0  <0>0       -0.3311
     15  C20        4.0300   33.8520   60.3620 C.3     0  <0>0        0.0323
     16  H13        6.3890   34.3430   60.1510 H       0  <0>0        0.1470
     17  C14        8.6920   35.4130   59.5320 C.ar    0  <0>0       -0.0045
     18  C19        8.5740   36.3160   60.5720 C.ar    0  <0>0       -0.0010
     19  C18        9.5880   36.4320   61.5050 C.ar    0  <0>0        0.0238
     20  C17       10.7200   35.6450   61.3970 C.ar    0  <0>0        0.1429
     21  C16       10.8370   34.7420   60.3580 C.ar    0  <0>0        0.0238
     22  C15        9.8230   34.6250   59.4250 C.ar    0  <0>0       -0.0010
     23  N2        11.8060   35.7690   62.3950 N.pl3   0  <0>0        0.0577
     24  O1        11.7760   36.6630   63.2210 O.2     0  <0>0       -0.1261
     25  O2        12.7290   34.9740   62.3910 O.2     0  <0>0       -0.1261
@<TRIPOS>BOND
     1     9    10    1
     2     9     8    1
     3    10    11    1
     4     1     2    1
     5     8     6    1
     6     8    12    1
     7     7     6   ar
     8     7     2   ar
     9    11    12    1
    10     6     5   ar
    11     2     3   ar
    12    12    13    1
    13     3     4   ar
    14     5     4   ar
    15     5    14    1
    16    13    14    1
    17    13    17    1
    18     4    15    1
    19    14    16    1
    20    22    17   ar
    21    22    21   ar
    22    17    18   ar
    23    21    20   ar
    24    18    19   ar
    25    20    19   ar
    26    20    23    1
    27    25    23    2
    28    23    24    2

@<TRIPOS>MOLECULE
ZINC41588585_replica-1.pdb
 31 35 0 0 0
SMALL
GASTEIGER

@<TRIPOS>ATOM
      1  C1         6.0090   32.9210   61.1210 C.3     0  <0>0        0.0374
      2  C2         5.6770   34.2100   60.4140 C.ar    0  <0>0        0.0465
      3  C3         4.4340   34.3720   59.8190 C.ar    0  <0>0        0.1366
      4  C4         4.1150   35.5580   59.1650 C.ar    0  <0>0        0.0280
      5  C5         5.0300   36.5740   59.1020 C.ar    0  <0>0        0.0064
      6  C6         6.2820   36.4230   59.6960 C.ar    0  <0>0        0.0762
      7  C7         6.6130   35.2340   60.3670 C.ar    0  <0>0        0.1474
      8  O1         7.8650   35.3260   60.8640 O.3     0  <0>0       -0.4504
      9  C8         8.4330   36.5220   60.5810 C.2     0  <0>0        0.1840
     10  C9         9.6860   36.9240   60.9400 C.2     0  <0>0        0.0408
     11  C18        7.4620   37.3020   59.8050 C.2     0  <0>0        0.2327
     12  O2         7.5940   38.4300   59.3620 O.2     0  <0>0       -0.2832
     13  C19        2.7660   35.7450   58.5210 C.3     0  <0>0        0.1051
     14  N1         2.1190   34.4370   58.3410 N.3     0  <0>0       -0.2313
     15  C20        2.1720   33.6690   59.5960 C.3     0  <0>0        0.2848
     16  O3         3.5350   33.3540   59.8820 O.3     0  <0>0       -0.4586
     17  C10       10.5190   36.0590   61.6760 C.2     0  <0>0        0.0032
     18  C11       11.0610   34.9700   61.0800 C.2     0  <0>0        0.0001
     19  C12       11.9310   34.0680   61.8490 C.ar    0  <0>0        0.0000
     20  C17       11.4070   32.9000   62.4160 C.ar    0  <0>0        0.0000
     21  C16       12.2310   32.0560   63.1300 C.ar    0  <0>0        0.0000
     22  C15       13.5690   32.3670   63.2980 C.ar    0  <0>0        0.0000
     23  C14       14.0930   33.5240   62.7460 C.ar    0  <0>0        0.0000
     24  C13       13.2850   34.3750   62.0230 C.ar    0  <0>0        0.0000
     25  C21        0.7350   34.5930   57.8760 C.3     0  <0>0        0.0810
     26  C22       -0.0870   33.3760   58.3050 C.3     0  <0>0        0.0504
     27  C23       -0.1410   32.3820   57.1740 C.ar    0  <0>0        0.0087
     28  S1         1.1430   31.9120   56.0260 S.2     0  <0>0       -0.0907
     29  C26        0.2110   30.7210   55.0770 C.ar    0  <0>0        0.0351
     30  C25       -1.0010   30.7650   55.6850 C.ar    0  <0>0        0.0072
     31  C24       -1.1810   31.6170   56.7590 C.ar    0  <0>0        0.0027
@<TRIPOS>BOND
     1    29    30   ar
     2    29    28   ar
     3    30    31   ar
     4    28    27   ar
     5    31    27   ar
     6    27    26    1
     7    25    26    1
     8    25    14    1
     9    14    13    1
    10    14    15    1
    11    13     4    1
    12     5     4   ar
    13     5     6   ar
    14     4     3   ar
    15    12    11    2
    16    15    16    1
    17     6    11    1
    18     6     7   ar
    19    11     9    1
    20     3    16    1
    21     3     2   ar
    22     7     2   ar
    23     7     8    1
    24     2     1    1
    25     9     8    1
    26     9    10    2
    27    10    17    1
    28    18    17    2
    29    18    19    1
    30    19    24   ar
    31    19    20   ar
    32    24    23   ar
    33    20    21   ar
    34    23    22   ar
    35    21    22   ar

@<TRIPOS>MOLECULE
ZINC05267961_replica-1.pdb
 26 29 0 0 0
SMALL
GASTEIGER

@<TRIPOS>ATOM
      1  C11        9.4730   36.1200   60.5610 C.2     0  <0>0        0.2172
      2  N2         9.4620   37.0980   59.6880 N.2     0  <0>0       -0.3799
      3  C12        8.5890   37.1440   58.6590 C.ar    0  <0>0        0.1403
      4  C13        8.4690   38.1340   57.6500 C.ar    0  <0>0        0.0353
      5  C14        7.5420   38.0560   56.6720 C.ar    0  <0>0        0.0352
      6  C15        6.6270   36.9780   56.5860 C.ar    0  <0>0        0.1383
      7  C16        6.7400   35.9870   57.5860 C.ar    0  <0>0        0.0696
      8  C17        7.6790   36.0670   58.5780 C.ar    0  <0>0        0.0711
      9  S1         8.1450   35.0760   59.9790 S.3     0  <0>0       -0.0368
     10  S2         5.4510   34.8540   57.1290 S.3     0  <0>0       -0.0566
     11  C18        4.8800   35.7080   55.7290 C.2     0  <0>0        0.1389
     12  N3         5.6530   36.7550   55.6810 N.2     0  <0>0       -0.3992
     13  C19        3.7590   35.3290   54.7950 C.3     0  <0>0        0.0739
     14  N1        10.3020   35.9410   61.6580 N.am    0  <0>0       -0.2539
     15  C10       11.3700   35.1230   61.5700 C.2     0  <0>0        0.2327
     16  O1        11.6050   34.5430   60.5310 O.2     0  <0>0       -0.2743
     17  H12       10.1140   36.4050   62.4880 H       0  <0>0        0.1577
     18  C9        12.2710   34.9280   62.7620 C.3     0  <0>0        0.1114
     19  C5        12.3840   33.4580   63.0710 C.ar    0  <0>0       -0.0170
     20  C4        11.2480   32.6710   63.1110 C.ar    0  <0>0       -0.0044
     21  C3        11.3500   31.3210   63.3930 C.ar    0  <0>0       -0.0046
     22  C2        12.5900   30.7590   63.6370 C.ar    0  <0>0       -0.0222
     23  C1        12.7030   29.2880   63.9450 C.3     0  <0>0        0.0310
     24  C7        13.7250   31.5460   63.5980 C.ar    0  <0>0       -0.0088
     25  C6        13.6230   32.8950   63.3090 C.ar    0  <0>0       -0.0256
     26  C8        14.8620   33.7510   63.2610 C.3     0  <0>0        0.0307
@<TRIPOS>BOND
     1    13    11    1
     2    12    11    2
     3    12     6    2
     4    11    10    1
     5     6     5   ar
     6     6     7   ar
     7     5     4   ar
     8    10     7    1
     9     7     8   ar
    10     4     3   ar
    11     8     3   ar
    12     8     9    1
    13     3     2    2
    14     2     1    2
    15     9     1    1
    16    16    15    2
    17     1    14    1
    18    15    14   am
    19    15    18    1
    20    14    17    1
    21    18    19    1
    22    19    20   ar
    23    19    25   ar
    24    20    21   ar
    25    26    25    1
    26    25    24   ar
    27    21    22   ar
    28    24    22   ar
    29    22    23    1

@<TRIPOS>MOLECULE
ZINC05932584_replica-1.pdb
 23 25 0 0 0
SMALL
GASTEIGER

@<TRIPOS>ATOM
      1  N1         5.2350   34.3270   57.5590 N.am    0  <0>0       -0.2223
      2  C8         6.4040   34.7490   58.0100 C.2     0  <0>0        0.2633
      3  O2         6.6990   34.6810   59.1880 O.2     0  <0>0       -0.2687
      4  C9         7.3350   35.3110   57.0080 C.2     0  <0>0        0.0853
      5  C10        8.5840   35.8140   57.1750 C.2     0  <0>0        0.0112
      6  S1         6.3640   35.1430   55.5170 S.3     0  <0>0       -0.0601
      7  C17        4.9150   34.4000   56.2520 C.2     0  <0>0        0.1250
      8  S2         3.4690   33.9020   55.4810 S.2     0  <0>0       -0.0269
      9  C6         4.3090   33.7840   58.4610 C.ar    0  <0>0        0.0624
     10  C5         4.4770   32.4900   58.9350 C.ar    0  <0>0        0.0155
     11  C4         3.5630   31.9540   59.8200 C.ar    0  <0>0        0.0044
     12  C3         2.4810   32.7040   60.2390 C.ar    0  <0>0        0.0370
     13  C2         2.3110   34.0000   59.7730 C.ar    0  <0>0        0.1400
     14  C7         3.2270   34.5420   58.8840 C.ar    0  <0>0        0.0521
     15  O1         1.2470   34.7370   60.1850 O.3     0  <0>0       -0.4714
     16  C1         0.2310   34.0540   60.9240 C.3     0  <0>0        0.2525
     17  C11        9.1190   36.0190   58.5280 C.ar    0  <0>0        0.0029
     18  C16        9.9480   35.0540   59.1090 C.ar    0  <0>0        0.0297
     19  C15       10.4470   35.2550   60.3820 C.ar    0  <0>0        0.1401
     20  C14       10.1290   36.4090   61.0790 C.ar    0  <0>0        0.0296
     21  F1        11.2480   34.3250   60.9470 F       0  <0>0       -0.2042
     22  C13        9.3100   37.3690   60.5090 C.ar    0  <0>0        0.0023
     23  C12        8.8070   37.1840   59.2380 C.ar    0  <0>0        0.0002
@<TRIPOS>BOND
     1     8     7    2
     2     6     7    1
     3     6     4    1
     4     7     1    1
     5     4     5    2
     6     4     2    1
     7     5    17    1
     8     1     2   am
     9     1     9    1
    10     2     3    2
    11     9    14   ar
    12     9    10   ar
    13    17    18   ar
    14    17    23   ar
    15    14    13   ar
    16    10    11   ar
    17    18    19   ar
    18    23    22   ar
    19    13    15    1
    20    13    12   ar
    21    11    12   ar
    22    15    16    1
    23    19    21    1
    24    19    20   ar
    25    22    20   ar

@<TRIPOS>MOLECULE
ZINC35682858_replica-1.pdb
 24 27 0 0 0
SMALL
GASTEIGER

@<TRIPOS>ATOM
      1  N1         5.0570   35.2840   58.2070 N.pl3   0  <0>0       -0.1893
      2  C8         5.8310   36.2690   58.7250 C.3     0  <0>0        0.1828
      3  C9         7.0260   36.2670   58.0730 C.2     0  <0>0        0.1159
      4  N2         6.9530   35.2910   57.1390 N.2     0  <0>0       -0.1470
      5  N3         5.8220   34.6890   57.1930 N.pl3   0  <0>0       -0.0439
      6  C10        8.0580   37.2690   58.5340 C.3     0  <0>0        0.1520
      7  C11        7.4050   38.4370   59.3100 C.3     0  <0>0        0.0961
      8  S1         5.8970   37.5800   59.9230 S.3     0  <0>0       -0.1106
      9  C6         3.7610   34.9280   58.6060 C.ar    0  <0>0        0.0655
     10  C5         2.6630   35.3780   57.8860 C.ar    0  <0>0       -0.0069
     11  C4         1.3870   35.0260   58.2810 C.ar    0  <0>0       -0.0033
     12  C18        2.8620   36.2520   56.6740 C.3     0  <0>0        0.0324
     13  C3         1.2030   34.2230   59.3930 C.ar    0  <0>0       -0.0045
     14  C2         2.2950   33.7720   60.1110 C.ar    0  <0>0       -0.0206
     15  C1         2.0900   32.8990   61.3220 C.3     0  <0>0        0.0311
     16  C7         3.5720   34.1260   59.7250 C.ar    0  <0>0        0.0117
     17  C12        9.0500   36.5750   59.4300 C.ar    0  <0>0        0.0077
     18  C17        9.4610   37.1790   60.6050 C.ar    0  <0>0       -0.0017
     19  C16       10.3680   36.5400   61.4300 C.ar    0  <0>0       -0.0002
     20  C15       10.8710   35.3030   61.0760 C.ar    0  <0>0       -0.0000
     21  C14       10.4650   34.7010   59.9000 C.ar    0  <0>0       -0.0002
     22  C13        9.5540   35.3370   59.0770 C.ar    0  <0>0       -0.0017
     23  O1         8.7450   37.7900   57.3950 O.3     0  <0>0       -0.3764
     24  H14        8.1640   38.1910   56.7340 H       0  <0>0        0.2112
@<TRIPOS>BOND
     1    12    10    1
     2    24    23    1
     3     4     5    1
     4     4     3    2
     5     5     1    1
     6    23     6    1
     7    10    11   ar
     8    10     9   ar
     9     3     6    1
    10     3     2    1
    11     1     9    1
    12     1     2    1
    13    11    13   ar
    14     6     7    1
    15     6    17    1
    16     9    16   ar
    17     2     8    1
    18    22    17   ar
    19    22    21   ar
    20     7     8    1
    21    13    14   ar
    22    17    18   ar
    23    16    14   ar
    24    21    20   ar
    25    14    15    1
    26    18    19   ar
    27    20    19   ar

@<TRIPOS>MOLECULE
ZINC02066153_replica-1.pdb
 31 33 0 0 0
SMALL
GASTEIGER

@<TRIPOS>ATOM
      1  C5         0.0090   31.8340   56.7760 C.2     0  <0>0        0.0892
      2  C6         0.2950   31.7410   55.4490 C.3     0  <0>0        0.1103
      3  C4         0.6100   32.8990   57.5820 C.2     0  <0>0        0.2559
      4  N1         0.2810   34.1850   57.3530 N.am    0  <0>0       -0.2961
      5  H6        -0.3550   34.4060   56.6550 H       0  <0>0        0.1501
      6  O1         1.4080   32.6210   58.4590 O.2     0  <0>0       -0.2691
      7  C3         0.8830   35.2510   58.1590 C.3     0  <0>0        0.1163
      8  C2         1.7000   36.1520   57.2710 C.2     0  <0>0       -0.0049
      9  C1         2.7330   35.6730   56.6240 C.2     0  <0>0       -0.0032
     10  N2        -0.8600   30.9120   57.3710 N.am    0  <0>0       -0.2798
     11  C17       -0.3940   29.7190   57.7900 C.2     0  <0>0        0.2494
     12  O3         0.7950   29.4770   57.7300 O.2     0  <0>0       -0.2698
     13  H14       -1.7990   31.1330   57.4810 H       0  <0>0        0.1550
     14  C18       -1.3290   28.7080   58.3260 C.ar    0  <0>0        0.0537
     15  C23       -1.3260   28.4050   59.6890 C.ar    0  <0>0        0.0045
     16  C22       -2.2010   27.4610   60.1840 C.ar    0  <0>0        0.0001
     17  C21       -3.0810   26.8140   59.3340 C.ar    0  <0>0        0.0000
     18  C20       -3.0890   27.1110   57.9820 C.ar    0  <0>0        0.0001
     19  C19       -2.2230   28.0570   57.4750 C.ar    0  <0>0        0.0045
     20  C7        -0.3660   30.7820   54.6480 C.ar    0  <0>0        0.1287
     21  O2         0.0660   29.5290   54.3930 O.2     0  <0>0       -0.4574
     22  C10       -0.8200   28.9060   53.5950 C.ar    0  <0>0        0.1448
     23  C9        -1.8470   29.7640   53.3250 C.ar    0  <0>0        0.0403
     24  C8        -1.5710   30.9590   53.9950 C.ar    0  <0>0        0.0365
     25  C11       -0.7020   27.5230   53.0930 C.ar    0  <0>0        0.0346
     26  C16       -0.0280   26.5580   53.8480 C.ar    0  <0>0        0.0039
     27  C15        0.0790   25.2670   53.3730 C.ar    0  <0>0        0.0115
     28  C14       -0.4800   24.9260   52.1540 C.ar    0  <0>0        0.0577
     29  C13       -1.1500   25.8770   51.4010 C.ar    0  <0>0        0.0115
     30 Cl         -0.3410   23.2990   51.5650 Cl      0  <0>0       -0.0822
     31  C12       -1.2680   27.1700   51.8660 C.ar    0  <0>0        0.0039
@<TRIPOS>BOND
     1    29    31   ar
     2    29    28   ar
     3    30    28    1
     4    31    25   ar
     5    28    27   ar
     6    25    22    1
     7    25    26   ar
     8    23    22   ar
     9    23    24   ar
    10    27    26   ar
    11    22    21   ar
    12    24    20   ar
    13    21    20   ar
    14    20     2    1
    15     2     1    1
    16     9     8    2
    17     5     4    1
    18     1    10    2
    19     1     3    1
    20     8     7    1
    21     4     3   am
    22     4     7    1
    23    10    13    1
    24    10    11   am
    25    19    18   ar
    26    19    14   ar
    27     3     6    2
    28    12    11    2
    29    11    14    1
    30    18    17   ar
    31    14    15   ar
    32    17    16   ar
    33    15    16   ar

@<TRIPOS>MOLECULE
ZINC02590168_replica-1.pdb
 31 34 0 0 0
SMALL
GASTEIGER

@<TRIPOS>ATOM
      1  C11        8.9900   35.5740   59.0840 C.2     0  <0>0        0.2855
      2  O2         7.9470   36.1930   59.1930 O.2     0  <0>0       -0.2664
      3  N1         9.2750   34.9290   57.9360 N.am    0  <0>0       -0.2599
      4  H6        10.2170   34.3700   57.8390 H       0  <0>0        0.1570
      5  C12        8.4060   34.9700   56.9070 C.2     0  <0>0        0.1590
      6  S1         8.4700   36.2600   55.7830 S.2     0  <0>0       -0.0167
      7  N2         7.4850   33.9950   56.7630 N.am    0  <0>0       -0.1884
      8  C13        6.1370   34.3010   56.8370 C.3     0  <0>0        0.2204
      9  S2         4.8470   33.9780   55.6440 S.3     0  <0>0       -0.0713
     10  C19        3.5060   34.6930   56.5640 C.ar    0  <0>0        0.0437
     11  C14        4.1530   35.1440   57.7370 C.ar    0  <0>0        0.0523
     12  C18        2.1600   34.8570   56.3500 C.ar    0  <0>0        0.0371
     13  N3         5.4820   34.9080   57.7990 N.pl3   0  <0>0       -0.3083
     14  C15        3.3340   35.7820   58.6960 C.ar    0  <0>0        0.0172
     15  H10        6.0160   35.2470   58.7000 H       0  <0>0        0.1491
     16  C16        1.9910   35.9420   58.4760 C.ar    0  <0>0        0.0309
     17  C17        1.3880   35.4870   57.3110 C.ar    0  <0>0        0.1407
     18  F1         0.0610   35.6570   57.1170 F       0  <0>0       -0.2042
     19  C10        9.9340   35.5310   60.2020 C.ar    0  <0>0        0.1987
     20  C9        10.1580   36.5420   61.1120 C.ar    0  <0>0        0.0454
     21  C8        11.1320   36.0760   62.0010 C.ar    0  <0>0        0.0408
     22  C7        11.4650   34.8120   61.6050 C.ar    0  <0>0        0.1464
     23  O1        10.7410   34.4950   60.5190 O.2     0  <0>0       -0.4489
     24  C3        12.4600   33.9380   62.2610 C.ar    0  <0>0        0.0460
     25  C2        13.7910   34.3470   62.3640 C.ar    0  <0>0        0.0039
     26  C1        14.7150   33.5270   62.9790 C.ar    0  <0>0        0.0010
     27  C6        14.3270   32.3020   63.4910 C.ar    0  <0>0        0.0122
     28  C5        13.0090   31.8890   63.3920 C.ar    0  <0>0        0.0683
     29  C4        12.0720   32.7010   62.7800 C.ar    0  <0>0        0.0711
     30 Cl         12.5330   30.3500   64.0380 Cl      0  <0>0       -0.0814
     31 Cl         10.4200   32.1820   62.6560 Cl      0  <0>0       -0.0813
@<TRIPOS>BOND
     1     9    10    1
     2     9     8    1
     3     6     5    2
     4    12    10   ar
     5    12    17   ar
     6    10    11   ar
     7     7     8    1
     8     7     5    1
     9     8    13    1
    10     5     3    1
    11    18    17    1
    12    17    16   ar
    13    11    13    1
    14    11    14   ar
    15    13    15    1
    16     4     3    1
    17     3     1   am
    18    16    14   ar
    19     1     2    2
    20     1    19    1
    21    19    23   ar
    22    19    20   ar
    23    23    22   ar
    24    20    21   ar
    25    22    21   ar
    26    22    24    1
    27    24    25   ar
    28    24    29   ar
    29    25    26   ar
    30    31    29    1
    31    29    28   ar
    32    26    27   ar
    33    28    27   ar
    34    28    30    1

@<TRIPOS>MOLECULE
ZINC12872068_replica-1.pdb
 25 28 0 0 0
SMALL
GASTEIGER

@<TRIPOS>ATOM
      1  C11        6.7590   35.7970   55.1590 C.2     0  <0>0        0.0039
      2  C12        5.4220   35.4450   55.2380 C.2     0  <0>0        0.0547
      3  C13        4.5470   35.4950   56.4300 C.ar    0  <0>0        0.0179
      4  C14        4.7540   35.8900   57.7480 C.ar    0  <0>0        0.0022
      5  C15        3.7130   35.8290   58.6520 C.ar    0  <0>0        0.0115
      6  C16        2.4650   35.3800   58.2460 C.ar    0  <0>0        0.0589
      7  C17        2.2490   34.9910   56.9380 C.ar    0  <0>0        0.0261
      8  C18        3.2860   35.0480   56.0130 C.ar    0  <0>0        0.0515
      9  N1         3.3400   34.7240   54.6640 N.am    0  <0>0       -0.2804
     10  C19        4.5670   34.9360   54.1580 C.2     0  <0>0        0.2495
     11  O3         4.9100   34.7420   53.0050 O.2     0  <0>0       -0.2698
     12 Cl          1.1630   35.3060   59.3910 Cl      0  <0>0       -0.0822
     13  H14        2.5880   34.3860   54.1510 H       0  <0>0        0.1552
     14  C9         7.4650   36.1330   56.3220 C.2     0  <0>0        0.0214
     15  C8         7.5760   37.5730   56.7520 C.3     0  <0>0        0.2320
     16  O2         7.6440   37.6650   58.1750 O.3     0  <0>0       -0.4705
     17  C6         8.5210   36.8510   58.8110 C.ar    0  <0>0        0.1420
     18  C5         8.7650   35.5650   58.2900 C.ar    0  <0>0        0.0340
     19  C7         9.1730   37.2560   59.9590 C.ar    0  <0>0        0.0738
     20  C4         9.6640   34.7090   58.9310 C.ar    0  <0>0        0.0061
     21  C10        8.0560   35.1570   57.0720 C.2     0  <0>0        0.0023
     22  C3        10.3050   35.1260   60.0630 C.ar    0  <0>0        0.0371
     23  C2        10.0680   36.3950   60.5820 C.ar    0  <0>0        0.1418
     24  O1        10.7130   36.7950   61.7080 O.3     0  <0>0       -0.4713
     25  C1        11.5870   35.8480   62.3250 C.3     0  <0>0        0.2525
@<TRIPOS>BOND
     1    11    10    2
     2    13     9    1
     3    10     9   am
     4    10     2    1
     5     9     8    1
     6     1     2    2
     7     1    14    1
     8     2     3    1
     9     8     3   ar
    10     8     7   ar
    11    14    15    1
    12    14    21    2
    13     3     4   ar
    14    15    16    1
    15     7     6   ar
    16    21    18    1
    17     4     5   ar
    18    16    17    1
    19     6     5   ar
    20     6    12    1
    21    18    17   ar
    22    18    20   ar
    23    17    19   ar
    24    20    22   ar
    25    19    23   ar
    26    22    23   ar
    27    23    24    1
    28    24    25    1

@<TRIPOS>MOLECULE
ZINC06471174_replica-1.pdb
 28 31 0 0 0
SMALL
GASTEIGER

@<TRIPOS>ATOM
      1  N1         4.4020   35.3070   58.3590 N.ar    0  <0>0       -0.2165
      2  C8         4.1960   33.9720   58.2480 C.ar    0  <0>0        0.1337
      3  C9         2.9350   33.7030   58.7310 C.ar    0  <0>0        0.0365
      4  C10        2.3740   34.9020   59.1390 C.ar    0  <0>0        0.0894
      5  N2         3.2550   35.8680   58.9230 N.ar    0  <0>0       -0.1677
      6  C11        0.9600   34.8370   59.7150 C.3     0  <0>0        0.1050
      7  S1         0.7740   33.0390   60.0550 S.3     0  <0>0       -0.1288
      8  C12        2.0790   32.4500   58.9000 C.3     0  <0>0        0.0882
      9  N3         5.0970   33.0400   57.7380 N.am    0  <0>0       -0.2660
     10  C13        5.7340   32.1930   58.5700 C.2     0  <0>0        0.2507
     11  O1         5.5750   32.2870   59.7730 O.2     0  <0>0       -0.2698
     12  H11        5.2670   33.0010   56.7840 H       0  <0>0        0.1566
     13  C14        6.6170   31.1580   58.0280 C.2     0  <0>0        0.0581
     14  C15        7.9470   31.3690   57.9710 C.2     0  <0>0        0.0047
     15  C16        8.5450   32.5010   58.6980 C.ar    0  <0>0        0.0001
     16  C21        8.8130   33.7010   58.0330 C.ar    0  <0>0        0.0000
     17  C20        9.3730   34.7560   58.7220 C.ar    0  <0>0        0.0000
     18  C19        9.6670   34.6310   60.0680 C.ar    0  <0>0        0.0000
     19  C18        9.4040   33.4470   60.7340 C.ar    0  <0>0        0.0000
     20  C17        8.8400   32.3840   60.0600 C.ar    0  <0>0        0.0000
     21  C6         5.5610   36.0000   57.9820 C.ar    0  <0>0        0.0835
     22  C5         6.0200   35.9270   56.6740 C.ar    0  <0>0        0.0149
     23  C4         7.1610   36.6100   56.3050 C.ar    0  <0>0       -0.0207
     24  C3         7.8440   37.3710   57.2360 C.ar    0  <0>0       -0.0084
     25  C22        7.6610   36.5320   54.8850 C.3     0  <0>0        0.0311
     26  C2         7.3930   37.4410   58.5410 C.ar    0  <0>0       -0.0207
     27  C1         8.1420   38.2680   59.5540 C.3     0  <0>0        0.0311
     28  C7         6.2510   36.7610   58.9160 C.ar    0  <0>0        0.0149
@<TRIPOS>BOND
     1    25    23    1
     2    23    22   ar
     3    23    24   ar
     4    22    21   ar
     5    12     9    1
     6    24    26   ar
     7     9     2    1
     8     9    10   am
     9    14    13    2
    10    14    15    1
    11    21     1    1
    12    21    28   ar
    13    13    10    1
    14    16    15   ar
    15    16    17   ar
    16     2     1   ar
    17     2     3   ar
    18     1     5   ar
    19    26    28   ar
    20    26    27    1
    21    10    11    2
    22    15    20   ar
    23    17    18   ar
    24     3     8    1
    25     3     4   ar
    26     8     7    1
    27     5     4   ar
    28     4     6    1
    29     6     7    1
    30    20    19   ar
    31    18    19   ar

@<TRIPOS>MOLECULE
ZINC63597777_replica-1.pdb
 27 30 0 0 0
SMALL
GASTEIGER

@<TRIPOS>ATOM
      1  N1         0.8200   31.8400   58.4480 N.am    0  <0>0       -0.2318
      2  C8         0.0290   30.9210   57.8530 C.2     0  <0>0        0.2085
      3  N2        -0.7640   30.9040   56.8120 N.2     0  <0>0       -0.3209
      4  C9        -1.7110   29.9760   56.6590 C.1     0  <0>0        0.1803
      5  N3        -1.9590   28.9900   57.5060 N.2     0  <0>0       -0.2631
      6  C10       -1.1510   28.7380   58.5400 C.1     0  <0>0        0.2090
      7  O1        -1.4000   27.8670   59.3510 O.2     0  <0>0       -0.2121
      8  C11        0.0870   29.5910   58.6430 C.3     0  <0>0        0.2396
      9  S1         0.1080   30.3610   60.3200 S.3     0  <0>0       -0.0660
     10  C12        0.9360   31.8670   59.8040 C.2     0  <0>0        0.1216
     11  S2         1.6880   33.0540   60.7820 S.2     0  <0>0       -0.0272
     12  S3        -2.7120   30.0720   55.2120 S.3     0  <0>0       -0.0126
     13  C13       -1.5140   30.2020   53.8570 C.3     0  <0>0        0.1006
     14  C14       -1.1910   28.8250   53.3380 C.ar    0  <0>0       -0.0106
     15  C19       -0.4590   27.9470   54.1150 C.ar    0  <0>0       -0.0076
     16  C18       -0.1660   26.6820   53.6410 C.ar    0  <0>0       -0.0221
     17  C17       -0.5970   26.2980   52.3850 C.ar    0  <0>0       -0.0043
     18  C20        0.6280   25.7230   54.4910 C.3     0  <0>0        0.0310
     19  C16       -1.3260   27.1770   51.6060 C.ar    0  <0>0       -0.0006
     20  C15       -1.6220   28.4400   52.0820 C.ar    0  <0>0       -0.0034
     21  C5         1.5250   32.7640   57.6670 C.ar    0  <0>0        0.0585
     22  C4         1.0000   34.0310   57.4460 C.ar    0  <0>0        0.0149
     23  C3         1.6970   34.9410   56.6760 C.ar    0  <0>0       -0.0030
     24  C2         2.9170   34.5920   56.1260 C.ar    0  <0>0       -0.0218
     25  C1         3.6750   35.5880   55.2850 C.3     0  <0>0        0.0310
     26  C7         3.4400   33.3300   56.3390 C.ar    0  <0>0       -0.0030
     27  C6         2.7500   32.4180   57.1130 C.ar    0  <0>0        0.0149
@<TRIPOS>BOND
     1    19    20   ar
     2    19    17   ar
     3    20    14   ar
     4    17    16   ar
     5    14    13    1
     6    14    15   ar
     7    16    15   ar
     8    16    18    1
     9    13    12    1
    10    12     4    1
    11    25    24    1
    12    24    26   ar
    13    24    23   ar
    14    26    27   ar
    15     4     3    2
    16     4     5    2
    17    23    22   ar
    18     3     2    2
    19    27    21   ar
    20    22    21   ar
    21     5     6    2
    22    21     1    1
    23     2     1    1
    24     2     8    1
    25     1    10    1
    26     6     8    1
    27     6     7    2
    28     8     9    1
    29    10     9    1
    30    10    11    2

@<TRIPOS>MOLECULE
ZINC11790339_replica-1.pdb
 31 35 0 0 0
SMALL
GASTEIGER

@<TRIPOS>ATOM
      1  C10       10.0530   35.1820   60.0260 C.ar    0  <0>0        0.0036
      2  C11        9.7280   34.7430   58.7430 C.ar    0  <0>0       -0.0010
      3  C12        9.0450   35.5750   57.8860 C.ar    0  <0>0        0.0177
      4  C13        8.6650   36.8520   58.2820 C.ar    0  <0>0        0.1618
      5  C14        8.9950   37.2900   59.5660 C.ar    0  <0>0        0.1735
      6  C15        9.6820   36.4640   60.4280 C.ar    0  <0>0        0.0328
      7  F1         8.6400   38.5310   59.9630 F       0  <0>0       -0.2010
      8  O1         7.9830   37.4920   57.2920 O.3     0  <0>0       -0.4751
      9  C16        8.2550   36.8460   56.0360 C.3     0  <0>0        0.1899
     10  C17        8.5650   35.3910   56.4590 C.3     0  <0>0        0.0748
     11  C18        7.0270   36.8960   55.1250 C.3     0  <0>0        0.1336
     12  N2         5.8140   36.9600   55.9420 N.am    0  <0>0       -0.3008
     13  C19        4.9890   35.8960   56.0120 C.2     0  <0>0        0.2270
     14  O2         5.2530   34.8850   55.3970 O.2     0  <0>0       -0.2747
     15  H14        5.6030   37.7690   56.4350 H       0  <0>0        0.1496
     16  C20        3.7410   35.9630   56.8530 C.3     0  <0>0        0.1118
     17  C21        3.9960   35.3010   58.1830 C.ar    0  <0>0       -0.0061
     18  C24        3.1840   34.3110   58.6260 C.ar    0  <0>0        0.0317
     19  S1         3.9220   33.9040   60.1990 S.2     0  <0>0       -0.0863
     20  C23        5.2630   35.0810   60.1610 C.ar    0  <0>0        0.0351
     21  C22        5.0660   35.6920   58.9670 C.ar    0  <0>0        0.0037
     22  C8        10.7900   34.2910   60.9560 C.ar    0  <0>0        0.0192
     23  C7        12.0990   34.5800   61.3110 C.ar    0  <0>0        0.0030
     24  C5        12.7490   33.7070   62.1990 C.ar    0  <0>0        0.0177
     25  C4        12.0540   32.5700   62.6830 C.ar    0  <0>0        0.0813
     26  C6        14.0740   33.9350   62.6070 C.ar    0  <0>0        0.0015
     27  C3        12.7090   31.6950   63.5670 C.ar    0  <0>0        0.0191
     28  N1        10.7930   32.3420   62.3000 N.ar    0  <0>0       -0.2438
     29  C2        13.9920   31.9470   63.9420 C.ar    0  <0>0        0.0015
     30  C1        14.6750   33.0650   63.4640 C.ar    0  <0>0        0.0001
     31  C9        10.1680   33.1460   61.4790 C.ar    0  <0>0        0.0988
@<TRIPOS>BOND
     1    11    12    1
     2    11     9    1
     3    14    13    2
     4    12    13   am
     5    12    15    1
     6    13    16    1
     7     9    10    1
     8     9     8    1
     9    10     3    1
    10    16    17    1
    11     8     4    1
    12     3     4   ar
    13     3     2   ar
    14    17    18   ar
    15    17    21   ar
    16     4     5   ar
    17    18    19   ar
    18     2     1   ar
    19    21    20   ar
    20     5     7    1
    21     5     6   ar
    22     1     6   ar
    23     1    22    1
    24    20    19   ar
    25    22    23   ar
    26    22    31   ar
    27    23    24   ar
    28    31    28   ar
    29    24    26   ar
    30    24    25   ar
    31    28    25   ar
    32    26    30   ar
    33    25    27   ar
    34    30    29   ar
    35    27    29   ar

@<TRIPOS>MOLECULE
ZINC16729827_replica-1.pdb
 30 33 0 0 0
SMALL
GASTEIGER

@<TRIPOS>ATOM
      1  C7        -0.8280   29.9160   56.8890 C.ar    0  <0>0        0.0392
      2  C8        -0.4420   31.1210   57.4440 C.ar    0  <0>0        0.1019
      3  N2         0.3700   31.7380   56.5640 N.ar    0  <0>0       -0.2282
      4  N3         0.5230   30.9420   55.4270 N.ar    0  <0>0       -0.1651
      5  C9        -0.1760   29.8380   55.5750 C.ar    0  <0>0        0.1028
      6  C6        -1.7070   28.9100   57.4940 C.2     0  <0>0        0.0142
      7  C5        -1.1920   27.9750   58.3340 C.2     0  <0>0        0.0850
      8  C4        -1.8720   26.8840   59.0560 C.2     0  <0>0        0.2595
      9  S1         0.4950   27.7340   58.8730 S.3     0  <0>0       -0.0604
     10  N1        -1.1130   26.1090   59.8130 N.am    0  <0>0       -0.2441
     11  O1        -3.0720   26.7030   58.9570 O.2     0  <0>0       -0.2690
     12  C23        0.2150   26.3170   59.9250 C.2     0  <0>0        0.1212
     13  S2         1.3550   25.4390   60.8510 S.2     0  <0>0       -0.0272
     14  C3        -1.7290   25.0040   60.5510 C.3     0  <0>0        0.0995
     15  C2        -1.6750   23.7320   59.7020 C.3     0  <0>0        0.0219
     16  C1        -3.0940   23.1990   59.4930 C.3     0  <0>0        0.0018
     17  C10       -0.2870   28.7270   54.6010 C.ar    0  <0>0        0.0216
     18  C15       -1.0900   28.8650   53.4710 C.ar    0  <0>0        0.0309
     19  C14       -1.1880   27.8250   52.5650 C.ar    0  <0>0        0.1362
     20  C13       -0.4880   26.6480   52.7800 C.ar    0  <0>0        0.0056
     21  F1        -1.9660   27.9560   51.4690 F       0  <0>0       -0.2045
     22  C12        0.3100   26.5090   53.9000 C.ar    0  <0>0       -0.0020
     23  C16       -0.5980   25.5180   51.7890 C.3     0  <0>0        0.0334
     24  C11        0.4190   27.5420   54.8080 C.ar    0  <0>0        0.0014
     25  C17        0.9700   32.9890   56.7610 C.ar    0  <0>0        0.0828
     26  C22        0.2910   33.9840   57.4530 C.ar    0  <0>0        0.0191
     27  C21        0.8850   35.2150   57.6460 C.ar    0  <0>0        0.0015
     28  C20        2.1540   35.4590   57.1510 C.ar    0  <0>0        0.0001
     29  C19        2.8310   34.4700   56.4620 C.ar    0  <0>0        0.0015
     30  C18        2.2460   33.2340   56.2700 C.ar    0  <0>0        0.0191
@<TRIPOS>BOND
     1    21    19    1
     2    23    20    1
     3    19    20   ar
     4    19    18   ar
     5    20    22   ar
     6    18    17   ar
     7    22    24   ar
     8    17    24   ar
     9    17     5    1
    10     4     5   ar
    11     4     3   ar
    12     5     1   ar
    13    30    29   ar
    14    30    25   ar
    15    29    28   ar
    16     3    25    1
    17     3     2   ar
    18    25    26   ar
    19     1     2   ar
    20     1     6    1
    21    28    27   ar
    22    26    27   ar
    23     6     7    2
    24     7     9    1
    25     7     8    1
    26     9    12    1
    27    11     8    2
    28     8    10   am
    29    16    15    1
    30    15    14    1
    31    10    12    1
    32    10    14    1
    33    12    13    2

@<TRIPOS>MOLECULE
ZINC58986709_replica-1.pdb
 25 27 0 0 0
SMALL
GASTEIGER

@<TRIPOS>ATOM
      1  C9        -0.7530   29.2510   57.8610 C.ar    0  <0>0        0.1609
      2  N1         0.2640   29.7530   57.1870 N.ar    0  <0>0       -0.1331
      3  N2         0.1990   29.8400   55.8160 N.ar    0  <0>0       -0.1249
      4  C10       -0.8790   29.4230   55.1820 C.ar    0  <0>0        0.1865
      5  S2        -1.8900   28.8590   56.5410 S.2     0  <0>0       -0.0242
      6  S1        -0.9370   29.0240   59.5990 S.3     0  <0>0       -0.0817
      7  C8         0.6280   29.6250   60.2890 C.3     0  <0>0        0.0934
      8  C7         0.4150   30.9790   60.9140 C.ar    0  <0>0        0.0232
      9  C2        -0.0460   31.0760   62.2230 C.ar    0  <0>0        0.1355
     10  C3        -0.2400   32.3230   62.8060 C.ar    0  <0>0        0.0367
     11  C4         0.0190   33.4620   62.0970 C.ar    0  <0>0        0.0064
     12  C5         0.4780   33.3770   60.7770 C.ar    0  <0>0        0.0421
     13  C6         0.6730   32.1210   60.1890 C.ar    0  <0>0        0.0029
     14  O1        -0.3050   29.9500   62.9330 O.3     0  <0>0       -0.4717
     15  C1        -1.5680   29.8770   63.5970 C.3     0  <0>0        0.2525
     16  C17        0.7560   34.5990   60.0120 C.2     0  <0>0        0.2341
     17  O2         0.5560   34.6240   58.8160 O.2     0  <0>0       -0.2831
     18  N3        -1.1530   29.4180   53.8180 N.pl3   0  <0>0       -0.2913
     19  H9        -1.4200   30.2390   53.3750 H       0  <0>0        0.1541
     20  C11       -1.0450   28.2320   53.0870 C.ar    0  <0>0        0.0498
     21  C16       -0.3080   27.1680   53.5920 C.ar    0  <0>0        0.0147
     22  C15       -0.2070   25.9960   52.8680 C.ar    0  <0>0        0.0013
     23  C14       -0.8310   25.8840   51.6390 C.ar    0  <0>0        0.0001
     24  C13       -1.5610   26.9430   51.1320 C.ar    0  <0>0        0.0013
     25  C12       -1.6700   28.1170   51.8520 C.ar    0  <0>0        0.0147
@<TRIPOS>BOND
     1    24    23   ar
     2    24    25   ar
     3    23    22   ar
     4    25    20   ar
     5    22    21   ar
     6    20    21   ar
     7    20    18    1
     8    19    18    1
     9    18     4    1
    10     4     3   ar
    11     4     5   ar
    12     3     2   ar
    13     5     1   ar
    14     2     1   ar
    15     1     6    1
    16    17    16    2
    17     6     7    1
    18    16    12    1
    19    13    12   ar
    20    13     8   ar
    21     7     8    1
    22    12    11   ar
    23     8     9   ar
    24    11    10   ar
    25     9    10   ar
    26     9    14    1
    27    14    15    1

@<TRIPOS>MOLECULE
ZINC63820531_replica-1.pdb
 30 33 0 0 0
SMALL
GASTEIGER

@<TRIPOS>ATOM
      1  C9        -0.0450   28.3100   54.6690 C.3     0  <0>0        0.0664
      2  C6        -1.0940   28.1900   55.7450 C.ar    0  <0>0        0.0016
      3  C5        -2.4570   28.8450   55.7610 C.ar    0  <0>0        0.0684
      4  N1        -3.0930   28.4180   57.0130 N.ar    0  <0>0       -0.3522
      5  C4        -2.2640   27.6330   57.6570 C.ar    0  <0>0        0.0563
      6  H22       -3.9800   28.6730   57.3130 H       0  <0>0        0.1660
      7  C3        -2.3750   26.9540   58.9010 C.ar    0  <0>0        0.0170
      8  C7        -1.0080   27.4740   56.8890 C.ar    0  <0>0        0.0134
      9  C2        -1.3600   26.1900   59.3550 C.ar    0  <0>0        0.0015
     10  C1        -0.1630   26.0230   58.6460 C.ar    0  <0>0        0.0001
     11  C8         0.0480   26.6250   57.4540 C.ar    0  <0>0        0.0012
     12  C10        0.1560   29.7850   54.3160 C.3     0  <0>0        0.0981
     13  N2         0.9890   30.4230   55.3370 N.am    0  <0>0       -0.3037
     14  C11        0.5120   31.4720   56.0360 C.2     0  <0>0        0.2228
     15  O1        -0.6050   31.8890   55.8180 O.2     0  <0>0       -0.2751
     16  H10        1.8830   30.0900   55.5120 H       0  <0>0        0.1495
     17  C12        1.3700   32.1290   57.0890 C.3     0  <0>0        0.0897
     18  C13        0.5510   33.1940   57.8210 C.3     0  <0>0        0.0364
     19  C14        0.5910   32.9260   59.3030 C.ar    0  <0>0       -0.0147
     20  C17        0.4920   33.9470   60.1900 C.ar    0  <0>0        0.0312
     21  S1         0.5900   33.0890   61.7530 S.2     0  <0>0       -0.0863
     22  C16        0.7660   31.4300   61.1190 C.ar    0  <0>0        0.0351
     23  C15        0.7340   31.6360   59.7790 C.ar    0  <0>0        0.0032
     24  C18       -0.4920   27.5550   53.4440 C.ar    0  <0>0       -0.0061
     25  C23       -0.1620   26.2200   53.2950 C.ar    0  <0>0        0.0540
     26  C22       -0.5780   25.5260   52.1730 C.ar    0  <0>0        0.0111
     27 Cl          0.7670   25.4130   54.5210 Cl      0  <0>0       -0.0826
     28  C21       -1.3120   26.1700   51.1950 C.ar    0  <0>0        0.0008
     29  C20       -1.6370   27.5060   51.3420 C.ar    0  <0>0       -0.0003
     30  C19       -1.2260   28.1980   52.4660 C.ar    0  <0>0       -0.0031
@<TRIPOS>BOND
     1    28    29   ar
     2    28    26   ar
     3    29    30   ar
     4    26    25   ar
     5    30    24   ar
     6    25    24   ar
     7    25    27    1
     8    24     1    1
     9    12     1    1
    10    12    13    1
    11     1     2    1
    12    13    16    1
    13    13    14   am
    14     2     3   ar
    15     2     8   ar
    16     3     4   ar
    17    15    14    2
    18    14    17    1
    19     8    11   ar
    20     8     5   ar
    21     4     6    1
    22     4     5   ar
    23    17    18    1
    24    11    10   ar
    25     5     7   ar
    26    18    19    1
    27    10     9   ar
    28     7     9   ar
    29    19    23   ar
    30    19    20   ar
    31    23    22   ar
    32    20    21   ar
    33    22    21   ar

@<TRIPOS>MOLECULE
ZINC39037771_replica-1.pdb
 28 31 0 0 0
SMALL
GASTEIGER

@<TRIPOS>ATOM
      1  C10        1.2850   32.0740   56.9010 C.2     0  <0>0        0.2398
      2  O2         0.7530   31.3730   57.7340 O.2     0  <0>0       -0.2737
      3  N1         0.9340   31.9670   55.6050 N.am    0  <0>0       -0.2537
      4  H14        1.3600   32.5280   54.9390 H       0  <0>0        0.1577
      5  C8         2.3420   33.0660   57.3160 C.3     0  <0>0        0.1474
      6  S1         4.0350   32.3970   57.0410 S.3     0  <0>0       -0.1038
      7  C6         4.8170   33.8790   56.4430 C.ar    0  <0>0        0.0259
      8  C5         3.7950   34.7790   56.1520 C.ar    0  <0>0       -0.0002
      9  C7         6.1490   34.2030   56.2640 C.ar    0  <0>0        0.0428
     10  C4         4.1680   36.0450   55.6960 C.ar    0  <0>0        0.0006
     11  C9         2.3860   34.2770   56.3570 C.3     0  <0>0        0.1215
     12  C3         5.4920   36.3810   55.5290 C.ar    0  <0>0        0.0366
     13  C2         6.4980   35.4670   55.8090 C.ar    0  <0>0        0.1392
     14 Cl          1.3810   35.6070   57.0440 Cl      0  <0>0       -0.1087
     15  O1         7.8030   35.8010   55.6350 O.3     0  <0>0       -0.4714
     16  C1         8.2540   37.0040   56.2610 C.3     0  <0>0        0.2525
     17  C11       -0.0410   31.0520   55.2230 C.2     0  <0>0        0.2130
     18  S2        -1.7880   31.0390   55.5990 S.3     0  <0>0       -0.0593
     19  C13       -2.1950   29.5410   54.7110 C.3     0  <0>0        0.1247
     20  C12       -0.9660   29.1940   54.2220 C.2     0  <0>0        0.1225
     21  N2         0.0800   29.9600   54.4920 N.2     0  <0>0       -0.3842
     22  C14       -0.8060   27.9710   53.3980 C.ar    0  <0>0        0.0265
     23  C19       -0.0840   26.8860   53.8910 C.ar    0  <0>0        0.0045
     24  C18        0.0580   25.7490   53.1230 C.ar    0  <0>0        0.0297
     25  C17       -0.5050   25.6890   51.8580 C.ar    0  <0>0        0.1401
     26  C16       -1.2190   26.7680   51.3620 C.ar    0  <0>0        0.0297
     27  F1        -0.3580   24.5760   51.1080 F       0  <0>0       -0.2042
     28  C15       -1.3710   27.9070   52.1250 C.ar    0  <0>0        0.0045
@<TRIPOS>BOND
     1    27    25    1
     2    26    25   ar
     3    26    28   ar
     4    25    24   ar
     5    28    22   ar
     6    24    23   ar
     7    22    23   ar
     8    22    20    1
     9    20    21    2
    10    20    19    1
    11    21    17    2
    12    19    18    1
    13     4     3    1
    14    17    18    1
    15    17     3    1
    16    12    10   ar
    17    12    13   ar
    18     3     1   am
    19    15    13    1
    20    15    16    1
    21    10     8   ar
    22    13     9   ar
    23     8    11    1
    24     8     7   ar
    25     9     7   ar
    26    11    14    1
    27    11     5    1
    28     7     6    1
    29     1     5    1
    30     1     2    2
    31     6     5    1

@<TRIPOS>MOLECULE
ZINC34907283_replica-1.pdb
 28 31 0 0 0
SMALL
GASTEIGER

@<TRIPOS>ATOM
      1  C3         1.0040   32.8520   59.2880 C.ar    0  <0>0        0.0634
      2  C4         0.3690   31.8440   58.6470 C.ar    0  <0>0        0.0509
      3  C5         1.2460   31.3280   57.6780 C.ar    0  <0>0        0.1557
      4  N1         2.3670   32.0070   57.7380 N.ar    0  <0>0       -0.1501
      5  N2         2.2400   32.9780   58.7400 N.ar    0  <0>0       -0.2303
      6  N3         0.9690   30.2730   56.8010 N.am    0  <0>0       -0.2640
      7  C12        0.2760   30.5010   55.6680 C.2     0  <0>0        0.2566
      8  O1        -0.1100   31.6260   55.4070 O.2     0  <0>0       -0.2692
      9  H10        1.2760   29.3760   57.0090 H       0  <0>0        0.1566
     10  C13       -0.0150   29.3940   54.7480 C.ar    0  <0>0        0.0831
     11  S1         0.5700   27.7090   54.8160 S.2     0  <0>0       -0.0824
     12  C20       -0.2510   27.0930   53.3670 C.ar    0  <0>0        0.0296
     13  C15       -0.9460   28.2240   52.8770 C.ar    0  <0>0        0.0066
     14  C19       -0.3040   25.8680   52.7380 C.ar    0  <0>0        0.0065
     15  C14       -0.7910   29.4000   53.6310 C.ar    0  <0>0        0.0115
     16  C16       -1.7060   28.0330   51.6940 C.ar    0  <0>0        0.0005
     17  C17       -1.7480   26.8200   51.0840 C.ar    0  <0>0        0.0000
     18  C18       -1.0560   25.7260   51.5900 C.ar    0  <0>0        0.0005
     19  C2         0.4380   33.6910   60.4040 C.3     0  <0>0        0.0460
     20  C1         0.6670   32.9830   61.7410 C.3     0  <0>0        0.0067
     21  C6         3.2170   33.9110   59.1130 C.ar    0  <0>0        0.1099
     22  C11        4.0820   33.6320   60.1650 C.ar    0  <0>0        0.1599
     23  C10        5.0490   34.5520   60.5270 C.ar    0  <0>0        0.0608
     24  F1         3.9810   32.4590   60.8300 F       0  <0>0       -0.2025
     25  C9         5.1480   35.7550   59.8500 C.ar    0  <0>0        0.1425
     26  C8         4.2840   36.0370   58.8050 C.ar    0  <0>0        0.0313
     27  F2         6.0880   36.6560   60.2080 F       0  <0>0       -0.2041
     28  C7         3.3200   35.1180   58.4360 C.ar    0  <0>0        0.0237
@<TRIPOS>BOND
     1    17    18   ar
     2    17    16   ar
     3    18    14   ar
     4    16    13   ar
     5    14    12   ar
     6    13    12   ar
     7    13    15   ar
     8    12    11   ar
     9    15    10   ar
    10    10    11   ar
    11    10     7    1
    12     8     7    2
    13     7     6   am
    14     6     9    1
    15     6     3    1
    16     3     4   ar
    17     3     2   ar
    18     4     5   ar
    19    28    26   ar
    20    28    21   ar
    21     2     1   ar
    22     5    21    1
    23     5     1   ar
    24    26    25   ar
    25    21    22   ar
    26     1    19    1
    27    25    27    1
    28    25    23   ar
    29    22    23   ar
    30    22    24    1
    31    19    20    1

@<TRIPOS>MOLECULE
ZINC56446037_replica-1.pdb
 26 27 0 0 0
SMALL
GASTEIGER

@<TRIPOS>ATOM
      1  C1         6.5860   35.1480   56.9770 C.3     0  <0>0        0.0213
      2  C2         5.7230   35.9450   57.9570 C.3     0  <0>0        0.0734
      3  C3         6.6140   36.8770   58.7820 C.3     0  <0>0        0.0243
      4  C4         8.0290   36.8750   58.2010 C.3     0  <0>0        0.0280
      5  C5         9.0070   36.4380   59.2620 C.ar    0  <0>0       -0.0219
      6  C10        9.2140   37.2290   60.3770 C.ar    0  <0>0       -0.0012
      7  C9        10.1050   36.8280   61.3530 C.ar    0  <0>0        0.0366
      8  C8        10.8000   35.6360   61.2100 C.ar    0  <0>0        0.1384
      9  C7        10.5940   34.8470   60.0870 C.ar    0  <0>0        0.0366
     10  C6         9.6980   35.2500   59.1160 C.ar    0  <0>0       -0.0012
     11  O1        11.6800   35.2420   62.1680 O.3     0  <0>0       -0.4792
     12  C11       12.3230   33.9800   61.9770 C.3     0  <0>0        0.1661
     13  C12       13.8340   34.1450   62.1580 C.3     0  <0>0        0.0472
     14  C13       11.7930   32.9780   63.0040 C.3     0  <0>0        0.0472
     15  N1         5.0210   35.0230   58.8520 N.am    0  <0>0       -0.2904
     16  C14        3.7530   34.6530   58.5800 C.2     0  <0>0        0.3043
     17  O2         3.1930   35.0850   57.5920 O.2     0  <0>0       -0.2526
     18  N2         3.1080   33.8040   59.4040 N.am    0  <0>0       -0.2552
     19  C15        3.7830   33.2820   60.5950 C.3     0  <0>0        0.1169
     20  H20        5.4680   34.6780   59.6410 H       0  <0>0        0.1509
     21  C16        1.7300   33.4010   59.1080 C.3     0  <0>0        0.1595
     22  C17        0.8830   33.5630   60.3450 C.ar    0  <0>0        0.1431
     23  O3         0.2790   34.6960   60.7400 O.2     0  <0>0       -0.4530
     24  C20       -0.3910   34.4710   61.8820 C.ar    0  <0>0        0.1792
     25  C19       -0.2110   33.1850   62.2340 C.ar    0  <0>0        0.0435
     26  C18        0.6100   32.6010   61.2430 C.ar    0  <0>0        0.0379
@<TRIPOS>BOND
     1     1     2    1
     2    17    16    2
     3     2     3    1
     4     2    15    1
     5     4     3    1
     6     4     5    1
     7    16    15   am
     8    16    18   am
     9    15    20    1
    10    21    18    1
    11    21    22    1
    12    10     5   ar
    13    10     9   ar
    14     5     6   ar
    15    18    19    1
    16     9     8   ar
    17    22    23   ar
    18    22    26   ar
    19     6     7   ar
    20    23    24   ar
    21     8     7   ar
    22     8    11    1
    23    26    25   ar
    24    24    25   ar
    25    12    13    1
    26    12    11    1
    27    12    14    1

@<TRIPOS>MOLECULE
ZINC08873304_replica-1.pdb
 29 32 0 0 0
SMALL
GASTEIGER

@<TRIPOS>ATOM
      1  N1         6.2660   35.4080   58.4410 N.am    0  <0>0       -0.2227
      2  C9         5.2500   35.0210   59.1940 C.2     0  <0>0        0.2633
      3  O1         5.2710   35.1440   60.4050 O.2     0  <0>0       -0.2687
      4  C10        4.0940   34.4350   58.4960 C.2     0  <0>0        0.0854
      5  C11        2.9280   33.9560   59.0030 C.2     0  <0>0        0.0147
      6  S1         4.6490   34.5170   56.7980 S.3     0  <0>0       -0.0601
      7  C22        6.2400   35.2720   57.0990 C.2     0  <0>0        0.1250
      8  S2         7.4430   35.7070   55.9620 S.2     0  <0>0       -0.0269
      9  C12        1.9050   33.4110   58.1020 C.ar    0  <0>0        0.0444
     10  C14        1.6520   32.0720   57.8580 C.ar    0  <0>0        0.1409
     11  N3         0.6410   32.0110   56.9670 N.ar    0  <0>0       -0.2193
     12 Cl          2.4880   30.7220   58.5600 Cl      0  <0>0       -0.0612
     13  N2         0.2460   33.3160   56.6550 N.ar    0  <0>0       -0.1687
     14  C13        0.9900   34.1560   57.3190 C.ar    0  <0>0        0.0816
     15  C21        0.8920   35.6590   57.2640 C.3     0  <0>0        0.0540
     16  C15        0.0790   30.8370   56.4450 C.ar    0  <0>0        0.0837
     17  C20       -0.7440   30.0480   57.2400 C.ar    0  <0>0        0.0192
     18  C19       -1.2970   28.8930   56.7230 C.ar    0  <0>0        0.0015
     19  C18       -1.0320   28.5210   55.4180 C.ar    0  <0>0        0.0001
     20  C17       -0.2130   29.3040   54.6250 C.ar    0  <0>0        0.0015
     21  C16        0.3390   30.4640   55.1340 C.ar    0  <0>0        0.0192
     22  C6         7.3940   35.9730   59.0500 C.ar    0  <0>0        0.0550
     23  C5         7.4560   37.3430   59.2650 C.ar    0  <0>0        0.0149
     24  C4         8.5690   37.8970   59.8650 C.ar    0  <0>0        0.0009
     25  C3         9.6230   37.0900   60.2510 C.ar    0  <0>0       -0.0045
     26  C2         9.5660   35.7240   60.0360 C.ar    0  <0>0       -0.0246
     27  C1        10.7170   34.8470   60.4580 C.3     0  <0>0        0.0307
     28  C7         8.4520   35.1630   59.4430 C.ar    0  <0>0       -0.0117
     29  C8         8.3880   33.6760   59.2160 C.3     0  <0>0        0.0320
@<TRIPOS>BOND
     1    20    21   ar
     2    20    19   ar
     3    21    16   ar
     4    19    18   ar
     5     8     7    2
     6    16    11    1
     7    16    17   ar
     8    13    11   ar
     9    13    14   ar
    10    18    17   ar
    11     6     7    1
    12     6     4    1
    13    11    10   ar
    14     7     1    1
    15    15    14    1
    16    14     9   ar
    17    10     9   ar
    18    10    12    1
    19     9     5    1
    20     1    22    1
    21     1     2   am
    22     4     5    2
    23     4     2    1
    24    22    23   ar
    25    22    28   ar
    26     2     3    2
    27    29    28    1
    28    23    24   ar
    29    28    26   ar
    30    24    25   ar
    31    26    25   ar
    32    26    27    1

@<TRIPOS>MOLECULE
ZINC09590915_replica-1.pdb
 25 28 0 0 0
SMALL
GASTEIGER

@<TRIPOS>ATOM
      1  C9         9.3120   36.4210   60.5010 C.2     0  <0>0        0.1671
      2  N1         8.1120   36.5100   61.1310 N.am    0  <0>0       -0.2621
      3  H1         8.0880   36.6910   62.0840 H       0  <0>0        0.1569
      4  C10        6.9550   36.3540   60.4600 C.2     0  <0>0        0.2383
      5  O2         5.8870   36.4390   61.0400 O.2     0  <0>0       -0.2739
      6  C11        7.0030   36.0880   59.0520 C.3     0  <0>0        0.1537
      7  C12        5.8800   35.8860   58.1310 C.2     0  <0>0       -0.0268
      8  C13        6.1920   35.6440   56.8420 C.2     0  <0>0        0.0023
      9  S1         7.9650   35.6820   56.7780 S.3     0  <0>0       -0.0640
     10  C14        8.2860   36.0140   58.4910 C.2     0  <0>0        0.1514
     11  N2         9.3860   36.1850   59.2180 N.2     0  <0>0       -0.3881
     12  C15        5.2550   35.3840   55.7040 C.3     0  <0>0        0.0324
     13  C16        4.1580   36.4570   55.6960 C.3     0  <0>0        0.0052
     14  C17        3.0030   35.9700   56.5640 C.3     0  <0>0        0.0007
     15  C18        3.5370   35.1250   57.7200 C.3     0  <0>0        0.0044
     16  C19        4.4370   35.9610   58.6210 C.3     0  <0>0        0.0231
     17  C8        10.5800   36.6020   61.2940 C.3     0  <0>0        0.1012
     18  C5        11.0650   35.2610   61.7800 C.ar    0  <0>0       -0.0136
     19  C4        12.1830   35.1830   62.5900 C.ar    0  <0>0       -0.0007
     20  C3        12.6320   33.9550   63.0370 C.ar    0  <0>0        0.0366
     21  C2        11.9590   32.7990   62.6710 C.ar    0  <0>0        0.1387
     22  C7        10.8400   32.8780   61.8530 C.ar    0  <0>0        0.0366
     23  C6        10.3930   34.1090   61.4150 C.ar    0  <0>0       -0.0007
     24  O1        12.3980   31.5890   63.1090 O.3     0  <0>0       -0.4714
     25  C1        13.6520   31.5630   63.7930 C.3     0  <0>0        0.2525
@<TRIPOS>BOND
     1    13    12    1
     2    13    14    1
     3    12     8    1
     4    14    15    1
     5     9     8    1
     6     9    10    1
     7     8     7    2
     8    15    16    1
     9     7    16    1
    10     7     6    1
    11    10     6    1
    12    10    11    2
    13     6     4    1
    14    11     1    2
    15     4     5    2
    16     4     2   am
    17     1     2    1
    18     1    17    1
    19     2     3    1
    20    17    18    1
    21    23    18   ar
    22    23    22   ar
    23    18    19   ar
    24    22    21   ar
    25    19    20   ar
    26    21    20   ar
    27    21    24    1
    28    24    25    1

@<TRIPOS>MOLECULE
ZINC04175088_replica-1.pdb
 26 29 0 0 0
SMALL
GASTEIGER

@<TRIPOS>ATOM
      1  C7         7.6470   34.7690   57.8500 C.2     0  <0>0        0.0143
      2  C8         8.4140   35.8550   58.1510 C.2     0  <0>0        0.1039
      3  C9         8.5540   36.9190   57.2020 C.1     0  <0>0        0.1035
      4  N1         8.6650   37.7610   56.4490 N.1     0  <0>0       -0.1907
      5  C10        9.0990   35.9350   59.4550 C.2     0  <0>0        0.1665
      6  S1         9.0010   37.2070   60.7070 S.3     0  <0>0       -0.0741
      7  C12       10.1320   36.4580   61.8730 C.3     0  <0>0        0.1234
      8  C11       10.4790   35.3190   61.1940 C.2     0  <0>0        0.1210
      9  N2         9.9550   35.0870   60.0060 N.2     0  <0>0       -0.3984
     10  C13       11.4360   34.3540   61.7900 C.ar    0  <0>0        0.0295
     11  C18       10.9860   33.1200   62.2550 C.ar    0  <0>0        0.0424
     12  C17       11.8820   32.2210   62.8060 C.ar    0  <0>0        0.1765
     13  C16       13.2310   32.5550   62.9040 C.ar    0  <0>0        0.1764
     14  O1        11.7040   30.9700   63.3220 O.3     0  <0>0       -0.4346
     15  C15       13.6770   33.7860   62.4450 C.ar    0  <0>0        0.0403
     16  O2        13.8970   31.5120   63.4820 O.3     0  <0>0       -0.4346
     17  C14       12.7870   34.6830   61.8910 C.ar    0  <0>0        0.0056
     18  C19       12.8810   30.7070   64.1080 C.3     0  <0>0        0.4294
     19  C3         7.6250   33.6120   58.7530 C.ar    0  <0>0        0.0122
     20  C2         8.5530   32.5760   58.5920 C.ar    0  <0>0        0.0009
     21  C1         8.5240   31.4900   59.4410 C.ar    0  <0>0        0.0009
     22  C6         7.5880   31.4270   60.4580 C.ar    0  <0>0        0.0122
     23  C5         6.6680   32.4490   60.6310 C.ar    0  <0>0        0.0682
     24  C4         6.6800   33.5420   59.7860 C.ar    0  <0>0        0.0682
     25 Cl          5.5000   32.3570   61.9110 Cl      0  <0>0       -0.0814
     26 Cl          5.5300   34.8230   60.0010 Cl      0  <0>0       -0.0814
@<TRIPOS>BOND
     1     4     3    3
     2     3     2    1
     3     1     2    2
     4     1    19    1
     5     2     5    1
     6    20    19   ar
     7    20    21   ar
     8    19    24   ar
     9    21    22   ar
    10     5     9    2
    11     5     6    1
    12    24    26    1
    13    24    23   ar
    14     9     8    2
    15    22    23   ar
    16    23    25    1
    17     6     7    1
    18     8    10    1
    19     8     7    1
    20    10    17   ar
    21    10    11   ar
    22    17    15   ar
    23    11    12   ar
    24    15    13   ar
    25    12    13   ar
    26    12    14    1
    27    13    16    1
    28    14    18    1
    29    16    18    1

@<TRIPOS>MOLECULE
ZINC01112671_replica-1.pdb
 30 34 0 0 0
SMALL
GASTEIGER

@<TRIPOS>ATOM
      1  N1         0.2210   28.1540   55.2020 N.ar    0  <0>0       -0.3221
      2  C8         0.4150   29.4450   54.8280 C.ar    0  <0>0        0.0718
      3  C9        -0.0440   30.2810   55.8090 C.ar    0  <0>0       -0.0022
      4  C10       -0.5640   29.4160   56.8850 C.ar    0  <0>0        0.0133
      5  C11       -0.3750   28.0960   56.4440 C.ar    0  <0>0        0.0599
      6  C12       -0.7770   27.0420   57.2580 C.ar    0  <0>0        0.0172
      7  C13       -1.3470   27.3000   58.4860 C.ar    0  <0>0        0.0015
      8  C14       -1.5350   28.6050   58.9180 C.ar    0  <0>0        0.0001
      9  C15       -1.1470   29.6620   58.1250 C.ar    0  <0>0        0.0012
     10  C16       -0.0190   31.7430   55.7950 C.3     0  <0>0        0.0483
     11  C17        0.8450   32.4180   56.6030 C.3     0  <0>0        0.1346
     12  S2         2.6300   32.3500   56.6660 S.3     0  <0>0       -0.0831
     13  C19        2.8660   33.5330   57.9840 C.2     0  <0>0        0.1175
     14  N2         1.5970   33.8930   58.2800 N.am    0  <0>0       -0.2400
     15  S1         4.3270   34.0740   58.6920 S.2     0  <0>0       -0.0275
     16  C18        0.5720   33.3680   57.6320 C.2     0  <0>0        0.2408
     17  O1        -0.5720   33.6890   57.9030 O.2     0  <0>0       -0.2736
     18  C20        1.3540   34.8750   59.3410 C.3     0  <0>0        0.1634
     19  C21        0.8830   34.1650   60.5830 C.ar    0  <0>0        0.1434
     20  O2        -0.2430   34.4360   61.2640 O.2     0  <0>0       -0.4530
     21  C24       -0.3420   33.6070   62.3160 C.ar    0  <0>0        0.1792
     22  C23        0.7290   32.7930   62.3170 C.ar    0  <0>0        0.0435
     23  C22        1.5180   33.1530   61.2000 C.ar    0  <0>0        0.0380
     24  C7         0.5910   26.9870   54.3970 C.3     0  <0>0        0.1327
     25  C4        -0.2820   26.9240   53.1710 C.ar    0  <0>0        0.0004
     26  C3        -0.3910   25.7430   52.4600 C.ar    0  <0>0       -0.0024
     27  C2        -1.1920   25.6860   51.3350 C.ar    0  <0>0       -0.0003
     28  C1        -1.8850   26.8090   50.9210 C.ar    0  <0>0       -0.0000
     29  C6        -1.7760   27.9890   51.6330 C.ar    0  <0>0       -0.0003
     30  C5        -0.9790   28.0450   52.7610 C.ar    0  <0>0       -0.0024
@<TRIPOS>BOND
     1    28    27   ar
     2    28    29   ar
     3    27    26   ar
     4    29    30   ar
     5    26    25   ar
     6    30    25   ar
     7    25    24    1
     8    24     1    1
     9     2     1   ar
    10     2     3   ar
    11     1     5   ar
    12    10     3    1
    13    10    11    1
    14     3     4   ar
    15     5     4   ar
    16     5     6   ar
    17    11    12    1
    18    11    16    1
    19    12    13    1
    20     4     9   ar
    21     6     7   ar
    22    16    17    2
    23    16    14   am
    24    13    14    1
    25    13    15    2
    26     9     8   ar
    27    14    18    1
    28     7     8   ar
    29    18    19    1
    30    19    23   ar
    31    19    20   ar
    32    23    22   ar
    33    20    21   ar
    34    21    22   ar

@<TRIPOS>MOLECULE
ZINC40313779_replica-1.pdb
 32 35 0 0 0
SMALL
GASTEIGER

@<TRIPOS>ATOM
      1  N1         4.1660   34.0040   57.4750 N.4     0  <0>0        0.3962
      2  H28        4.3810   33.8600   58.4500 H       0  <0>0       -0.0785
      3  C10        4.6720   32.8720   56.6880 C.3     0  <0>0       -0.0425
      4  C9         5.0670   31.7320   57.6300 C.3     0  <0>0        0.1335
      5  C8         5.8670   32.2970   58.8060 C.3     0  <0>0        0.2321
      6  O1         7.2610   32.0840   58.5790 O.3     0  <0>0       -0.4733
      7  C7         8.1040   33.0890   58.9330 C.ar    0  <0>0        0.1346
      8  C2         8.6150   33.9420   57.9660 C.ar    0  <0>0        0.0121
      9  C1         8.2360   33.7550   56.5190 C.3     0  <0>0        0.0342
     10  C3         9.4670   34.9670   58.3300 C.ar    0  <0>0       -0.0013
     11  C4         9.8150   35.1390   59.6580 C.ar    0  <0>0       -0.0001
     12  C5         9.3110   34.2870   60.6230 C.ar    0  <0>0        0.0031
     13  C6         8.4590   33.2610   60.2630 C.ar    0  <0>0        0.0366
     14  O3         3.8880   31.0900   58.1200 O.3     0  <0>0       -0.3828
     15  H27        3.7390   31.2090   59.0670 H       0  <0>0        0.2104
     16  C11        4.8000   35.2460   57.0120 C.3     0  <0>0       -0.0492
     17  C12        5.4840   35.9230   58.1710 C.ar    0  <0>0       -0.0432
     18  C17        6.4940   36.8710   57.9390 C.ar    0  <0>0       -0.0060
     19  C16        7.1220   37.5020   59.0420 C.ar    0  <0>0       -0.0004
     20  C18        6.8910   37.2090   56.6340 C.ar    0  <0>0       -0.0004
     21  C15        6.7290   37.1590   60.3470 C.ar    0  <0>0       -0.0000
     22  C21        8.1290   38.4550   58.8090 C.ar    0  <0>0       -0.0000
     23  C14        5.7500   36.2320   60.5330 C.ar    0  <0>0       -0.0004
     24  C13        5.1290   35.6160   59.4500 C.ar    0  <0>0       -0.0063
     25  C20        8.4960   38.7480   57.5320 C.ar    0  <0>0       -0.0000
     26  C19        7.8750   38.1320   56.4480 C.ar    0  <0>0       -0.0000
     27  C22        2.7100   34.1050   57.3060 C.3     0  <0>0       -0.0104
     28  C23        2.0400   34.0240   58.6530 C.ar    0  <0>0        0.1022
     29  O2         2.3650   33.1760   59.6420 O.2     0  <0>0       -0.4568
     30  C26        1.5610   33.3880   60.6970 C.ar    0  <0>0        0.1790
     31  C25        0.7030   34.3750   60.3850 C.ar    0  <0>0        0.0434
     32  C24        1.0120   34.7860   59.0680 C.ar    0  <0>0        0.0340
@<TRIPOS>BOND
     1    26    20   ar
     2    26    25   ar
     3     9     8    1
     4    20    18   ar
     5     3     1    1
     6     3     4    1
     7    16     1    1
     8    16    17    1
     9    27     1    1
    10    27    28    1
    11     1     2    1
    12    25    22   ar
    13     4    14    1
    14     4     5    1
    15    18    17   ar
    16    18    19   ar
    17     8    10   ar
    18     8     7   ar
    19    14    15    1
    20    17    24   ar
    21    10    11   ar
    22     6     5    1
    23     6     7    1
    24    28    32   ar
    25    28    29   ar
    26    22    19   ar
    27     7    13   ar
    28    19    21   ar
    29    32    31   ar
    30    24    23   ar
    31    29    30   ar
    32    11    12   ar
    33    13    12   ar
    34    21    23   ar
    35    31    30   ar

@<TRIPOS>MOLECULE
ZINC16161948_replica-1.pdb
 30 33 0 0 0
SMALL
GASTEIGER

@<TRIPOS>ATOM
      1  C9        -0.0220   30.7340   55.4320 C.3     0  <0>0        0.2016
      2  N2         1.3810   31.1440   55.6070 N.am    0  <0>0       -0.2775
      3  C10        1.6570   32.0360   56.5420 C.2     0  <0>0        0.2535
      4  O1         2.8030   32.4080   56.7160 O.2     0  <0>0       -0.2695
      5  C11        0.5690   32.5700   57.3730 C.2     0  <0>0        0.0846
      6  C12        0.6390   33.4820   58.3820 C.2     0  <0>0        0.0483
      7  S1        -0.8690   31.7310   56.7240 S.3     0  <0>0       -0.0696
      8  H12        2.0820   30.7740   55.0470 H       0  <0>0        0.1520
      9  C13        1.8980   33.8920   58.8780 C.ar    0  <0>0        0.1460
     10  O2         2.7160   34.8020   58.3100 O.2     0  <0>0       -0.4535
     11  C16        3.8270   34.9340   59.0590 C.ar    0  <0>0        0.1453
     12  C15        3.7270   34.1050   60.1390 C.ar    0  <0>0        0.0406
     13  C14        2.5030   33.4370   60.0340 C.ar    0  <0>0        0.0406
     14  C17        4.9600   35.8320   58.7660 C.ar    0  <0>0        0.0346
     15  C22        5.4960   36.6380   59.7720 C.ar    0  <0>0        0.0035
     16  C21        6.5550   37.4750   59.4910 C.ar    0  <0>0        0.0068
     17  C20        7.0880   37.5170   58.2150 C.ar    0  <0>0        0.0346
     18  C19        6.5650   36.7170   57.2120 C.ar    0  <0>0        0.0068
     19 Br          8.5420   38.6670   57.8380 Br      0  <0>0       -0.0490
     20  C18        5.5030   35.8790   57.4780 C.ar    0  <0>0        0.0035
     21  N1        -0.1840   29.3010   55.6860 N.pl3   0  <0>0       -0.3100
     22  H11       -0.1820   28.9660   56.5960 H       0  <0>0        0.1491
     23  C6        -0.3430   28.4160   54.6170 C.ar    0  <0>0        0.0463
     24  C5         0.2660   27.1670   54.6500 C.ar    0  <0>0        0.0140
     25  C4         0.1060   26.2940   53.5910 C.ar    0  <0>0       -0.0030
     26  C3        -0.6580   26.6630   52.4990 C.ar    0  <0>0       -0.0221
     27  C8        -1.2660   27.9040   52.4630 C.ar    0  <0>0       -0.0030
     28  C7        -1.1140   28.7800   53.5200 C.ar    0  <0>0        0.0140
     29  C2        -0.8290   25.7080   51.3460 C.3     0  <0>0        0.0264
     30  C1        -0.5410   24.2810   51.8180 C.3     0  <0>0        0.0050
@<TRIPOS>BOND
     1    29    30    1
     2    29    26    1
     3    27    26   ar
     4    27    28   ar
     5    26    25   ar
     6    28    23   ar
     7    25    24   ar
     8    23    24   ar
     9    23    21    1
    10     8     2    1
    11     1     2    1
    12     1    21    1
    13     1     7    1
    14     2     3   am
    15    21    22    1
    16     3     4    2
    17     3     5    1
    18     7     5    1
    19    18    20   ar
    20    18    17   ar
    21     5     6    2
    22    20    14   ar
    23    19    17    1
    24    17    16   ar
    25    10     9   ar
    26    10    11   ar
    27     6     9    1
    28    14    11    1
    29    14    15   ar
    30     9    13   ar
    31    11    12   ar
    32    16    15   ar
    33    13    12   ar

@<TRIPOS>MOLECULE
ZINC00499534_replica-1.pdb
 19 21 0 0 0
SMALL
GASTEIGER

@<TRIPOS>ATOM
      1  C1        13.0260   30.2410   64.7070 C.3     0  <0>0        0.0919
      2  N1        13.3510   31.4880   64.0110 N.3     0  <0>0       -0.2435
      3  C2        14.5400   32.1480   64.0540 C.3     0  <0>0        0.2011
      4  N2        14.4830   33.2210   63.3180 N.2     0  <0>0       -0.2549
      5  C3        13.2520   33.3220   62.7530 C.2     0  <0>0        0.0755
      6  C4        12.5080   32.2110   63.1900 C.3     0  <0>0        0.1219
      7  C5        11.1940   32.0410   62.7700 C.2     0  <0>0       -0.0029
      8  C6        10.6170   32.9550   61.9370 C.2     0  <0>0        0.0163
      9  C7        11.3440   34.0650   61.4870 C.2     0  <0>0        0.0823
     10  C8        12.6610   34.2500   61.8970 C.2     0  <0>0        0.0351
     11  N3        10.7560   34.9720   60.6480 N.2     0  <0>0       -0.2438
     12  C9         9.9310   34.5650   59.7250 C.2     0  <0>0        0.0988
     13  C10        9.2990   35.5410   58.8220 C.ar    0  <0>0        0.0192
     14  C15        9.1210   36.8660   59.2310 C.ar    0  <0>0        0.0021
     15  C14        8.5280   37.7740   58.3800 C.ar    0  <0>0        0.0067
     16  C13        8.1080   37.3760   57.1220 C.ar    0  <0>0        0.0346
     17  C12        8.2870   36.0660   56.7060 C.ar    0  <0>0        0.0067
     18 Br          7.2960   38.6290   55.9620 Br      0  <0>0       -0.0490
     19  C11        8.8730   35.1470   57.5490 C.ar    0  <0>0        0.0021
@<TRIPOS>BOND
     1    18    16    1
     2    17    16   ar
     3    17    19   ar
     4    16    15   ar
     5    19    13   ar
     6    15    14   ar
     7    13    14   ar
     8    13    12    1
     9    12    11    2
    10    11     9    1
    11     9    10    2
    12     9     8    1
    13    10     5    1
    14     8     7    2
    15     5     6    1
    16     5     4    2
    17     7     6    1
    18     6     2    1
    19     4     3    1
    20     2     3    1
    21     2     1    1

@<TRIPOS>MOLECULE
ZINC14075620_replica-1.pdb
 26 29 0 0 0
SMALL
GASTEIGER

@<TRIPOS>ATOM
      1  N1         6.6600   36.9310   57.1020 N.ar    0  <0>0       -0.3272
      2  C3         7.3430   37.0710   58.2970 C.ar    0  <0>0        0.0599
      3  C4         8.4970   37.7690   58.6400 C.ar    0  <0>0        0.0172
      4  C5         8.9650   37.7340   59.9360 C.ar    0  <0>0        0.0015
      5  C6         8.2980   37.0020   60.9070 C.ar    0  <0>0        0.0001
      6  C7         7.1510   36.3090   60.5870 C.ar    0  <0>0        0.0015
      7  C8         6.6660   36.3360   59.2820 C.ar    0  <0>0        0.0172
      8  C9         5.5030   35.7190   58.6200 C.ar    0  <0>0        0.0185
      9  C10        5.5500   36.1200   57.2770 C.ar    0  <0>0        0.0600
     10  C11        4.5630   35.6840   56.3970 C.ar    0  <0>0        0.0185
     11  C12        3.5500   34.8640   56.8470 C.ar    0  <0>0        0.0173
     12  C13        3.5020   34.4660   58.1790 C.ar    0  <0>0        0.0649
     13  C14        4.4750   34.8910   59.0660 C.ar    0  <0>0        0.0173
     14  N2         2.4670   33.6330   58.6230 N.pl3   0  <0>0       -0.2146
     15  H13        2.6160   32.6780   58.7040 H       0  <0>0        0.1737
     16  S1         0.9920   34.2770   59.0080 S.O2    0  <0>0        0.0793
     17  O1         1.2120   35.6480   59.3080 O.2     0  <0>0       -0.1494
     18  O2         0.0870   33.8550   57.9960 O.2     0  <0>0       -0.1494
     19  C15        0.4640   33.5130   60.5060 C.ar    0  <0>0        0.1543
     20  S2         0.5640   31.7970   60.9890 S.2     0  <0>0       -0.0713
     21  C18       -0.1800   31.9460   62.6040 C.ar    0  <0>0        0.0089
     22  C17       -0.4570   33.2720   62.6640 C.ar    0  <0>0        0.0041
     23  C19       -0.4390   30.8750   63.6320 C.3     0  <0>0        0.0382
     24  C16       -0.1270   34.0750   61.5890 C.ar    0  <0>0        0.0270
     25  C2         7.0550   37.5500   55.8340 C.3     0  <0>0        0.1061
     26  C1         7.7650   36.5150   54.9600 C.3     0  <0>0        0.0265
@<TRIPOS>BOND
     1    26    25    1
     2    25     1    1
     3    10    11   ar
     4    10     9   ar
     5    11    12   ar
     6     1     9   ar
     7     1     2   ar
     8     9     8   ar
     9    18    16    2
    10    12    14    1
    11    12    13   ar
    12     2     3   ar
    13     2     7   ar
    14     8    13   ar
    15     8     7   ar
    16    14    15    1
    17    14    16    1
    18     3     4   ar
    19    16    17    2
    20    16    19    1
    21     7     6   ar
    22     4     5   ar
    23    19    20   ar
    24    19    24   ar
    25     6     5   ar
    26    20    21   ar
    27    24    22   ar
    28    21    22   ar
    29    21    23    1

@<TRIPOS>MOLECULE
ZINC12784087_replica-1.pdb
 18 19 0 0 0
SMALL
GASTEIGER

@<TRIPOS>ATOM
      1  C1        -0.5920   25.4820   51.1020 C.3     0  <0>0        0.0311
      2  C2        -0.7070   26.5030   52.2030 C.ar    0  <0>0       -0.0207
      3  C3        -0.0780   26.2840   53.4150 C.ar    0  <0>0        0.0055
      4  C4        -0.1810   27.2200   54.4280 C.ar    0  <0>0        0.0687
      5  C5        -0.9160   28.3810   54.2270 C.ar    0  <0>0        0.1512
      6  C6        -1.5450   28.5970   53.0090 C.ar    0  <0>0        0.0687
      7  C7        -1.4390   27.6580   52.0000 C.ar    0  <0>0        0.0055
      8 Br         -2.5480   30.1760   52.7300 Br      0  <0>0       -0.0458
      9 Br          0.6790   26.9190   56.0850 Br      0  <0>0       -0.0458
     10  O1        -1.0230   29.2990   55.2220 O.3     0  <0>0       -0.4695
     11  C8        -2.1680   29.2040   56.0720 C.3     0  <0>0        0.2361
     12  C9        -1.7220   29.0220   57.4990 C.ar    0  <0>0        0.0708
     13  C11       -2.1100   28.0680   58.3790 C.ar    0  <0>0        0.1539
     14  O2        -1.4470   28.3100   59.5190 O.2     0  <0>0       -0.3583
     15  C12       -3.0940   26.9540   58.1270 C.3     0  <0>0        0.0751
     16  N1        -0.7270   29.2760   59.4170 N.ar    0  <0>0       -0.0820
     17  C10       -0.7960   29.8020   58.2280 C.ar    0  <0>0        0.1001
     18  C13       -0.0410   31.0070   57.7300 C.3     0  <0>0        0.0554
@<TRIPOS>BOND
     1     1     2    1
     2     7     2   ar
     3     7     6   ar
     4     2     3   ar
     5     8     6    1
     6     6     5   ar
     7     3     4   ar
     8     5     4   ar
     9     5    10    1
    10     4     9    1
    11    10    11    1
    12    11    12    1
    13    12    17   ar
    14    12    13   ar
    15    18    17    1
    16    15    13    1
    17    17    16   ar
    18    13    14   ar
    19    16    14   ar

@<TRIPOS>MOLECULE
ZINC49544262_replica-1.pdb
 23 24 0 0 0
SMALL
GASTEIGER

@<TRIPOS>ATOM
      1  C9        -0.4400   30.3810   54.5380 C.3     0  <0>0        0.1031
      2  N1        -0.9630   31.5180   55.3070 N.3     0  <0>0       -0.2924
      3  H13       -1.8970   31.7560   55.0100 H       0  <0>0        0.1236
      4  C4        -0.9240   31.2410   56.7490 C.3     0  <0>0        0.0829
      5  C3        -0.5290   29.7820   56.9780 C.3     0  <0>0        0.0208
      6  C2        -1.5130   29.1330   57.9540 C.3     0  <0>0        0.0017
      7  C1        -2.4670   28.2180   57.1840 C.3     0  <0>0        0.0001
      8  C5         0.0860   32.1450   57.4070 C.ar    0  <0>0        0.0215
      9  S1         1.7830   31.8040   57.8440 S.2     0  <0>0       -0.0895
     10  C8         2.1860   33.3940   58.5480 C.ar    0  <0>0        0.0352
     11  C7         1.0170   34.0660   58.4120 C.ar    0  <0>0        0.0072
     12  C6        -0.0600   33.4260   57.8270 C.ar    0  <0>0        0.0040
     13  C10       -1.4850   29.9350   53.5130 C.3     0  <0>0        0.1505
     14  C11       -1.1680   28.5360   53.0490 C.ar    0  <0>0        0.0332
     15  C16       -1.6780   28.0730   51.8480 C.ar    0  <0>0        0.1407
     16  C15       -1.3830   26.7910   51.4190 C.ar    0  <0>0        0.0590
     17  F1        -2.4600   28.8750   51.0910 F       0  <0>0       -0.2043
     18  C14       -0.5870   25.9680   52.1980 C.ar    0  <0>0        0.1424
     19  C13       -0.0830   26.4310   53.4010 C.ar    0  <0>0        0.0295
     20  F2        -0.3020   24.7150   51.7830 F       0  <0>0       -0.2041
     21  C12       -0.3730   27.7140   53.8250 C.ar    0  <0>0        0.0026
     22  O1        -2.7810   29.9550   54.1150 O.3     0  <0>0       -0.3786
     23  H19       -3.2130   30.8190   54.0890 H       0  <0>0        0.2108
@<TRIPOS>BOND
     1    17    15    1
     2    16    15   ar
     3    16    18   ar
     4    20    18    1
     5    15    14   ar
     6    18    19   ar
     7    14    13    1
     8    14    21   ar
     9    19    21   ar
    10    13    22    1
    11    13     1    1
    12    23    22    1
    13     1     2    1
    14     3     2    1
    15     2     4    1
    16     4     5    1
    17     4     8    1
    18     5     6    1
    19     7     6    1
    20     8    12   ar
    21     8     9   ar
    22    12    11   ar
    23     9    10   ar
    24    11    10   ar

@<TRIPOS>MOLECULE
ZINC32609629_replica-1.pdb
 21 22 0 0 0
SMALL
GASTEIGER

@<TRIPOS>ATOM
      1  C3        -0.3710   28.9610   56.9550 C.2     0  <0>0        0.2485
      2  O1        -1.4690   28.4460   56.9540 O.2     0  <0>0       -0.2727
      3  N1         0.2910   29.1380   55.7950 N.am    0  <0>0       -0.2817
      4  H5         1.2460   29.6830   55.7840 H       0  <0>0        0.1549
      5  C4        -0.2360   28.6270   54.6030 C.ar    0  <0>0        0.0619
      6  C9        -1.0090   29.4360   53.7790 C.ar    0  <0>0        0.0720
      7  C8        -1.5280   28.9290   52.6030 C.ar    0  <0>0        0.0249
      8 Cl         -1.3250   31.0830   54.2300 Cl      0  <0>0       -0.0809
      9  C7        -1.2770   27.6170   52.2440 C.ar    0  <0>0        0.0691
     10  C6        -0.5060   26.8080   53.0620 C.ar    0  <0>0        0.0695
     11 Cl         -1.9300   26.9830   50.7660 Cl      0  <0>0       -0.0813
     12  C5         0.0190   27.3120   54.2380 C.ar    0  <0>0        0.0278
     13 Cl         -0.1930   25.1610   52.6080 Cl      0  <0>0       -0.0813
     14  C2         0.2560   29.3970   58.2540 C.3     0  <0>0        0.1812
     15  C1        -0.5830   28.8780   59.4240 C.3     0  <0>0        0.0363
     16  N2         0.3110   30.8610   58.3030 N.ar    0  <0>0       -0.2420
     17  N3        -0.2820   31.7390   57.3870 N.ar    0  <0>0       -0.1667
     18  C12       -0.0160   32.9640   57.7630 C.ar    0  <0>0        0.1283
     19  C11        0.7550   32.9050   58.9290 C.ar    0  <0>0        0.0741
     20  C10        0.9350   31.6010   59.2430 C.ar    0  <0>0        0.1038
     21 Br          1.4170   34.3860   59.9010 Br      0  <0>0       -0.0457
@<TRIPOS>BOND
     1    11     9    1
     2     9     7   ar
     3     9    10   ar
     4     7     6   ar
     5    13    10    1
     6    10    12   ar
     7     6     8    1
     8     6     5   ar
     9    12     5   ar
    10     5     3    1
    11     4     3    1
    12     3     1   am
    13     2     1    2
    14     1    14    1
    15    17    18   ar
    16    17    16   ar
    17    18    19   ar
    18    14    16    1
    19    14    15    1
    20    16    20   ar
    21    19    20   ar
    22    19    21    1

@<TRIPOS>MOLECULE
ZINC37503812_replica-1.pdb
 19 20 0 0 0
SMALL
GASTEIGER

@<TRIPOS>ATOM
      1  C1        11.4420   31.2710   63.4070 C.ar    0  <0>0        0.0013
      2  C2        12.6050   30.7360   63.9310 C.ar    0  <0>0        0.0006
      3  C3        13.7910   31.4410   63.8560 C.ar    0  <0>0        0.0075
      4  C4        13.8180   32.6900   63.2530 C.ar    0  <0>0        0.0433
      5  C5        12.6460   33.2310   62.7240 C.ar    0  <0>0        0.0508
      6  C6        11.4610   32.5160   62.8040 C.ar    0  <0>0        0.0148
      7  N1        12.6670   34.4910   62.1150 N.pl3   0  <0>0       -0.3261
      8  H5        13.3070   34.6790   61.4110 H       0  <0>0        0.1472
      9  C7        11.7210   35.5260   62.5400 C.3     0  <0>0        0.1528
     10  C8        10.8120   35.8780   61.3920 C.ar    0  <0>0        0.1438
     11  O1        10.1310   37.0280   61.2540 O.2     0  <0>0       -0.4449
     12  C11        9.4270   36.9970   60.1100 C.ar    0  <0>0        0.2028
     13  C10        9.6460   35.8130   59.5080 C.ar    0  <0>0        0.0524
     14 Cl          8.4020   38.2650   59.5130 Cl      0  <0>0       -0.0425
     15  C9        10.5390   35.0920   60.3350 C.ar    0  <0>0        0.0388
     16  S1        15.3290   33.5920   63.1580 S.3     0  <0>0       -0.0429
     17  C12       15.7010   34.0100   64.8830 C.3     0  <0>0        0.3707
     18  F1        15.8830   32.8350   65.6190 F       0  <0>0       -0.1852
     19  F2        16.8700   34.7780   64.9360 F       0  <0>0       -0.1852
@<TRIPOS>BOND
     1    13    12   ar
     2    13    15   ar
     3    14    12    1
     4    12    11   ar
     5    15    10   ar
     6    11    10   ar
     7    10     9    1
     8     8     7    1
     9     7     9    1
    10     7     5    1
    11     5     6   ar
    12     5     4   ar
    13     6     1   ar
    14    16     4    1
    15    16    17    1
    16     4     3   ar
    17     1     2   ar
    18     3     2   ar
    19    17    19    1
    20    17    18    1

@<TRIPOS>MOLECULE
ZINC07002562_replica-1.pdb
 27 29 0 0 0
SMALL
GASTEIGER

@<TRIPOS>ATOM
      1  C6         0.6060   30.7630   59.3380 C.2     0  <0>0       -0.0267
      2  C7         0.3320   29.7960   60.2290 C.2     0  <0>0        0.0027
      3  S1        -0.9510   28.8500   59.4300 S.3     0  <0>0       -0.0639
      4  C8        -1.0810   29.7800   57.9240 C.2     0  <0>0        0.1514
      5  C9        -0.1280   30.8020   58.0870 C.3     0  <0>0        0.1537
      6  C10       -0.0100   31.7190   56.9920 C.2     0  <0>0        0.2383
      7  O1         0.7900   32.6370   57.0360 O.2     0  <0>0       -0.2739
      8  N1        -0.8030   31.5540   55.9170 N.am    0  <0>0       -0.2610
      9  H2        -0.7280   32.1940   55.1520 H       0  <0>0        0.1570
     10  C11       -1.7010   30.5380   55.8500 C.2     0  <0>0        0.1827
     11  N2        -1.8280   29.6830   56.8290 N.2     0  <0>0       -0.3866
     12  C20        0.9580   29.5660   61.5810 C.3     0  <0>0        0.0376
     13  C12       -2.5680   30.3960   54.6260 C.3     0  <0>0        0.1634
     14  N3        -1.7180   30.2370   53.4430 N.pl3   0  <0>0       -0.3258
     15  H15       -1.3560   31.0180   52.9970 H       0  <0>0        0.1472
     16  C13       -1.4280   28.9590   52.9580 C.ar    0  <0>0        0.0449
     17  C18       -0.6150   28.1040   53.6900 C.ar    0  <0>0        0.0140
     18  C17       -0.3300   26.8420   53.2080 C.ar    0  <0>0       -0.0030
     19  C16       -0.8550   26.4280   51.9970 C.ar    0  <0>0       -0.0218
     20  C15       -1.6650   27.2770   51.2650 C.ar    0  <0>0       -0.0030
     21  C19       -0.5420   25.0500   51.4740 C.3     0  <0>0        0.0310
     22  C14       -1.9570   28.5390   51.7440 C.ar    0  <0>0        0.0140
     23  C5         1.6610   31.7970   59.6360 C.3     0  <0>0        0.0231
     24  C3         1.0080   33.0230   60.2780 C.3     0  <0>0        0.0041
     25  C4         0.9990   32.8570   61.7990 C.3     0  <0>0        0.0003
     26  C2         1.8010   34.2770   59.9060 C.3     0  <0>0        0.0003
     27  C1         0.9500   35.1690   59.0000 C.3     0  <0>0        0.0000
@<TRIPOS>BOND
     1    20    22   ar
     2    20    19   ar
     3    21    19    1
     4    22    16   ar
     5    19    18   ar
     6    16    14    1
     7    16    17   ar
     8    15    14    1
     9    18    17   ar
    10    14    13    1
    11    13    10    1
    12     9     8    1
    13    10     8    1
    14    10    11    2
    15     8     6   am
    16    11     4    2
    17     6     7    2
    18     6     5    1
    19     4     5    1
    20     4     3    1
    21     5     1    1
    22    27    26    1
    23     1    23    1
    24     1     2    2
    25     3     2    1
    26    23    24    1
    27    26    24    1
    28     2    12    1
    29    24    25    1

@<TRIPOS>MOLECULE
ZINC21076865_replica-1.pdb
 24 25 0 0 0
SMALL
GASTEIGER

@<TRIPOS>ATOM
      1  C6         0.8990   33.1310   57.2280 C.ar    0  <0>0        0.1909
      2  N1         0.0630   33.0310   56.1520 N.ar    0  <0>0       -0.3033
      3  H1        -0.5070   33.7350   55.8050 H       0  <0>0        0.1706
      4  C7         0.1710   31.7640   55.6510 C.ar    0  <0>0        0.2346
      5  N2         1.0370   31.1090   56.3850 N.ar    0  <0>0       -0.1110
      6  N3         1.5030   31.9770   57.3810 N.ar    0  <0>0       -0.1210
      7  N4        -0.5170   31.2580   54.5560 N.pl3   0  <0>0       -0.2047
      8  H13       -1.1410   31.8220   54.0740 H       0  <0>0        0.1775
      9  N5        -0.3090   29.9340   54.1480 N.2     0  <0>0       -0.1774
     10  C8        -1.1830   29.3430   53.3910 C.2     0  <0>0        0.1184
     11  C9        -0.9640   27.9500   52.9630 C.ar    0  <0>0        0.0313
     12  C14       -1.5320   27.4810   51.7750 C.ar    0  <0>0        0.0600
     13  C13       -1.3180   26.1770   51.3790 C.ar    0  <0>0        0.0228
     14 Cl         -2.4990   28.5410   50.7970 Cl      0  <0>0       -0.0822
     15  C12       -0.5510   25.3290   52.1620 C.ar    0  <0>0        0.0585
     16  C11        0.0100   25.7860   53.3430 C.ar    0  <0>0        0.0115
     17 Cl         -0.2920   23.6890   51.6590 Cl      0  <0>0       -0.0822
     18  C10       -0.1910   27.0890   53.7480 C.ar    0  <0>0        0.0033
     19  S1         1.1300   34.5630   58.2290 S.3     0  <0>0       -0.0758
     20  C5         0.5550   34.0470   59.8700 C.3     0  <0>0        0.0652
     21  C4         1.7360   33.5090   60.6800 C.3     0  <0>0        0.0121
     22  C2         1.2440   32.4310   61.6480 C.3     0  <0>0        0.0009
     23  C1         0.1890   33.0280   62.5810 C.3     0  <0>0        0.0000
     24  C3         0.6290   31.2760   60.8540 C.3     0  <0>0        0.0000
@<TRIPOS>BOND
     1    14    12    1
     2    13    12   ar
     3    13    15   ar
     4    17    15    1
     5    12    11   ar
     6    15    16   ar
     7    11    10    1
     8    11    18   ar
     9    16    18   ar
    10    10     9    2
    11     8     7    1
    12     9     7    1
    13     7     4    1
    14     4     2   ar
    15     4     5   ar
    16     3     2    1
    17     2     1   ar
    18     5     6   ar
    19     1     6   ar
    20     1    19    1
    21    19    20    1
    22    20    21    1
    23    21    22    1
    24    24    22    1
    25    22    23    1

@<TRIPOS>MOLECULE
ZINC35254068_replica-1.pdb
 22 23 0 0 0
SMALL
GASTEIGER

@<TRIPOS>ATOM
      1  C9        10.2060   36.3120   61.0590 C.ar    0  <0>0       -0.0063
      2  C10        9.9080   35.0370   60.6170 C.ar    0  <0>0       -0.0024
      3  C11       10.5400   33.9440   61.1760 C.ar    0  <0>0        0.0061
      4  C12       11.4800   34.1280   62.1830 C.ar    0  <0>0        0.0327
      5  C13       11.7780   35.4100   62.6250 C.ar    0  <0>0        0.0061
      6  C14       11.1450   36.4990   62.0580 C.ar    0  <0>0       -0.0024
      7  C8         9.5130   37.5020   60.4480 C.3     0  <0>0        0.0956
      8  N1         8.1210   37.5510   60.9170 N.3     0  <0>0       -0.2945
      9  H10        7.9220   38.4310   61.3670 H       0  <0>0        0.1235
     10  C2         7.1840   37.3010   59.8130 C.3     0  <0>0        0.0592
     11  C1         5.7510   37.5180   60.3010 C.3     0  <0>0        0.0175
     12  C3         7.4830   38.2650   58.6630 C.3     0  <0>0        0.0486
     13  C4         7.6320   37.4880   57.3810 C.ar    0  <0>0        0.0086
     14  S1         7.0910   37.9220   55.7350 S.2     0  <0>0       -0.0907
     15  C7         7.6770   36.4640   54.8860 C.ar    0  <0>0        0.0351
     16  C6         8.2300   35.7530   55.8990 C.ar    0  <0>0        0.0072
     17  C5         8.2070   36.2780   57.1770 C.ar    0  <0>0        0.0027
     18  S2        12.2900   32.7360   62.9000 S.3     0  <0>0       -0.0144
     19  C15       14.0220   33.2580   63.0330 C.3     0  <0>0        0.4477
     20  F1        14.8300   32.1380   63.2650 F       0  <0>0       -0.1600
     21  F2        14.4140   33.8770   61.8420 F       0  <0>0       -0.1600
     22  F3        14.1580   34.1580   64.0950 F       0  <0>0       -0.1600
@<TRIPOS>BOND
     1    15    14   ar
     2    15    16   ar
     3    14    13   ar
     4    16    17   ar
     5    17    13   ar
     6    13    12    1
     7    12    10    1
     8    10    11    1
     9    10     8    1
    10     7     8    1
    11     7     1    1
    12     2     1   ar
    13     2     3   ar
    14     8     9    1
    15     1     6   ar
    16     3     4   ar
    17    21    19    1
    18     6     5   ar
    19     4     5   ar
    20     4    18    1
    21    18    19    1
    22    19    20    1
    23    19    22    1

@<TRIPOS>MOLECULE
ZINC18193104_replica-1.pdb
 25 28 0 0 0
SMALL
GASTEIGER

@<TRIPOS>ATOM
      1  N1        10.8650   34.7700   60.7590 N.am    0  <0>0       -0.1555
      2  C8        10.3110   35.9820   60.9630 C.2     0  <0>0        0.2728
      3  O1        10.4480   36.6950   61.9430 O.2     0  <0>0       -0.2678
      4  C9         9.5060   36.2670   59.7690 C.2     0  <0>0        0.0706
      5  C10        8.7400   37.4000   59.5140 C.2     0  <0>0        0.0073
      6  C19        9.6880   35.0970   58.9000 C.2     0  <0>0        0.0817
      7  N3        10.4770   34.2700   59.5160 N.2     0  <0>0       -0.1755
      8  C20        9.0740   34.8940   57.5390 C.3     0  <0>0        0.0539
      9  C11        8.1940   37.6080   58.2300 C.ar    0  <0>0        0.0186
     10  C14        6.9400   37.0420   57.6960 C.ar    0  <0>0        0.0170
     11  C13        6.8230   37.5340   56.3870 C.ar    0  <0>0        0.0566
     12  C15        5.9630   36.1980   58.2150 C.ar    0  <0>0        0.0015
     13  N2         7.9200   38.3370   56.1410 N.ar    0  <0>0       -0.3520
     14  C18        5.7240   37.1690   55.6170 C.ar    0  <0>0        0.0170
     15  C12        8.7270   38.3860   57.2170 C.ar    0  <0>0        0.0724
     16  H1         8.0850   38.8030   55.3060 H       0  <0>0        0.1660
     17  C17        4.7660   36.3270   56.1410 C.ar    0  <0>0        0.0015
     18  C16        4.8810   35.8460   57.4360 C.ar    0  <0>0        0.0001
     19  C7        11.7120   34.1120   61.6590 C.ar    0  <0>0        0.0731
     20  C2        11.2970   32.9380   62.2730 C.ar    0  <0>0       -0.0063
     21  C1         9.9350   32.3700   61.9720 C.3     0  <0>0        0.0324
     22  C3        12.1380   32.2890   63.1570 C.ar    0  <0>0       -0.0030
     23  C4        13.3850   32.8130   63.4390 C.ar    0  <0>0       -0.0002
     24  C5        13.7990   33.9860   62.8330 C.ar    0  <0>0        0.0013
     25  C6        12.9670   34.6370   61.9450 C.ar    0  <0>0        0.0165
@<TRIPOS>BOND
     1    16    13    1
     2    14    17   ar
     3    14    11   ar
     4    17    18   ar
     5    13    11   ar
     6    13    15   ar
     7    11    10   ar
     8    15     9   ar
     9    18    12   ar
    10     8     6    1
    11    10    12   ar
    12    10     9   ar
    13     9     5    1
    14     6     7    2
    15     6     4    1
    16     5     4    2
    17     7     1    1
    18     4     2    1
    19     1     2   am
    20     1    19    1
    21     2     3    2
    22    19    25   ar
    23    19    20   ar
    24    25    24   ar
    25    21    20    1
    26    20    22   ar
    27    24    23   ar
    28    22    23   ar

@<TRIPOS>MOLECULE
ZINC37274037_replica-1.pdb
 22 23 0 0 0
SMALL
GASTEIGER

@<TRIPOS>ATOM
      1  C1        11.2670   31.3540   63.4410 C.ar    0  <0>0        0.0013
      2  C2        12.4230   30.7530   63.9040 C.ar    0  <0>0        0.0006
      3  C3        13.6440   31.3820   63.7490 C.ar    0  <0>0        0.0076
      4  C4        13.7120   32.6210   63.1280 C.ar    0  <0>0        0.0458
      5  C5        12.5460   33.2270   62.6610 C.ar    0  <0>0        0.0509
      6  C6        11.3260   32.5890   62.8210 C.ar    0  <0>0        0.0148
      7  N1        12.6070   34.4770   62.0340 N.pl3   0  <0>0       -0.3261
      8  H5        13.2740   34.6440   61.3500 H       0  <0>0        0.1472
      9  C7        11.6640   35.5330   62.4090 C.3     0  <0>0        0.1528
     10  C8        10.7540   35.8310   61.2450 C.ar    0  <0>0        0.1447
     11  O1        10.0160   36.9420   61.0910 O.2     0  <0>0       -0.4356
     12  C11        9.3330   36.8690   59.9380 C.ar    0  <0>0        0.2886
     13  C10        9.6230   35.6970   59.3450 C.ar    0  <0>0        0.0658
     14  C9        10.5400   35.0280   60.1890 C.ar    0  <0>0        0.0397
     15  N2         8.4100   37.9000   59.4100 N.pl3   0  <0>0        0.0932
     16  O2         7.3110   38.0340   59.8950 O.2     0  <0>0       -0.1230
     17  O3         8.7560   38.6080   58.4940 O.2     0  <0>0       -0.1230
     18  S1        15.2670   33.4260   62.9310 S.3     0  <0>0       -0.0132
     19  C12       15.6580   34.0400   64.5920 C.3     0  <0>0        0.4477
     20  F1        15.7710   32.9600   65.4750 F       0  <0>0       -0.1600
     21  F2        16.8660   34.7430   64.5570 F       0  <0>0       -0.1600
     22  F3        14.6360   34.8910   65.0270 F       0  <0>0       -0.1600
@<TRIPOS>BOND
     1    17    15    2
     2    13    12   ar
     3    13    14   ar
     4    15    16    2
     5    15    12    1
     6    12    11   ar
     7    14    10   ar
     8    11    10   ar
     9    10     9    1
    10     8     7    1
    11     7     9    1
    12     7     5    1
    13     5     6   ar
    14     5     4   ar
    15     6     1   ar
    16    18     4    1
    17    18    19    1
    18     4     3   ar
    19     1     2   ar
    20     3     2   ar
    21    21    19    1
    22    19    22    1
    23    19    20    1

@<TRIPOS>MOLECULE
ZINC00331910_replica-1.pdb
 26 29 0 0 0
SMALL
GASTEIGER

@<TRIPOS>ATOM
      1  C1        -0.2920   29.5730   60.0940 C.3     0  <0>0        0.0504
      2  C2        -0.1890   30.1230   58.6940 C.ar    0  <0>0        0.0414
      3  C3        -1.0430   29.8630   57.6920 C.ar    0  <0>0        0.0142
      4  C4        -0.5550   30.6130   56.5250 C.ar    0  <0>0        0.0133
      5  C5         0.5880   31.2720   56.9490 C.ar    0  <0>0        0.0414
      6  N1         0.7920   30.9640   58.2450 N.ar    0  <0>0       -0.3134
      7  C12        1.4530   32.1740   56.1070 C.3     0  <0>0        0.0504
      8  C13       -1.1370   30.6560   55.2320 C.2     0  <0>0        0.0075
      9  C14       -1.0620   29.5540   54.4060 C.2     0  <0>0        0.0779
     10  C22       -1.7280   29.3860   53.1040 C.2     0  <0>0        0.1987
     11  C15       -0.2940   28.3220   54.6540 C.2     0  <0>0        0.1987
     12  C21       -1.3620   28.0480   52.5780 C.ar    0  <0>0        0.0421
     13  O2        -2.4510   30.1980   52.5570 O.2     0  <0>0       -0.2865
     14  C16       -0.5140   27.4150   53.5000 C.ar    0  <0>0        0.0421
     15  C20       -1.7140   27.3920   51.4020 C.ar    0  <0>0        0.0033
     16  C17       -0.0320   26.1380   53.2280 C.ar    0  <0>0        0.0033
     17  C18       -0.3890   25.4990   52.0530 C.ar    0  <0>0        0.0001
     18  C19       -1.2240   26.1230   51.1460 C.ar    0  <0>0        0.0001
     19  O1         0.3950   28.0880   55.6290 O.2     0  <0>0       -0.2865
     20  C6         1.8550   31.4420   59.0220 C.ar    0  <0>0        0.0656
     21  C11        3.0510   30.7380   59.0730 C.ar    0  <0>0        0.0471
     22  C10        4.0990   31.2150   59.8390 C.ar    0  <0>0        0.1416
     23  C9         3.9540   32.3880   60.5600 C.ar    0  <0>0        0.0297
     24  F1         5.2660   30.5340   59.8860 F       0  <0>0       -0.2041
     25  C8         2.7620   33.0870   60.5130 C.ar    0  <0>0        0.0038
     26  C7         1.7140   32.6170   59.7480 C.ar    0  <0>0        0.0176
@<TRIPOS>BOND
     1    18    15   ar
     2    18    17   ar
     3    15    12   ar
     4    17    16   ar
     5    13    10    2
     6    12    10    1
     7    12    14   ar
     8    10     9    1
     9    16    14   ar
    10    14    11    1
    11     9    11    1
    12     9     8    2
    13    11    19    2
    14     8     4    1
    15     7     5    1
    16     4     5   ar
    17     4     3   ar
    18     5     6   ar
    19     3     2   ar
    20     6     2   ar
    21     6    20    1
    22     2     1    1
    23    20    21   ar
    24    20    26   ar
    25    21    22   ar
    26    26    25   ar
    27    22    24    1
    28    22    23   ar
    29    25    23   ar

@<TRIPOS>MOLECULE
ZINC05415463_replica-1.pdb
 23 24 0 0 0
SMALL
GASTEIGER

@<TRIPOS>ATOM
      1  N2        -0.0510   30.5340   55.6070 N.2     0  <0>0       -0.1833
      2  C8        -0.8990   29.5540   55.5610 C.2     0  <0>0        0.0774
      3  C9        -2.0410   29.4980   56.5430 C.3     0  <0>0        0.0538
      4  N1        -0.1950   31.5410   56.5700 N.am    0  <0>0       -0.2026
      5  C7         0.8890   32.0260   57.2070 C.2     0  <0>0        0.2672
      6  O2         1.9940   31.5890   56.9450 O.2     0  <0>0       -0.2683
      7  H8        -1.0760   31.8890   56.7800 H       0  <0>0        0.1776
      8  C4         0.7370   33.0840   58.2210 C.ar    0  <0>0        0.0879
      9  C3         0.3380   32.9190   59.6250 C.ar    0  <0>0        0.0402
     10  C2         0.3400   34.1500   60.1580 C.ar    0  <0>0        0.1230
     11  C1        -0.0020   34.4860   61.5860 C.3     0  <0>0        0.0725
     12  O1         0.6890   35.0370   59.2120 O.2     0  <0>0       -0.4619
     13  C5         0.9310   34.4240   58.0490 C.ar    0  <0>0        0.1272
     14  C6         1.3460   35.0980   56.7670 C.3     0  <0>0        0.0726
     15  C10       -0.7470   28.4940   54.5470 C.ar    0  <0>0        0.0265
     16  C15       -1.3810   28.6140   53.3060 C.ar    0  <0>0        0.0702
     17  C14       -1.2300   27.6200   52.3590 C.ar    0  <0>0        0.0788
     18 Cl         -2.3490   30.0120   52.9540 Cl      0  <0>0       -0.0813
     19  C13       -0.4620   26.5010   52.6410 C.ar    0  <0>0        0.0690
     20 Cl         -2.0100   27.7680   50.8150 Cl      0  <0>0       -0.0805
     21  C12        0.1640   26.3760   53.8700 C.ar    0  <0>0        0.0123
     22 Cl         -0.2820   25.2530   51.4490 Cl      0  <0>0       -0.0813
     23  C11        0.0260   27.3630   54.8230 C.ar    0  <0>0        0.0030
@<TRIPOS>BOND
     1    20    17    1
     2    22    19    1
     3    17    19   ar
     4    17    16   ar
     5    19    21   ar
     6    18    16    1
     7    16    15   ar
     8    21    23   ar
     9    15    23   ar
    10    15     2    1
    11     2     1    2
    12     2     3    1
    13     1     4    1
    14     4     7    1
    15     4     5   am
    16    14    13    1
    17     6     5    2
    18     5     8    1
    19    13     8   ar
    20    13    12   ar
    21     8     9   ar
    22    12    10   ar
    23     9    10   ar
    24    10    11    1

@<TRIPOS>MOLECULE
ZINC27922718_replica-1.pdb
 28 31 0 0 0
SMALL
GASTEIGER

@<TRIPOS>ATOM
      1  C7         0.8040   31.0720   58.0970 C.ar    0  <0>0        0.0793
      2  C8         0.1040   30.2700   59.0100 C.ar    0  <0>0        0.0935
      3  N2        -0.8090   29.6000   58.3540 N.ar    0  <0>0       -0.1724
      4  N3        -0.7240   29.9480   57.0010 N.ar    0  <0>0       -0.2495
      5  C9         0.2770   30.8570   56.8650 C.ar    0  <0>0        0.0709
      6  C10        0.7200   31.5090   55.5810 C.3     0  <0>0        0.0531
      7  C22        0.3570   30.1930   60.4940 C.3     0  <0>0        0.0553
      8  C11       -1.5670   29.4270   55.9210 C.3     0  <0>0        0.1534
      9  C12       -0.8830   28.2520   55.2730 C.ar    0  <0>0        0.0021
     10  C17       -1.0390   28.0150   53.8970 C.ar    0  <0>0       -0.0021
     11  C16       -0.3880   26.9020   53.3050 C.ar    0  <0>0       -0.0002
     12  C18       -1.8280   28.8580   53.0950 C.ar    0  <0>0       -0.0003
     13  C15        0.4000   26.0590   54.1060 C.ar    0  <0>0       -0.0000
     14  C21       -0.5430   26.6660   51.9290 C.ar    0  <0>0       -0.0000
     15  C14        0.5280   26.3200   55.4370 C.ar    0  <0>0       -0.0003
     16  C13       -0.1070   27.4170   56.0160 C.ar    0  <0>0       -0.0023
     17  C20       -1.3150   27.5040   51.1840 C.ar    0  <0>0       -0.0000
     18  C19       -1.9550   28.5970   51.7650 C.ar    0  <0>0       -0.0000
     19  N1         1.8610   31.9470   58.4060 N.am    0  <0>0       -0.2781
     20  C6         1.6050   33.2370   58.7000 C.2     0  <0>0        0.2553
     21  O1         0.4540   33.6210   58.8010 O.2     0  <0>0       -0.2693
     22  H6         2.8980   31.5790   58.4060 H       0  <0>0        0.1553
     23  C5         2.7110   34.1780   58.9000 C.ar    0  <0>0        0.0791
     24  C2         2.9550   35.3870   58.2670 C.ar    0  <0>0       -0.0109
     25  C1         2.0260   35.9220   57.2080 C.3     0  <0>0        0.0317
     26  C3         4.0760   36.0790   58.6520 C.ar    0  <0>0        0.0034
     27  C4         4.8860   35.5510   59.6060 C.ar    0  <0>0        0.0353
     28  S1         4.1000   34.0610   60.0130 S.2     0  <0>0       -0.0822
@<TRIPOS>BOND
     1    17    18   ar
     2    17    14   ar
     3    18    12   ar
     4    14    11   ar
     5    12    10   ar
     6    11    10   ar
     7    11    13   ar
     8    10     9   ar
     9    13    15   ar
    10     9     8    1
    11     9    16   ar
    12    15    16   ar
    13     6     5    1
    14     8     4    1
    15     5     4   ar
    16     5     1   ar
    17     4     3   ar
    18    25    24    1
    19     1    19    1
    20     1     2   ar
    21    24    26   ar
    22    24    23   ar
    23     3     2   ar
    24    19    22    1
    25    19    20   am
    26    26    27   ar
    27    20    21    2
    28    20    23    1
    29    23    28   ar
    30     2     7    1
    31    27    28   ar

@<TRIPOS>MOLECULE
ZINC61093393_replica-1.pdb
 20 21 0 0 0
SMALL
GASTEIGER

@<TRIPOS>ATOM
      1  N1         9.0430   35.4940   59.9620 N.pl3   0  <0>0       -0.3322
      2  H12        8.3450   35.1330   60.5320 H       0  <0>0        0.1468
      3  C2        10.3730   35.7630   60.5130 C.3     0  <0>0        0.0696
      4  C1        10.2510   36.7390   61.6860 C.3     0  <0>0        0.0212
      5  C3        10.9970   34.4540   61.0010 C.3     0  <0>0        0.0274
      6  C4        12.0590   34.7590   62.0600 C.3     0  <0>0        0.0662
      7  C5        12.5800   33.4670   62.6360 C.ar    0  <0>0        0.1230
      8  O1        11.8910   32.3190   62.7370 O.2     0  <0>0       -0.4547
      9  C8        12.6700   31.3780   63.2950 C.ar    0  <0>0        0.1791
     10  C7        13.8690   31.9240   63.5650 C.ar    0  <0>0        0.0434
     11  C6        13.8110   33.2710   63.1400 C.ar    0  <0>0        0.0362
     12  C9         8.7770   35.7570   58.6140 C.ar    0  <0>0        0.0748
     13  C14        8.6990   34.7110   57.7020 C.ar    0  <0>0        0.1555
     14  C13        8.4290   34.9730   56.3710 C.ar    0  <0>0        0.0628
     15  F1         8.8800   33.4380   58.1170 F       0  <0>0       -0.2028
     16  C12        8.2490   36.2770   55.9430 C.ar    0  <0>0        0.1697
     17  C11        8.3310   37.3230   56.8510 C.ar    0  <0>0        0.1688
     18  F2         7.9920   36.5310   54.6420 F       0  <0>0       -0.2017
     19  C10        8.5940   37.0640   58.1830 C.ar    0  <0>0        0.0485
     20  F3         8.1550   38.5950   56.4320 F       0  <0>0       -0.2018
@<TRIPOS>BOND
     1    18    16    1
     2    16    14   ar
     3    16    17   ar
     4    14    13   ar
     5    20    17    1
     6    17    19   ar
     7    13    15    1
     8    13    12   ar
     9    19    12   ar
    10    12     1    1
    11     1     3    1
    12     1     2    1
    13     3     5    1
    14     3     4    1
    15     5     6    1
    16     6     7    1
    17     7     8   ar
    18     7    11   ar
    19     8     9   ar
    20    11    10   ar
    21     9    10   ar

@<TRIPOS>MOLECULE
ZINC41661045_replica-1.pdb
 30 34 0 0 0
SMALL
GASTEIGER

@<TRIPOS>ATOM
      1  C6         2.3570   32.1440   60.4400 C.2     0  <0>0        0.0470
      2  C7         1.5410   31.1100   60.0880 C.2     0  <0>0        0.1845
      3  C8         1.4470   29.8600   60.7570 C.2     0  <0>0        0.2327
      4  O1         2.0690   29.5000   61.7440 O.2     0  <0>0       -0.2832
      5  C9         0.4390   29.0930   60.0040 C.ar    0  <0>0        0.0765
      6  C10       -0.1000   27.8150   60.1470 C.ar    0  <0>0        0.0094
      7  C11       -1.0450   27.3760   59.2650 C.ar    0  <0>0        0.0370
      8  C12       -1.4750   28.1970   58.2220 C.ar    0  <0>0        0.1407
      9  C13       -0.9500   29.4680   58.0710 C.ar    0  <0>0        0.0626
     10  C14        0.0140   29.9300   58.9600 C.ar    0  <0>0        0.1487
     11  O2         0.6790   31.1030   59.0440 O.3     0  <0>0       -0.4503
     12  C15       -1.4120   30.3690   56.9540 C.3     0  <0>0        0.1082
     13  N1        -2.0920   29.5690   55.9260 N.3     0  <0>0       -0.2316
     14  C16       -3.0940   28.6890   56.5500 C.3     0  <0>0        0.2848
     15  O3        -2.4150   27.7270   57.3600 O.3     0  <0>0       -0.4583
     16  C17       -2.7090   30.4320   54.9100 C.3     0  <0>0        0.0761
     17  C18       -2.1920   30.0400   53.5240 C.3     0  <0>0        0.0221
     18  C19       -0.8770   29.2710   53.6690 C.3     0  <0>0        0.0278
     19  C20       -0.9510   27.9950   52.8710 C.ar    0  <0>0       -0.0221
     20  C25       -0.2810   26.8670   53.3090 C.ar    0  <0>0       -0.0043
     21  C24       -0.3520   25.6950   52.5790 C.ar    0  <0>0       -0.0003
     22  C23       -1.0860   25.6530   51.4080 C.ar    0  <0>0       -0.0000
     23  C22       -1.7510   26.7820   50.9690 C.ar    0  <0>0       -0.0003
     24  C21       -1.6830   27.9530   51.7000 C.ar    0  <0>0       -0.0043
     25  C5         2.3480   33.3400   59.6880 C.ar    0  <0>0        0.0287
     26  C2         1.4820   34.4270   59.7780 C.ar    0  <0>0       -0.0152
     27  C1         0.3490   34.4710   60.7720 C.3     0  <0>0        0.0316
     28  C3         1.7310   35.4580   58.9070 C.ar    0  <0>0        0.0032
     29  C4         2.7690   35.3540   58.0390 C.ar    0  <0>0        0.0351
     30  S1         3.4410   33.8510   58.3760 S.2     0  <0>0       -0.0867
@<TRIPOS>BOND
     1    23    22   ar
     2    23    24   ar
     3    22    21   ar
     4    24    19   ar
     5    21    20   ar
     6    19    20   ar
     7    19    18    1
     8    17    18    1
     9    17    16    1
    10    16    13    1
    11    13    14    1
    12    13    12    1
    13    14    15    1
    14    12     9    1
    15    15     8    1
    16    29    30   ar
    17    29    28   ar
    18     9     8   ar
    19     9    10   ar
    20     8     7   ar
    21    30    25   ar
    22    28    26   ar
    23    10    11    1
    24    10     5   ar
    25    11     2    1
    26     7     6   ar
    27    25    26   ar
    28    25     1    1
    29    26    27    1
    30     5     6   ar
    31     5     3    1
    32     2     1    2
    33     2     3    1
    34     3     4    2

@<TRIPOS>MOLECULE
ZINC22076485_replica-1.pdb
 27 30 0 0 0
SMALL
GASTEIGER

@<TRIPOS>ATOM
      1  N2         5.6080   33.7580   59.4330 N.3     0  <0>0       -0.2908
      2  H11        6.0280   34.4700   60.1580 H       0  <0>0        0.1237
      3  C10        4.7740   34.4820   58.4630 C.3     0  <0>0        0.0737
      4  C9         4.3600   35.8310   59.0540 C.3     0  <0>0        0.0450
      5  C7         5.5920   36.6220   59.4120 C.ar    0  <0>0       -0.0024
      6  C5         6.5710   37.1820   58.4770 C.ar    0  <0>0        0.0131
      7  C4         7.5370   37.8310   59.2680 C.ar    0  <0>0        0.0563
      8  C6         6.6910   37.1860   57.0860 C.ar    0  <0>0        0.0012
      9  C3         8.6080   38.4670   58.6490 C.ar    0  <0>0        0.0170
     10  N1         7.1600   37.6690   60.5820 N.ar    0  <0>0       -0.3523
     11  C2         8.7100   38.4550   57.2750 C.ar    0  <0>0        0.0015
     12  C1         7.7540   37.8140   56.5000 C.ar    0  <0>0        0.0001
     13  C8         6.0000   36.9470   60.6490 C.ar    0  <0>0        0.0681
     14  H1         7.7740   38.0990   61.3870 H       0  <0>0        0.1660
     15  C11        6.7140   33.0620   58.7610 C.3     0  <0>0        0.1341
     16  C12        8.0120   33.7580   59.0790 C.ar    0  <0>0        0.1388
     17  O1         8.6110   33.7870   60.2810 O.2     0  <0>0       -0.4563
     18  C15        9.7510   34.4980   60.1960 C.ar    0  <0>0        0.1471
     19  C14        9.8850   34.9320   58.9140 C.ar    0  <0>0        0.0404
     20  C13        8.7680   34.4480   58.2040 C.ar    0  <0>0        0.0375
     21  C16       10.6940   34.7620   61.3030 C.ar    0  <0>0        0.0620
     22  C21       10.8920   36.0670   61.7620 C.ar    0  <0>0        0.1430
     23  C20       11.7730   36.3040   62.8000 C.ar    0  <0>0        0.0297
     24  F1        10.2200   37.0930   61.1930 F       0  <0>0       -0.2041
     25  C19       12.4630   35.2560   63.3770 C.ar    0  <0>0        0.0023
     26  C18       12.2760   33.9620   62.9240 C.ar    0  <0>0        0.0002
     27  C17       11.3970   33.7080   61.8920 C.ar    0  <0>0        0.0053
@<TRIPOS>BOND
     1    12     8   ar
     2    12    11   ar
     3     8     6   ar
     4    11     9   ar
     5    20    19   ar
     6    20    16   ar
     7     3     4    1
     8     3     1    1
     9     6     7   ar
    10     6     5   ar
    11     9     7   ar
    12    15    16    1
    13    15     1    1
    14    19    18   ar
    15     4     5    1
    16    16    17   ar
    17     7    10   ar
    18     5    13   ar
    19     1     2    1
    20    18    17   ar
    21    18    21    1
    22    10    13   ar
    23    10    14    1
    24    24    22    1
    25    21    22   ar
    26    21    27   ar
    27    22    23   ar
    28    27    26   ar
    29    23    25   ar
    30    26    25   ar

@<TRIPOS>MOLECULE
ZINC39847191_replica-1.pdb
 25 28 0 0 0
SMALL
GASTEIGER

@<TRIPOS>ATOM
      1  N2         0.5750   33.0460   57.0580 N.2     0  <0>0       -0.1892
      2  C8        -0.0550   32.0460   56.4760 C.2     0  <0>0        0.1649
      3  N3        -1.3940   31.7360   56.5350 N.am    0  <0>0       -0.2636
      4  C9        -1.9130   30.6970   55.9030 C.2     0  <0>0        0.2379
      5  O1        -3.0940   30.4310   55.9600 O.2     0  <0>0       -0.2738
      6  C10       -0.9330   29.8570   55.1000 C.3     0  <0>0        0.1353
      7  S2         0.6290   30.7770   55.4210 S.3     0  <0>0       -0.0710
      8  H6        -1.9810   32.3020   57.0620 H       0  <0>0        0.1568
      9  C7         1.9050   33.2010   56.8810 C.2     0  <0>0        0.2469
     10  N1         2.5420   34.0290   56.0730 N.2     0  <0>0       -0.3760
     11  C5         3.8890   34.0740   56.0020 C.2     0  <0>0        0.1393
     12  C4         4.5790   33.1780   56.8510 C.2     0  <0>0        0.0590
     13  C6         4.6910   34.9050   55.1860 C.2     0  <0>0        0.0284
     14  C3         5.9490   33.1040   56.8930 C.2     0  <0>0       -0.0123
     15  S1         3.2500   32.3410   57.6820 S.3     0  <0>0       -0.0334
     16  C2         6.7020   33.9330   56.0810 C.3     0  <0>0        0.0527
     17  C1         6.0580   34.8250   55.2360 C.2     0  <0>0       -0.0188
     18  C11       -1.2830   29.8690   53.6100 C.3     0  <0>0        0.0468
     19  C12       -1.0790   28.4920   53.0340 C.ar    0  <0>0       -0.0208
     20  C17       -1.6820   28.1450   51.8400 C.ar    0  <0>0       -0.0034
     21  C16       -1.4910   26.8840   51.3080 C.ar    0  <0>0        0.0111
     22  C15       -0.7040   25.9630   51.9780 C.ar    0  <0>0        0.0577
     23  C14       -0.1060   26.3090   53.1770 C.ar    0  <0>0        0.0111
     24 Cl         -0.4680   24.3770   51.3160 Cl      0  <0>0       -0.0822
     25  C13       -0.2930   27.5720   53.7040 C.ar    0  <0>0       -0.0034
@<TRIPOS>BOND
     1    21    20   ar
     2    21    22   ar
     3    24    22    1
     4    20    19   ar
     5    22    23   ar
     6    19    18    1
     7    19    25   ar
     8    23    25   ar
     9    18     6    1
    10     6     7    1
    11     6     4    1
    12    13    17    2
    13    13    11    1
    14    17    16    1
    15     7     2    1
    16     4     5    2
    17     4     3   am
    18    11    10    2
    19    11    12    1
    20    10     9    2
    21    16    14    1
    22     2     3    1
    23     2     1    2
    24     3     8    1
    25    12    14    2
    26    12    15    1
    27     9     1    1
    28     9    15    1

@<TRIPOS>MOLECULE
ZINC49526379_replica-1.pdb
 20 22 0 0 0
SMALL
GASTEIGER

@<TRIPOS>ATOM
      1  N1         7.6330   36.0240   57.7030 N.am    0  <0>0       -0.1148
      2  C9         7.6670   35.0220   56.7570 C.2     0  <0>0        0.3700
      3  N2         8.0820   35.5660   55.6340 N.2     0  <0>0        0.0931
      4  N3         8.3070   36.8190   55.8110 N.2     0  <0>0        0.0474
      5  C10        8.0440   37.1550   57.0540 C.1     0  <0>0        0.1798
      6  S1         8.1980   38.7640   57.7560 S.2     0  <0>0        0.0561
      7  C2         7.2360   35.9030   59.1070 C.3     0  <0>0        0.1974
      8  C1         6.3440   37.0860   59.4870 C.3     0  <0>0        0.0571
      9  C3         8.4640   35.8990   59.9790 C.ar    0  <0>0        0.0211
     10  C8         9.4800   34.9930   59.7380 C.ar    0  <0>0        0.0005
     11  C7        10.6090   34.9940   60.5340 C.ar    0  <0>0        0.0112
     12  C6        10.7190   35.8940   61.5790 C.ar    0  <0>0        0.0577
     13  C5         9.7000   36.7970   61.8230 C.ar    0  <0>0        0.0112
     14 Cl         12.1350   35.8910   62.5840 Cl      0  <0>0       -0.0822
     15  C4         8.5740   36.7990   61.0230 C.ar    0  <0>0        0.0005
     16  C11        7.3060   33.6110   56.9650 C.ar    0  <0>0        0.1152
     17  S2         5.6900   32.8510   56.9660 S.2     0  <0>0       -0.0790
     18  C14        6.2010   31.1690   57.2820 C.ar    0  <0>0        0.0357
     19  C13        7.5510   31.2940   57.3730 C.ar    0  <0>0        0.0077
     20  C12        8.1230   32.5360   57.2120 C.ar    0  <0>0        0.0146
@<TRIPOS>BOND
     1     3     4    1
     2     3     2    2
     3     4     5    2
     4     2    16    1
     5     2     1    1
     6    16    17   ar
     7    16    20   ar
     8    17    18   ar
     9     5     1    1
    10     5     6    2
    11    20    19   ar
    12    18    19   ar
    13     1     7    1
    14     7     8    1
    15     7     9    1
    16    10     9   ar
    17    10    11   ar
    18     9    15   ar
    19    11    12   ar
    20    15    13   ar
    21    12    13   ar
    22    12    14    1

@<TRIPOS>MOLECULE
ZINC22451363_replica-1.pdb
 25 27 0 0 0
SMALL
GASTEIGER

@<TRIPOS>ATOM
      1  C9        -1.2470   29.8370   56.9760 C.2     0  <0>0        0.1100
      2  C10       -1.0600   28.7210   57.7390 C.3     0  <0>0        0.1406
      3  C11       -0.2010   28.7930   58.8500 C.2     0  <0>0        0.2357
      4  O1        -0.0110   27.8150   59.5540 O.2     0  <0>0       -0.2742
      5  N1         0.4100   29.9660   59.1230 N.am    0  <0>0       -0.2469
      6  H1         1.0860   30.0450   59.9860 H       0  <0>0        0.1585
      7  C12        0.1860   31.0450   58.3260 C.2     0  <0>0        0.2432
      8  N2        -0.6260   30.9710   57.2900 N.2     0  <0>0       -0.3803
      9  N3         0.8080   32.2310   58.6100 N.pl3   0  <0>0       -0.2715
     10  C13        0.6160   32.6040   60.0170 C.3     0  <0>0        0.0943
     11  C14        1.4420   33.8520   60.3330 C.3     0  <0>0        0.0199
     12  C15        1.0000   34.9970   59.4170 C.3     0  <0>0        0.0034
     13  C16        1.1650   34.5650   57.9580 C.3     0  <0>0        0.0199
     14  C17        0.3470   33.2970   57.7110 C.3     0  <0>0        0.0943
     15  C18        0.6690   35.6810   57.0360 C.3     0  <0>0        0.0018
     16  C19        2.9250   33.5550   60.1010 C.3     0  <0>0        0.0018
     17  C8        -2.1630   29.7860   55.7800 C.3     0  <0>0        0.1169
     18  S1        -1.2280   30.2090   54.2840 S.3     0  <0>0       -0.1064
     19  C5        -1.0150   28.6650   53.4640 C.ar    0  <0>0        0.0256
     20  C4        -0.2890   27.6470   54.0710 C.ar    0  <0>0        0.0058
     21  C3        -0.1230   26.4380   53.4240 C.ar    0  <0>0       -0.0038
     22  C2        -0.6810   26.2400   52.1740 C.ar    0  <0>0       -0.0218
     23  C1        -0.4980   24.9180   51.4730 C.3     0  <0>0        0.0310
     24  C7        -1.4040   27.2490   51.5670 C.ar    0  <0>0       -0.0038
     25  C6        -1.5770   28.4590   52.2090 C.ar    0  <0>0        0.0058
@<TRIPOS>BOND
     1    23    22    1
     2    24    22   ar
     3    24    25   ar
     4    22    21   ar
     5    25    19   ar
     6    21    20   ar
     7    19    20   ar
     8    19    18    1
     9    18    17    1
    10    17     1    1
    11     1     8    2
    12     1     2    1
    13    15    13    1
    14     8     7    2
    15    14    13    1
    16    14     9    1
    17     2     3    1
    18    13    12    1
    19     7     9    1
    20     7     5    1
    21     9    10    1
    22     3     5   am
    23     3     4    2
    24     5     6    1
    25    12    11    1
    26    10    11    1
    27    16    11    1

@<TRIPOS>MOLECULE
ZINC05100908_replica-1.pdb
 24 27 0 0 0
SMALL
GASTEIGER

@<TRIPOS>ATOM
      1  C1        -2.2530   28.2910   57.1190 C.3     0  <0>0        0.1230
      2  N1        -1.5170   29.5560   57.0450 N.am    0  <0>0       -0.2266
      3  C2        -0.7080   29.8940   58.0770 C.2     0  <0>0        0.2422
      4  O1        -0.5760   29.1800   59.0570 O.2     0  <0>0       -0.2737
      5  C3        -0.0160   31.1420   57.9470 C.3     0  <0>0        0.1540
      6  C4         0.9060   31.7280   58.9050 C.2     0  <0>0       -0.0267
      7  C5         1.4480   32.9220   58.5750 C.2     0  <0>0        0.0023
      8  S1         0.7650   33.3190   56.9850 S.3     0  <0>0       -0.0639
      9  C6        -0.2440   31.8870   56.7680 C.2     0  <0>0        0.1524
     10  N2        -1.0530   31.4990   55.7900 N.2     0  <0>0       -0.3776
     11  C7        -1.6780   30.3390   55.9430 C.2     0  <0>0        0.2169
     12  C15        2.4120   33.7360   59.3830 C.3     0  <0>0        0.0324
     13  C16        2.4320   33.1900   60.8150 C.3     0  <0>0        0.0055
     14  C17        2.5600   31.6640   60.7610 C.3     0  <0>0        0.0047
     15  C18        1.2630   31.0530   60.2280 C.3     0  <0>0        0.0231
     16  S2        -2.7610   29.7880   54.6670 S.3     0  <0>0       -0.0619
     17  C8        -1.6300   29.8320   53.2540 C.3     0  <0>0        0.0921
     18  C9        -1.2640   28.4250   52.8590 C.ar    0  <0>0       -0.0107
     19  C14       -1.6770   27.9200   51.6400 C.ar    0  <0>0       -0.0011
     20  C13       -1.3420   26.6290   51.2760 C.ar    0  <0>0        0.0293
     21  C12       -0.5930   25.8420   52.1340 C.ar    0  <0>0        0.1401
     22  C11       -0.1810   26.3480   53.3550 C.ar    0  <0>0        0.0293
     23  F1        -0.2660   24.5800   51.7790 F       0  <0>0       -0.2042
     24  C10       -0.5120   27.6400   53.7140 C.ar    0  <0>0       -0.0011
@<TRIPOS>BOND
     1    20    19   ar
     2    20    21   ar
     3    19    18   ar
     4    23    21    1
     5    21    22   ar
     6    18    17    1
     7    18    24   ar
     8    17    16    1
     9    22    24   ar
    10    16    11    1
    11    10    11    2
    12    10     9    2
    13    11     2    1
    14     9     8    1
    15     9     5    1
    16     8     7    1
    17     2     1    1
    18     2     3   am
    19     5     3    1
    20     5     6    1
    21     3     4    2
    22     7     6    2
    23     7    12    1
    24     6    15    1
    25    12    13    1
    26    15    14    1
    27    14    13    1

@<TRIPOS>MOLECULE
ZINC10156564_replica-1.pdb
 25 28 0 0 0
SMALL
GASTEIGER

@<TRIPOS>ATOM
      1  C1         7.2570   38.3340   59.3050 C.3     0  <0>0        0.0634
      2  C2         7.2560   36.8350   59.4670 C.2     0  <0>0        0.1136
      3  C3         8.3240   36.1840   60.0990 C.3     0  <0>0        0.1551
      4  C4         8.2860   34.7910   60.2320 C.2     0  <0>0        0.1136
      5  N1         7.2410   34.1400   59.7520 N.2     0  <0>0       -0.3361
      6  C5         6.2490   34.7890   59.1560 C.1     0  <0>0        0.2022
      7  N2         6.2520   36.1090   59.0100 N.2     0  <0>0       -0.3361
      8  N3         5.1790   34.0680   58.6690 N.pl3   0  <0>0       -0.2378
      9  C12        9.3950   34.0350   60.9080 C.3     0  <0>0        0.0616
     10  C13       10.6950   34.8350   60.8940 C.3     0  <0>0        0.0425
     11  C14       10.4510   36.2200   61.5080 C.3     0  <0>0        0.0706
     12  C15        9.4690   36.9480   60.6120 C.2     0  <0>0        0.1633
     13  O1         9.6220   38.1170   60.3300 O.2     0  <0>0       -0.2952
     14  H5         5.1970   33.0990   58.6910 H       0  <0>0        0.1657
     15  C6         4.0680   34.7360   58.1430 C.ar    0  <0>0        0.0584
     16  C11        2.9930   35.0510   58.9640 C.ar    0  <0>0        0.0153
     17  C10        1.8980   35.7100   58.4420 C.ar    0  <0>0        0.0013
     18  C9         1.8710   36.0560   57.1020 C.ar    0  <0>0        0.0001
     19  C8         2.9420   35.7480   56.2840 C.ar    0  <0>0        0.0013
     20  C7         4.0380   35.0840   56.7990 C.ar    0  <0>0        0.0153
     21  C16       11.7410   34.1060   61.6970 C.ar    0  <0>0        0.0078
     22  S1        11.5710   32.6290   62.6850 S.2     0  <0>0       -0.0908
     23  C19       13.2630   32.5050   63.2440 C.ar    0  <0>0        0.0351
     24  C18       13.8340   33.5810   62.6500 C.ar    0  <0>0        0.0072
     25  C17       13.0550   34.3990   61.8530 C.ar    0  <0>0        0.0027
@<TRIPOS>BOND
     1    19    20   ar
     2    19    18   ar
     3    20    15   ar
     4    18    17   ar
     5    15     8    1
     6    15    16   ar
     7    17    16   ar
     8     8    14    1
     9     8     6    1
    10     7     6    2
    11     7     2    2
    12     6     5    2
    13     1     2    1
    14     2     3    1
    15     5     4    2
    16     3     4    1
    17     3    12    1
    18     4     9    1
    19    13    12    2
    20    12    11    1
    21    10     9    1
    22    10    11    1
    23    10    21    1
    24    21    25   ar
    25    21    22   ar
    26    25    24   ar
    27    24    23   ar
    28    22    23   ar

@<TRIPOS>MOLECULE
ZINC05710625_replica-1.pdb
 25 27 0 0 0
SMALL
GASTEIGER

@<TRIPOS>ATOM
      1  C8         9.5030   35.4620   59.4470 C.2     0  <0>0        0.1440
      2  C9         8.6630   36.3630   60.0100 C.3     0  <0>0        0.1240
      3  S2         9.4950   36.6690   61.5610 S.3     0  <0>0       -0.0596
      4  C10       10.8440   35.6040   61.3090 C.2     0  <0>0        0.2107
      5  N1        10.5830   35.1040   60.1150 N.2     0  <0>0       -0.3848
      6  C7         9.2140   34.8850   58.0850 C.3     0  <0>0        0.2635
      7  O2         8.1950   35.6820   57.4280 O.3     0  <0>0       -0.4376
      8  C6         7.1320   35.0220   56.9220 C.2     0  <0>0        0.3474
      9  O1         7.2620   34.3330   55.9280 O.2     0  <0>0       -0.2443
     10  C5         5.8240   35.1350   57.5700 C.ar    0  <0>0        0.1012
     11  C2         4.6590   35.7150   57.0900 C.ar    0  <0>0       -0.0091
     12  C1         4.6000   36.3510   55.7260 C.3     0  <0>0        0.0318
     13  C3         3.5600   35.6780   57.9120 C.ar    0  <0>0        0.0034
     14  C4         3.6660   35.0990   59.1370 C.ar    0  <0>0        0.0353
     15  S1         5.3170   34.5700   59.1840 S.2     0  <0>0       -0.0804
     16  N2        11.9190   35.3470   62.1460 N.pl3   0  <0>0       -0.2830
     17  H9        12.4580   36.0790   62.4810 H       0  <0>0        0.1551
     18  C11       12.2250   34.0290   62.5060 C.ar    0  <0>0        0.0507
     19  C16       13.5450   33.6550   62.7170 C.ar    0  <0>0        0.0178
     20  C15       13.8470   32.3550   63.0730 C.ar    0  <0>0        0.0382
     21  C14       12.8300   31.4230   63.2190 C.ar    0  <0>0        0.1388
     22  C13       11.5110   31.7950   63.0090 C.ar    0  <0>0        0.0382
     23  C12       11.2070   33.0970   62.6580 C.ar    0  <0>0        0.0178
     24  O3        13.1270   30.1430   63.5700 O.3     0  <0>0       -0.4714
     25  C17       12.2220   29.4870   64.4590 C.3     0  <0>0        0.2525
@<TRIPOS>BOND
     1    12    11    1
     2     9     8    2
     3     8     7    1
     4     8    10    1
     5    11    10   ar
     6    11    13   ar
     7     7     6    1
     8    10    15   ar
     9    13    14   ar
    10     6     1    1
    11    14    15   ar
    12     1     2    1
    13     1     5    2
    14     2     3    1
    15     5     4    2
    16     4     3    1
    17     4    16    1
    18    16    17    1
    19    16    18    1
    20    18    23   ar
    21    18    19   ar
    22    23    22   ar
    23    19    20   ar
    24    22    21   ar
    25    20    21   ar
    26    21    24    1
    27    24    25    1

@<TRIPOS>MOLECULE
ZINC57497055_replica-1.pdb
 21 23 0 0 0
SMALL
GASTEIGER

@<TRIPOS>ATOM
      1  C9        -1.4110   30.2400   56.5080 C.2     0  <0>0        0.2162
      2  N1        -0.8650   31.3850   56.1960 N.2     0  <0>0       -0.3835
      3  C10        0.0230   32.0130   57.0230 C.2     0  <0>0        0.1305
      4  C11        0.6840   33.2340   56.8260 C.2     0  <0>0        0.0356
      5  C12        1.5360   33.7040   57.7620 C.2     0  <0>0        0.0340
      6  S2         1.4740   32.4400   59.0210 S.3     0  <0>0       -0.0976
      7  C13        0.3160   31.3540   58.2300 C.3     0  <0>0        0.1806
      8  C14       -0.2690   30.1330   58.5550 C.2     0  <0>0        0.2484
      9  O1        -0.0060   29.5730   59.6070 O.2     0  <0>0       -0.2731
     10  N2        -1.1440   29.5870   57.6770 N.am    0  <0>0       -0.2262
     11  C15       -1.7910   28.3060   57.9760 C.3     0  <0>0        0.1230
     12  S1        -2.5460   29.5110   55.3760 S.3     0  <0>0       -0.0631
     13  C2        -1.7810   29.7810   53.7530 C.3     0  <0>0        0.0778
     14  C1        -2.8110   30.3860   52.7980 C.3     0  <0>0        0.0169
     15  C3        -1.2970   28.4650   53.2010 C.ar    0  <0>0       -0.0098
     16  C8        -0.4990   27.6420   53.9750 C.ar    0  <0>0        0.0262
     17  C7        -0.0590   26.4310   53.4690 C.ar    0  <0>0        0.1399
     18  C6        -0.4090   26.0490   52.1850 C.ar    0  <0>0        0.0296
     19  F1         0.7160   25.6230   54.2270 F       0  <0>0       -0.2042
     20  C5        -1.2010   26.8760   51.4120 C.ar    0  <0>0        0.0020
     21  C4        -1.6450   28.0830   51.9190 C.ar    0  <0>0       -0.0033
@<TRIPOS>BOND
     1    20    21   ar
     2    20    18   ar
     3    21    15   ar
     4    18    17   ar
     5    14    13    1
     6    15    13    1
     7    15    16   ar
     8    17    16   ar
     9    17    19    1
    10    13    12    1
    11    12     1    1
    12     2     1    2
    13     2     3    2
    14     1    10    1
    15     4     3    1
    16     4     5    2
    17     3     7    1
    18    10    11    1
    19    10     8   am
    20     5     6    1
    21     7     8    1
    22     7     6    1
    23     8     9    2

@<TRIPOS>MOLECULE
ZINC53494081_replica-1.pdb
 22 23 0 0 0
SMALL
GASTEIGER

@<TRIPOS>ATOM
      1  N1        -0.2460   28.6950   54.6420 N.pl3   0  <0>0       -0.3760
      2  H25        0.7620   28.7530   54.6040 H       0  <0>0        0.1277
      3  C2        -0.6450   27.8580   55.7810 C.3     0  <0>0        0.0726
      4  C1         0.6020   27.3970   56.5370 C.3     0  <0>0        0.0215
      5  C3        -0.7240   28.1280   53.4560 C.ar    0  <0>0        0.0311
      6  C8        -0.3830   26.8300   53.1240 C.ar    0  <0>0        0.0087
      7  C7        -0.8600   26.2690   51.9540 C.ar    0  <0>0       -0.0207
      8  C6        -1.6690   27.0080   51.1120 C.ar    0  <0>0       -0.0042
      9  C9        -0.4930   24.8530   51.5940 C.3     0  <0>0        0.0311
     10  C5        -2.0060   28.3080   51.4420 C.ar    0  <0>0        0.0009
     11  C4        -1.5330   28.8690   52.6140 C.ar    0  <0>0        0.0130
     12  C10       -0.8090   30.0420   54.8020 C.3     0  <0>0        0.0718
     13  C11       -1.9150   30.0100   55.8600 C.3     0  <0>0        0.0213
     14  C12        0.2920   31.0060   55.2460 C.3     0  <0>0        0.0872
     15  N2        -0.3110   32.2790   55.6660 N.3     0  <0>0       -0.2920
     16  H19       -0.1070   33.0110   55.0030 H       0  <0>0        0.1236
     17  C13        0.1330   32.6520   57.0160 C.3     0  <0>0        0.1022
     18  C14        1.0560   33.8410   56.9310 C.ar    0  <0>0        0.0232
     19  S1         2.6870   33.9490   56.2140 S.2     0  <0>0       -0.0894
     20  C17        3.0000   35.6720   56.5590 C.ar    0  <0>0        0.0352
     21  C16        1.8610   36.0420   57.1930 C.ar    0  <0>0        0.0072
     22  C15        0.8640   35.1030   57.3830 C.ar    0  <0>0        0.0041
@<TRIPOS>BOND
     1     8    10   ar
     2     8     7   ar
     3    10    11   ar
     4     9     7    1
     5     7     6   ar
     6    11     5   ar
     7     6     5   ar
     8     5     1    1
     9     2     1    1
    10     1    12    1
    11     1     3    1
    12    12    14    1
    13    12    13    1
    14    16    15    1
    15    14    15    1
    16    15    17    1
    17     3     4    1
    18    19    20   ar
    19    19    18   ar
    20    20    21   ar
    21    18    17    1
    22    18    22   ar
    23    21    22   ar

@<TRIPOS>MOLECULE
ZINC59181092_replica-1.pdb
 21 22 0 0 0
SMALL
GASTEIGER

@<TRIPOS>ATOM
      1  N1        -1.0860   29.8720   55.3740 N.pl3   0  <0>0       -0.3286
      2  H12       -1.9370   29.9320   55.8360 H       0  <0>0        0.1471
      3  C8        -0.6390   28.6390   54.8920 C.ar    0  <0>0        0.0446
      4  C7         0.0050   27.7510   55.7450 C.ar    0  <0>0        0.0143
      5  C6         0.4460   26.5330   55.2660 C.ar    0  <0>0        0.0009
      6  C5         0.2460   26.1970   53.9400 C.ar    0  <0>0       -0.0042
      7  C4        -0.3940   27.0780   53.0890 C.ar    0  <0>0       -0.0213
      8  C9        -0.8320   28.3000   53.5600 C.ar    0  <0>0        0.0100
      9  C2        -0.6090   26.7070   51.6440 C.3     0  <0>0        0.0224
     10  C1        -0.9260   25.2140   51.5420 C.3     0  <0>0        0.0047
     11  C3        -1.7780   27.5180   51.0780 C.3     0  <0>0        0.0047
     12  C10       -0.2710   31.0740   55.1800 C.3     0  <0>0        0.1224
     13  C11        0.0920   31.6560   56.5220 C.ar    0  <0>0        0.0471
     14  S1         0.7250   33.2750   56.9300 S.2     0  <0>0       -0.0734
     15  C13        0.8360   33.0670   58.5950 C.ar    0  <0>0        0.0872
     16  N2         0.4180   31.8380   58.7720 N.ar    0  <0>0       -0.2415
     17  C12        0.0350   31.0920   57.7560 C.ar    0  <0>0        0.1029
     18  C14        1.3080   34.0530   59.6330 C.3     0  <0>0        0.0412
     19  C15        2.6890   33.6360   60.1430 C.3     0  <0>0        0.0065
     20  C16        1.3940   35.4480   59.0090 C.3     0  <0>0        0.0065
     21  C17        0.3190   34.0770   60.8010 C.3     0  <0>0        0.0065
@<TRIPOS>BOND
     1    11     9    1
     2    10     9    1
     3     9     7    1
     4     7     8   ar
     5     7     6   ar
     6     8     3   ar
     7     6     5   ar
     8     3     1    1
     9     3     4   ar
    10    12     1    1
    11    12    13    1
    12     5     4   ar
    13     1     2    1
    14    13    14   ar
    15    13    17   ar
    16    14    15   ar
    17    17    16   ar
    18    15    16   ar
    19    15    18    1
    20    20    18    1
    21    18    19    1
    22    18    21    1

@<TRIPOS>MOLECULE
ZINC04704066_replica-1.pdb
 23 26 0 0 0
SMALL
GASTEIGER

@<TRIPOS>ATOM
      1  C5         4.2840   33.8310   56.5270 C.3     0  <0>0        0.1521
      2  N1         5.6240   34.2390   57.0110 N.am    0  <0>0       -0.2719
      3  C6         6.5730   34.4020   55.8890 C.3     0  <0>0        0.1637
      4  C7         5.9150   35.3250   54.8260 C.3     0  <0>0        0.0886
      5  S2         4.2000   34.6400   54.8750 S.3     0  <0>0       -0.1140
      6  C8         7.7510   35.1040   56.5230 C.2     0  <0>0        0.2533
      7  O1         8.7200   35.5670   55.9590 O.2     0  <0>0       -0.2723
      8  N2         7.4970   35.1080   57.8480 N.am    0  <0>0       -0.2185
      9  C9         6.3140   34.5430   58.1240 C.2     0  <0>0        0.1487
     10  S3         5.7460   34.2440   59.7110 S.2     0  <0>0       -0.0177
     11  C10        8.3640   35.6370   58.8160 C.ar    0  <0>0        0.0607
     12  C15        9.3350   34.8300   59.3930 C.ar    0  <0>0        0.0289
     13  C14       10.1880   35.3530   60.3470 C.ar    0  <0>0        0.0863
     14  C13       10.0740   36.6800   60.7260 C.ar    0  <0>0        0.1507
     15 Cl         11.4030   34.3450   61.0700 Cl      0  <0>0       -0.0799
     16  C12        9.1050   37.4860   60.1510 C.ar    0  <0>0        0.0318
     17  F1        10.9090   37.1890   61.6590 F       0  <0>0       -0.2033
     18  C11        8.2560   36.9680   59.1930 C.ar    0  <0>0        0.0176
     19  C3         3.2040   34.3570   57.4370 C.ar    0  <0>0        0.0356
     20  C2         2.8260   35.6390   57.6620 C.ar    0  <0>0        0.0052
     21  C1         1.7970   35.8900   58.5490 C.ar    0  <0>0        0.0072
     22  C4         1.1960   34.8450   59.1700 C.ar    0  <0>0        0.0352
     23  S1         2.0890   33.4530   58.4970 S.2     0  <0>0       -0.0883
@<TRIPOS>BOND
     1     4     5    1
     2     4     3    1
     3     5     1    1
     4     3     6    1
     5     3     2    1
     6     7     6    2
     7     6     8   am
     8     1     2    1
     9     1    19    1
    10     2     9    1
    11    19    20   ar
    12    19    23   ar
    13    20    21   ar
    14     8     9    1
    15     8    11    1
    16     9    10    2
    17    23    22   ar
    18    21    22   ar
    19    11    18   ar
    20    11    12   ar
    21    18    16   ar
    22    12    13   ar
    23    16    14   ar
    24    13    14   ar
    25    13    15    1
    26    14    17    1

@<TRIPOS>MOLECULE
ZINC13388339_replica-1.pdb
 24 25 0 0 0
SMALL
GASTEIGER

@<TRIPOS>ATOM
      1  C3         7.2960   36.7230   56.6300 C.2     0  <0>0        0.2629
      2  O1         6.9520   37.3000   55.6200 O.2     0  <0>0       -0.2712
      3  N1         6.6650   35.5940   57.0080 N.am    0  <0>0       -0.2983
      4  H6         6.9390   35.1330   57.8160 H       0  <0>0        0.1498
      5  C2         8.4310   37.2670   57.4600 C.3     0  <0>0        0.2411
      6  C1         8.6350   38.7480   57.1350 C.3     0  <0>0        0.0574
      7  O3         8.1180   37.1230   58.8470 O.3     0  <0>0       -0.4700
      8  C11        9.0600   36.5370   59.6330 C.ar    0  <0>0        0.1391
      9  C16        9.4100   37.1160   60.8450 C.ar    0  <0>0        0.0374
     10  C15       10.3670   36.5190   61.6420 C.ar    0  <0>0        0.0098
     11  C14       10.9770   35.3460   61.2330 C.ar    0  <0>0        0.0348
     12  C13       10.6290   34.7690   60.0250 C.ar    0  <0>0        0.0098
     13 Br         12.2890   34.5330   62.3260 Br      0  <0>0       -0.0490
     14  C12        9.6670   35.3580   59.2280 C.ar    0  <0>0        0.0374
     15  C4         5.5630   35.0660   56.2010 C.3     0  <0>0        0.1114
     16  C5         5.7060   33.5470   56.0740 C.3     0  <0>0        0.1386
     17  C6         6.7950   33.0670   56.9990 C.2     0  <0>0        0.3669
     18  O2         6.5340   32.7800   58.1430 O.co2   0  <0>0       -0.2456
     19  O4         8.0550   32.9510   56.5490 O.co2   0  <0>0       -0.2456
     20  C7         4.2510   35.3920   56.8660 C.ar    0  <0>0        0.0256
     21  S1         3.7780   35.1950   58.5760 S.2     0  <0>0       -0.0891
     22  C10        2.1090   35.8200   58.4490 C.ar    0  <0>0        0.0352
     23  C9         2.0240   36.1260   57.1320 C.ar    0  <0>0        0.0072
     24  C8         3.1220   35.9070   56.3200 C.ar    0  <0>0        0.0043
@<TRIPOS>BOND
     1     2     1    2
     2    16    15    1
     3    16    17    1
     4    15    20    1
     5    15     3    1
     6    24    20   ar
     7    24    23   ar
     8    19    17   ar
     9     1     3   am
    10     1     5    1
    11    20    21   ar
    12    17    18   ar
    13     3     4    1
    14    23    22   ar
    15     6     5    1
    16     5     7    1
    17    22    21   ar
    18     7     8    1
    19    14     8   ar
    20    14    12   ar
    21     8     9   ar
    22    12    11   ar
    23     9    10   ar
    24    11    10   ar
    25    11    13    1

@<TRIPOS>MOLECULE
ZINC35661740_replica-1.pdb
 21 23 0 0 0
SMALL
GASTEIGER

@<TRIPOS>ATOM
      1  C1        -2.3310   29.9980   54.8490 C.3     0  <0>0        0.0220
      2  C2        -0.9540   29.9050   54.1890 C.3     0  <0>0        0.0769
      3  C3        -0.4490   28.4880   54.2770 C.ar    0  <0>0       -0.0080
      4  C8        -0.6940   27.5850   53.2290 C.ar    0  <0>0       -0.0027
      5  C7        -0.2070   26.2570   53.3260 C.ar    0  <0>0       -0.0003
      6  C9        -1.4100   27.9740   52.0820 C.ar    0  <0>0       -0.0003
      7  C6         0.5020   25.8680   54.4750 C.ar    0  <0>0       -0.0000
      8  C12       -0.4470   25.3570   52.2740 C.ar    0  <0>0       -0.0000
      9  C5         0.7160   26.7680   55.4730 C.ar    0  <0>0       -0.0003
     10  C4         0.2420   28.0740   55.3740 C.ar    0  <0>0       -0.0030
     11  C11       -1.1540   25.7640   51.1860 C.ar    0  <0>0       -0.0000
     12  C10       -1.6280   27.0710   51.0870 C.ar    0  <0>0       -0.0000
     13  N1        -0.0190   30.8010   54.8820 N.3     0  <0>0       -0.2947
     14  H12        0.7190   30.2790   55.3280 H       0  <0>0        0.1235
     15  C13       -0.7240   31.6510   55.8510 C.3     0  <0>0        0.0768
     16  C14       -0.0490   31.5320   57.2190 C.3     0  <0>0        0.0816
     17  C15        0.2930   32.9080   57.7320 C.ar    0  <0>0        0.1244
     18  O1         0.4630   34.0070   56.9790 O.2     0  <0>0       -0.4546
     19  C18        0.7550   35.0510   57.7700 C.ar    0  <0>0        0.1791
     20  C17        0.7830   34.6240   59.0450 C.ar    0  <0>0        0.0434
     21  C16        0.4850   33.2420   59.0200 C.ar    0  <0>0        0.0362
@<TRIPOS>BOND
     1    12    11   ar
     2    12     6   ar
     3    11     8   ar
     4     6     4   ar
     5     8     5   ar
     6     4     5   ar
     7     4     3   ar
     8     5     7   ar
     9     2     3    1
    10     2     1    1
    11     2    13    1
    12     3    10   ar
    13     7     9   ar
    14    13    14    1
    15    13    15    1
    16    10     9   ar
    17    15    16    1
    18    18    17   ar
    19    18    19   ar
    20    16    17    1
    21    17    21   ar
    22    19    20   ar
    23    21    20   ar

@<TRIPOS>MOLECULE
ZINC14241916_replica-1.pdb
 24 26 0 0 0
SMALL
GASTEIGER

@<TRIPOS>ATOM
      1  C10        8.1360   37.5690   58.5050 C.2     0  <0>0        0.2445
      2  O2         8.4090   38.6510   58.0170 O.2     0  <0>0       -0.2818
      3  C9         9.0590   36.9410   59.4610 C.ar    0  <0>0        0.1814
      4  C2         9.5720   35.6880   59.3440 C.ar    0  <0>0        0.0189
      5  C1         9.3110   34.7000   58.2370 C.3     0  <0>0        0.0344
      6  C3        10.4330   35.4930   60.5100 C.ar    0  <0>0        0.0341
      7  C8        10.3480   36.6870   61.2500 C.ar    0  <0>0        0.1452
      8  C4        11.2310   34.4400   60.9660 C.ar    0  <0>0        0.0095
      9  C7        11.0660   36.8010   62.4350 C.ar    0  <0>0        0.0380
     10  O1         9.5200   37.5190   60.5890 O.2     0  <0>0       -0.4505
     11  C6        11.8480   35.7520   62.8690 C.ar    0  <0>0        0.0098
     12  C5        11.9280   34.5760   62.1350 C.ar    0  <0>0        0.0348
     13 Br         13.0090   33.1540   62.7550 Br      0  <0>0       -0.0490
     14  C11        6.8880   36.8910   58.1340 C.ar    0  <0>0        0.0950
     15  N1         6.5120   36.5360   56.8560 N.ar    0  <0>0       -0.3540
     16  C14        5.3130   35.9370   56.8970 C.ar    0  <0>0        0.0365
     17  H1         7.0340   36.6950   56.0540 H       0  <0>0        0.1657
     18  C13        4.8900   35.8940   58.2180 C.ar    0  <0>0        0.0437
     19  C15        4.5550   35.4000   55.7100 C.3     0  <0>0        0.0499
     20  C12        5.9050   36.4990   58.9960 C.ar    0  <0>0        0.0008
     21  C18        5.9000   36.6810   60.4920 C.3     0  <0>0        0.0328
     22  C16        3.6340   35.3240   58.7130 C.2     0  <0>0        0.1743
     23  O3         3.6280   34.2270   59.2310 O.2     0  <0>0       -0.2913
     24  C17        2.3490   36.0990   58.5770 C.3     0  <0>0        0.0773
@<TRIPOS>BOND
     1    19    16    1
     2    17    15    1
     3    15    16   ar
     4    15    14   ar
     5    16    18   ar
     6     2     1    2
     7    14     1    1
     8    14    20   ar
     9    18    22    1
    10    18    20   ar
    11     5     4    1
    12     1     3    1
    13    24    22    1
    14    22    23    2
    15    20    21    1
    16     4     3   ar
    17     4     6   ar
    18     3    10   ar
    19     6     8   ar
    20     6     7   ar
    21    10     7   ar
    22     8    12   ar
    23     7     9   ar
    24    12    13    1
    25    12    11   ar
    26     9    11   ar

@<TRIPOS>MOLECULE
ZINC20479809_replica-1.pdb
 23 26 0 0 0
SMALL
GASTEIGER

@<TRIPOS>ATOM
      1  C5         3.7930   35.8960   56.5110 C.3     0  <0>0        0.1521
      2  N1         5.1860   36.0140   57.0020 N.am    0  <0>0       -0.2719
      3  C6         6.1560   35.9320   55.8900 C.3     0  <0>0        0.1637
      4  C7         5.8330   34.6610   55.0580 C.3     0  <0>0        0.0886
      5  S2         3.9890   34.7880   55.0500 S.3     0  <0>0       -0.1140
      6  C8         7.4850   35.7720   56.5880 C.2     0  <0>0        0.2533
      7  O1         8.5600   35.5390   56.0770 O.2     0  <0>0       -0.2723
      8  N2         7.2260   35.9450   57.9010 N.am    0  <0>0       -0.2185
      9  C9         5.9180   36.1240   58.1250 C.2     0  <0>0        0.1487
     10  S3         5.2520   36.4600   59.6670 S.2     0  <0>0       -0.0177
     11  C10        8.2030   35.9310   58.9060 C.ar    0  <0>0        0.0607
     12  C15        8.5870   34.7310   59.4870 C.ar    0  <0>0        0.0289
     13  C14        9.5550   34.7180   60.4740 C.ar    0  <0>0        0.0863
     14  C13       10.1380   35.9060   60.8870 C.ar    0  <0>0        0.1507
     15 Cl         10.0400   33.2170   61.1950 Cl      0  <0>0       -0.0799
     16  C12        9.7510   37.1050   60.3140 C.ar    0  <0>0        0.0318
     17  F1        11.0830   35.8940   61.8520 F       0  <0>0       -0.2033
     18  C11        8.7850   37.1210   59.3270 C.ar    0  <0>0        0.0176
     19  C3         2.9090   35.2590   57.5520 C.ar    0  <0>0        0.0356
     20  C2         1.8590   35.7930   58.2210 C.ar    0  <0>0        0.0052
     21  C1         1.1840   35.0130   59.1420 C.ar    0  <0>0        0.0072
     22  C4         1.5980   33.7400   59.3530 C.ar    0  <0>0        0.0352
     23  S1         2.9780   33.6080   58.2290 S.2     0  <0>0       -0.0883
@<TRIPOS>BOND
     1     5     4    1
     2     5     1    1
     3     4     3    1
     4     3     6    1
     5     3     2    1
     6     7     6    2
     7     1     2    1
     8     1    19    1
     9     6     8   am
    10     2     9    1
    11    19    20   ar
    12    19    23   ar
    13     8     9    1
    14     8    11    1
    15     9    10    2
    16    20    21   ar
    17    23    22   ar
    18    11    18   ar
    19    11    12   ar
    20    21    22   ar
    21    18    16   ar
    22    12    13   ar
    23    16    14   ar
    24    13    14   ar
    25    13    15    1
    26    14    17    1

@<TRIPOS>MOLECULE
ZINC62771800_replica-1.pdb
 22 23 0 0 0
SMALL
GASTEIGER

@<TRIPOS>ATOM
      1  C1        12.5450   34.5200   62.7700 C.3     0  <0>0        0.0311
      2  C2        11.4860   35.0760   61.8540 C.ar    0  <0>0       -0.0188
      3  C3        11.0550   36.3800   62.0090 C.ar    0  <0>0       -0.0028
      4  C4        10.0830   36.8960   61.1710 C.ar    0  <0>0        0.0171
      5  C5         9.5380   36.1030   60.1720 C.ar    0  <0>0        0.0790
      6  C6         9.9730   34.7880   60.0160 C.ar    0  <0>0        0.1513
      7  C7        10.9510   34.2810   60.8560 C.ar    0  <0>0        0.0339
      8  N1         8.5540   36.6210   59.3230 N.pl3   0  <0>0       -0.3313
      9  H15        8.1120   36.0430   58.6820 H       0  <0>0        0.1469
     10  C11        8.1930   38.0390   59.4010 C.3     0  <0>0        0.0767
     11  C12        6.6780   38.1700   59.5740 C.3     0  <0>0        0.0216
     12  C13        8.6230   38.7470   58.1140 C.3     0  <0>0        0.0839
     13  C14        8.1830   37.9360   56.9240 C.ar    0  <0>0        0.1247
     14  O3         8.6490   36.7240   56.5830 O.2     0  <0>0       -0.4546
     15  C17        8.0290   36.3010   55.4690 C.ar    0  <0>0        0.1791
     16  C16        7.1610   37.2530   55.0800 C.ar    0  <0>0        0.0434
     17  C15        7.2590   38.3060   56.0170 C.ar    0  <0>0        0.0362
     18  O1         9.4420   34.0060   59.0380 O.3     0  <0>0       -0.4715
     19  C8         8.6550   32.8890   59.4580 C.3     0  <0>0        0.2374
     20  C9         7.1700   33.2380   59.3360 C.3     0  <0>0        0.1894
     21  O2         6.9900   34.1950   58.2910 O.3     0  <0>0       -0.3471
     22  C10        5.6220   34.4970   58.0080 C.3     0  <0>0        0.1743
@<TRIPOS>BOND
     1    16    15   ar
     2    16    17   ar
     3    15    14   ar
     4    17    13   ar
     5    14    13   ar
     6    13    12    1
     7    22    21    1
     8    12    10    1
     9    21    20    1
    10     9     8    1
    11    18    19    1
    12    18     6    1
    13     8    10    1
    14     8     5    1
    15    20    19    1
    16    10    11    1
    17     6     5   ar
    18     6     7   ar
    19     5     4   ar
    20     7     2   ar
    21     4     3   ar
    22     2     3   ar
    23     2     1    1

@<TRIPOS>MOLECULE
ZINC40419587_replica-1.pdb
 21 22 0 0 0
SMALL
GASTEIGER

@<TRIPOS>ATOM
      1  S2        -0.6970   29.8680   55.4220 S.O2    0  <0>0        0.1049
      2  O1        -2.0280   29.9160   55.9150 O.2     0  <0>0       -0.1461
      3  O2        -0.0760   30.9830   54.7940 O.2     0  <0>0       -0.1461
      4  N2         0.2680   29.4490   56.7020 N.2     0  <0>0       -0.1032
      5  C4         0.5790   30.3440   57.6070 C.ar    0  <0>0        0.1918
      6  S1         1.5870   30.1690   59.0720 S.2     0  <0>0       -0.0524
      7  N1         0.2120   31.6700   57.6890 N.ar    0  <0>0       -0.3354
      8  C3         1.4490   31.8480   59.6640 C.ar    0  <0>0        0.0219
      9  C2         0.6720   32.4090   58.7390 C.ar    0  <0>0        0.0375
     10  C11        2.0580   32.4710   60.8950 C.3     0  <0>0        0.0394
     11  C1         0.2940   33.8630   58.8560 C.3     0  <0>0        0.0500
     12  H9        -0.3580   32.0690   57.0130 H       0  <0>0        0.1676
     13  C5        -0.6340   28.5390   54.2670 C.ar    0  <0>0        0.1628
     14  C10       -1.3870   28.5950   53.1080 C.ar    0  <0>0        0.0581
     15  C9        -1.3330   27.5550   52.1970 C.ar    0  <0>0        0.0378
     16 Br         -2.4830   30.0960   52.7650 Br      0  <0>0       -0.0474
     17  C8        -0.5330   26.4530   52.4510 C.ar    0  <0>0        0.1430
     18  C7         0.2160   26.3940   53.6140 C.ar    0  <0>0        0.0607
     19  F1        -0.4860   25.4350   51.5640 F       0  <0>0       -0.2041
     20  C6         0.1670   27.4390   54.5210 C.ar    0  <0>0        0.1619
     21  F2         0.8980   27.3820   55.6560 F       0  <0>0       -0.2026
@<TRIPOS>BOND
     1    19    17    1
     2    15    17   ar
     3    15    14   ar
     4    17    18   ar
     5    16    14    1
     6    14    13   ar
     7    18    20   ar
     8    13    20   ar
     9    13     1    1
    10    20    21    1
    11     3     1    2
    12     1     2    2
    13     1     4    1
    14     4     5    2
    15    12     7    1
    16     5     7   ar
    17     5     6   ar
    18     7     9   ar
    19     9    11    1
    20     9     8   ar
    21     6     8   ar
    22     8    10    1

@<TRIPOS>MOLECULE
ZINC51720927_replica-1.pdb
 20 21 0 0 0
SMALL
GASTEIGER

@<TRIPOS>ATOM
      1  C7        -1.7670   29.3450   54.9120 C.3     0  <0>0        0.1277
      2  C6        -1.6270   29.0690   56.3870 C.ar    0  <0>0        0.0271
      3  C5        -2.1790   28.0760   57.1250 C.ar    0  <0>0        0.0040
      4  C4        -1.9090   28.0170   58.4790 C.ar    0  <0>0        0.0024
      5  C3        -1.1010   28.9560   59.0290 C.ar    0  <0>0        0.0070
      6  S1        -0.6980   29.9700   57.6160 S.2     0  <0>0       -0.0939
      7  C2        -0.6610   29.1080   60.4620 C.3     0  <0>0        0.0330
      8  C1        -1.7760   28.6250   61.3920 C.3     0  <0>0        0.0056
      9  C8        -1.8470   30.8560   54.6810 C.3     0  <0>0        0.1616
     10  O1        -0.5660   31.3440   54.2780 O.3     0  <0>0       -0.3799
     11  H11       -0.1400   31.9150   54.9330 H       0  <0>0        0.2105
     12  N1        -0.6060   28.8030   54.2010 N.pl3   0  <0>0       -0.3276
     13  H12        0.2850   29.1290   54.4080 H       0  <0>0        0.1472
     14  C9        -0.7800   27.8180   53.2260 C.ar    0  <0>0        0.0556
     15  C14       -0.2500   26.5470   53.4150 C.ar    0  <0>0        0.0707
     16  C13       -0.4290   25.5740   52.4510 C.ar    0  <0>0        0.0126
     17 Cl          0.6310   26.1820   54.8660 Cl      0  <0>0       -0.0810
     18  C12       -1.1270   25.8680   51.2930 C.ar    0  <0>0        0.0009
     19  C11       -1.6500   27.1320   51.1000 C.ar    0  <0>0        0.0013
     20  C10       -1.4790   28.1080   52.0610 C.ar    0  <0>0        0.0152
@<TRIPOS>BOND
     1    19    18   ar
     2    19    20   ar
     3    18    16   ar
     4    20    14   ar
     5    16    15   ar
     6    14    15   ar
     7    14    12    1
     8    15    17    1
     9    12    13    1
    10    12     1    1
    11    10     9    1
    12    10    11    1
    13     9     1    1
    14     1     2    1
    15     2     3   ar
    16     2     6   ar
    17     3     4   ar
    18     6     5   ar
    19     4     5   ar
    20     5     7    1
    21     7     8    1

@<TRIPOS>MOLECULE
ZINC20893030_replica-1.pdb
 25 28 0 0 0
SMALL
GASTEIGER

@<TRIPOS>ATOM
      1  C1         0.9490   32.1670   56.2820 C.3     0  <0>0        0.0537
      2  C2         0.3880   30.7980   56.0000 C.ar    0  <0>0        0.0792
      3  C3        -0.2360   29.9560   56.9450 C.ar    0  <0>0        0.0391
      4  C4        -0.6040   28.8220   56.3080 C.ar    0  <0>0        0.1338
      5  N1        -0.2140   28.9540   54.9940 N.ar    0  <0>0       -0.2157
      6  N2         0.3980   30.1990   54.8440 N.ar    0  <0>0       -0.1686
      7  N3        -1.2440   27.6900   56.7490 N.am    0  <0>0       -0.2688
      8  C11       -1.6740   27.2680   57.9000 C.2     0  <0>0        0.2382
      9  O1        -2.1070   26.1340   57.8990 O.2     0  <0>0       -0.2738
     10  C12       -1.7210   27.9490   59.2110 C.3     0  <0>0        0.1434
     11  S1        -0.2800   28.9790   59.5190 S.3     0  <0>0       -0.1218
     12  C13       -0.3990   30.3550   58.3780 C.3     0  <0>0        0.1022
     13  H9        -1.4980   26.8890   56.0380 H       0  <0>0        0.1563
     14  C5        -0.4000   28.0020   53.9820 C.ar    0  <0>0        0.0947
     15  C10       -1.2280   28.2850   52.9030 C.ar    0  <0>0        0.0753
     16  C9        -1.4090   27.3430   51.9070 C.ar    0  <0>0        0.0129
     17 Cl         -2.0350   29.8190   52.8060 Cl      0  <0>0       -0.0807
     18  C8        -0.7660   26.1220   51.9830 C.ar    0  <0>0        0.0010
     19  C7         0.0600   25.8380   53.0560 C.ar    0  <0>0        0.0016
     20  C6         0.2480   26.7760   54.0520 C.ar    0  <0>0        0.0201
     21  C14        0.6670   31.3640   58.7230 C.ar    0  <0>0        0.0213
     22  S2         2.4400   31.1530   58.7690 S.2     0  <0>0       -0.0896
     23  C17        2.8770   32.8140   59.2590 C.ar    0  <0>0        0.0352
     24  C16        1.6620   33.4050   59.3600 C.ar    0  <0>0        0.0072
     25  C15        0.5290   32.6620   59.0850 C.ar    0  <0>0        0.0039
@<TRIPOS>BOND
     1    16    18   ar
     2    16    15   ar
     3    18    19   ar
     4    17    15    1
     5    15    14   ar
     6    19    20   ar
     7    14    20   ar
     8    14     5    1
     9     6     5   ar
    10     6     2   ar
    11     5     4   ar
    12     2     1    1
    13     2     3   ar
    14    13     7    1
    15     4     7    1
    16     4     3   ar
    17     7     8   am
    18     3    12    1
    19     9     8    2
    20     8    10    1
    21    12    21    1
    22    12    11    1
    23    21    22   ar
    24    21    25   ar
    25    22    23   ar
    26    25    24   ar
    27    10    11    1
    28    23    24   ar

@<TRIPOS>MOLECULE
ZINC48980885_replica-1.pdb
 22 22 0 0 0
SMALL
GASTEIGER

@<TRIPOS>ATOM
      1  C1        -1.8630   31.0200   56.1970 C.3     0  <0>0        0.0213
      2  C2        -0.3540   31.1710   55.9920 C.3     0  <0>0        0.0734
      3  C3         0.0550   30.4800   54.6890 C.3     0  <0>0        0.0243
      4  C4        -1.1950   30.1470   53.8730 C.3     0  <0>0        0.0280
      5  C5        -1.0440   28.7800   53.2570 C.ar    0  <0>0       -0.0221
      6  C10       -1.6610   28.4930   52.0540 C.ar    0  <0>0       -0.0038
      7  C9        -1.5180   27.2400   51.4860 C.ar    0  <0>0        0.0064
      8  C8        -0.7660   26.2720   52.1270 C.ar    0  <0>0        0.0345
      9  C7        -0.1530   26.5590   53.3330 C.ar    0  <0>0        0.0064
     10 Br         -0.5760   24.5570   51.3540 Br      0  <0>0       -0.0490
     11  C6        -0.2920   27.8130   53.8980 C.ar    0  <0>0       -0.0038
     12  N1        -0.0120   32.5930   55.9190 N.am    0  <0>0       -0.2906
     13  C11        1.1800   33.0250   56.3780 C.2     0  <0>0        0.3007
     14  O1         1.9700   32.2330   56.8530 O.2     0  <0>0       -0.2528
     15  N2         1.4940   34.3330   56.3110 N.am    0  <0>0       -0.2906
     16  H15        0.8620   34.9650   55.9310 H       0  <0>0        0.1509
     17  H14       -0.6430   33.2250   55.5390 H       0  <0>0        0.1509
     18  C12        2.7890   34.8020   56.8100 C.3     0  <0>0        0.0730
     19  C13        3.6070   35.3720   55.6490 C.3     0  <0>0        0.0213
     20  C14        2.5670   35.8930   57.8600 C.3     0  <0>0        0.0180
     21  C15        1.3830   35.5090   58.7510 C.3     0  <0>0        0.0017
     22  C16        3.8250   36.0400   58.7170 C.3     0  <0>0        0.0017
@<TRIPOS>BOND
     1    10     8    1
     2     7     6   ar
     3     7     8   ar
     4     6     5   ar
     5     8     9   ar
     6     5     4    1
     7     5    11   ar
     8     9    11   ar
     9     4     3    1
    10     3     2    1
    11    17    12    1
    12    19    18    1
    13    12     2    1
    14    12    13   am
    15    16    15    1
    16     2     1    1
    17    15    13   am
    18    15    18    1
    19    13    14    2
    20    18    20    1
    21    20    22    1
    22    20    21    1

@<TRIPOS>MOLECULE
ZINC19913393_replica-1.pdb
 20 21 0 0 0
SMALL
GASTEIGER

@<TRIPOS>ATOM
      1  C7        -0.8850   27.9580   52.8640 C.ar    0  <0>0        0.0796
      2  C8        -1.6740   27.6670   51.7600 C.ar    0  <0>0        0.0174
      3  C9        -1.6370   26.4050   51.1970 C.ar    0  <0>0        0.0015
      4  C10       -0.8160   25.4310   51.7330 C.ar    0  <0>0        0.0032
      5  C11       -0.0290   25.7120   52.8340 C.ar    0  <0>0        0.0385
      6  C12       -0.0550   26.9760   53.4000 C.ar    0  <0>0        0.1597
      7  N1        -0.9210   29.2350   53.4360 N.pl3   0  <0>0       -0.3278
      8  H8        -0.2280   30.0130   53.0860 H       0  <0>0        0.1472
      9  C2        -1.8830   29.5350   54.5000 C.3     0  <0>0        0.0980
     10  C1        -2.9240   30.5280   53.9810 C.3     0  <0>0        0.0266
     11  C3        -1.1580   30.1350   55.6760 C.ar    0  <0>0        0.0250
     12  S1         0.0280   31.4700   55.7050 S.2     0  <0>0       -0.0892
     13  C6         0.3370   31.4930   57.4640 C.ar    0  <0>0        0.0352
     14  C5        -0.4660   30.4950   57.9030 C.ar    0  <0>0        0.0072
     15  C4        -1.2370   29.8020   56.9890 C.ar    0  <0>0        0.0043
     16  O1         0.7240   27.2560   54.4800 O.3     0  <0>0       -0.4032
     17  C13        0.3910   26.6010   55.7050 C.3     0  <0>0        0.5753
     18  F1        -0.9740   26.7600   55.9640 F       0  <0>0       -0.1328
     19  F2         0.6900   25.2380   55.6010 F       0  <0>0       -0.1328
     20  F3         1.1330   27.1620   56.7500 F       0  <0>0       -0.1328
@<TRIPOS>BOND
     1     3     4   ar
     2     3     2   ar
     3     4     5   ar
     4     2     1   ar
     5     5     6   ar
     6     1     6   ar
     7     1     7    1
     8     8     7    1
     9     6    16    1
    10     7     9    1
    11    10     9    1
    12    16    17    1
    13     9    11    1
    14    19    17    1
    15    11    12   ar
    16    11    15   ar
    17    17    18    1
    18    17    20    1
    19    12    13   ar
    20    15    14   ar
    21    13    14   ar

@<TRIPOS>MOLECULE
ZINC00445800_replica-1.pdb
 20 22 0 0 0
SMALL
GASTEIGER

@<TRIPOS>ATOM
      1  C8        -1.0470   30.4110   54.7740 C.2     0  <0>0        0.1924
      2  C9        -2.0290   30.5620   55.8660 C.2     0  <0>0        0.3738
      3  O1        -3.0900   29.9820   55.9890 O.2     0  <0>0       -0.2419
      4  O2        -1.4940   31.4800   56.7000 O.3     0  <0>0       -0.3907
      5  C10       -0.3090   31.8810   56.2000 C.2     0  <0>0        0.2904
      6  N1        -0.0310   31.2690   55.0770 N.2     0  <0>0       -0.3645
      7  C7        -1.1390   29.5820   53.6770 C.3     0  <0>0        0.0931
      8  C3        -0.6290   28.2090   53.7510 C.ar    0  <0>0       -0.0035
      9  C2         0.0590   27.7730   54.8910 C.ar    0  <0>0       -0.0030
     10  C1         0.5350   26.4810   54.9520 C.ar    0  <0>0        0.0006
     11  C6         0.3360   25.6140   53.8910 C.ar    0  <0>0        0.0122
     12  C5        -0.3470   26.0330   52.7610 C.ar    0  <0>0        0.0679
     13  C4        -0.8270   27.3250   52.6810 C.ar    0  <0>0        0.0646
     14 Cl         -0.5970   24.9330   51.4420 Cl      0  <0>0       -0.0814
     15 Cl         -1.6780   27.8520   51.2620 Cl      0  <0>0       -0.0817
     16  C11        0.5590   32.8770   56.8350 C.ar    0  <0>0        0.0959
     17  S1         2.2800   33.2310   56.5210 S.2     0  <0>0       -0.0807
     18  C14        2.4970   34.5090   57.6730 C.ar    0  <0>0        0.0356
     19  C13        1.2730   34.6160   58.2520 C.ar    0  <0>0        0.0077
     20  C12        0.2600   33.7860   57.8370 C.ar    0  <0>0        0.0128
@<TRIPOS>BOND
     1    15    13    1
     2    14    12    1
     3    13    12   ar
     4    13     8   ar
     5    12    11   ar
     6     7     8    1
     7     7     1    1
     8     8     9   ar
     9    11    10   ar
    10     1     6    2
    11     1     2    1
    12     9    10   ar
    13     6     5    2
    14     2     3    2
    15     2     4    1
    16     5     4    1
    17     5    16    1
    18    17    16   ar
    19    17    18   ar
    20    16    20   ar
    21    18    19   ar
    22    20    19   ar

@<TRIPOS>MOLECULE
ZINC20013050_replica-1.pdb
 21 22 0 0 0
SMALL
GASTEIGER

@<TRIPOS>ATOM
      1  N3        10.8510   35.2690   60.8010 N.am    0  <0>0       -0.2660
      2  C9        10.7030   34.0390   61.3310 C.2     0  <0>0        0.2505
      3  O1         9.6520   33.4420   61.2000 O.2     0  <0>0       -0.2698
      4  H14       11.6890   35.7450   60.9060 H       0  <0>0        0.1566
      5  C7         9.7990   35.8560   60.1000 C.ar    0  <0>0        0.1325
      6  C6         9.5390   35.7180   58.7710 C.ar    0  <0>0        0.0505
      7  C5         8.3980   36.4690   58.4770 C.ar    0  <0>0        0.0807
      8  N2         7.9840   37.0420   59.5770 N.ar    0  <0>0       -0.1725
      9  N1         8.8440   36.6710   60.6190 N.ar    0  <0>0       -0.2359
     10  C8         8.7350   37.0910   62.0190 C.3     0  <0>0        0.1551
     11  C2         7.7560   36.6010   57.1200 C.3     0  <0>0        0.0372
     12  C1         6.2530   36.3430   57.2390 C.3     0  <0>0        0.0060
     13  C3         8.3740   35.5800   56.1610 C.3     0  <0>0        0.0060
     14  C4         7.9910   38.0130   56.5800 C.3     0  <0>0        0.0060
     15  C10       11.8180   33.4150   62.0740 C.ar    0  <0>0        0.0541
     16  C15       11.6410   32.1800   62.6980 C.ar    0  <0>0        0.0103
     17  C14       12.6890   31.6000   63.3840 C.ar    0  <0>0        0.0302
     18  C13       13.9090   32.2480   63.4650 C.ar    0  <0>0        0.0058
     19  I1        12.4290   29.7410   64.3150 I       0  <0>0       -0.0425
     20  C12       14.0900   33.4750   62.8530 C.ar    0  <0>0        0.0006
     21  C11       13.0530   34.0620   62.1580 C.ar    0  <0>0        0.0045
@<TRIPOS>BOND
     1    13    11    1
     2    14    11    1
     3    11    12    1
     4    11     7    1
     5     7     6   ar
     6     7     8   ar
     7     6     5   ar
     8     8     9   ar
     9     5     9   ar
    10     5     1    1
    11     9    10    1
    12     1     4    1
    13     1     2   am
    14     3     2    2
    15     2    15    1
    16    15    21   ar
    17    15    16   ar
    18    21    20   ar
    19    16    17   ar
    20    20    18   ar
    21    17    18   ar
    22    17    19    1

@<TRIPOS>MOLECULE
ZINC36993047_replica-1.pdb
 21 22 0 0 0
SMALL
GASTEIGER

@<TRIPOS>ATOM
      1  C9        -0.7700   29.3420   55.8590 C.3     0  <0>0        0.0762
      2  C10       -2.2350   29.4930   56.2750 C.3     0  <0>0        0.0219
      3  C5        -0.6660   28.3320   54.7460 C.ar    0  <0>0       -0.0159
      4  C4         0.0130   27.1450   54.9500 C.ar    0  <0>0       -0.0252
      5  C3         0.1070   26.2190   53.9290 C.ar    0  <0>0       -0.0088
      6  C18        0.6500   26.8630   56.2860 C.3     0  <0>0        0.0307
      7  C2        -0.4770   26.4770   52.7030 C.ar    0  <0>0       -0.0225
      8  C1        -0.3740   25.4660   51.5910 C.3     0  <0>0        0.0310
      9  C7        -1.1520   27.6660   52.4980 C.ar    0  <0>0       -0.0088
     10  C6        -1.2500   28.5910   53.5190 C.ar    0  <0>0       -0.0252
     11  C8        -1.9910   29.8840   53.2960 C.3     0  <0>0        0.0307
     12  N1        -0.2570   30.6370   55.3930 N.3     0  <0>0       -0.2959
     13  H14        0.3510   30.5200   54.5970 H       0  <0>0        0.1235
     14  C11        0.4270   31.3530   56.4790 C.3     0  <0>0        0.0592
     15  C12        0.9410   30.3470   57.5090 C.3     0  <0>0        0.0175
     16  C13       -0.5520   32.3170   57.1520 C.3     0  <0>0        0.0486
     17  C14        0.2140   33.4470   57.7900 C.ar    0  <0>0        0.0086
     18  S1         1.1190   34.7740   57.0100 S.2     0  <0>0       -0.0907
     19  C17        1.6770   35.6020   58.4890 C.ar    0  <0>0        0.0351
     20  C16        1.1500   34.8210   59.4640 C.ar    0  <0>0        0.0072
     21  C15        0.4010   33.7170   59.1060 C.ar    0  <0>0        0.0027
@<TRIPOS>BOND
     1     8     7    1
     2     9     7   ar
     3     9    10   ar
     4     7     5   ar
     5    11    10    1
     6    10     3   ar
     7     5     4   ar
     8    13    12    1
     9     3     4   ar
    10     3     1    1
    11     4     6    1
    12    12     1    1
    13    12    14    1
    14     1     2    1
    15    14    16    1
    16    14    15    1
    17    18    17   ar
    18    18    19   ar
    19    16    17    1
    20    17    21   ar
    21    19    20   ar
    22    21    20   ar

@<TRIPOS>MOLECULE
ZINC61640780_replica-1.pdb
 22 23 0 0 0
SMALL
GASTEIGER

@<TRIPOS>ATOM
      1  C4        -0.3250   31.8550   56.6130 C.2     0  <0>0        0.1609
      2  C5         0.0200   31.1770   57.7780 C.3     0  <0>0        0.1014
      3  C6        -0.5000   29.9150   58.0020 C.2     0  <0>0       -0.0036
      4  C7        -1.3510   29.3710   57.0480 C.2     0  <0>0        0.0801
      5  C8        -1.6500   30.1000   55.9130 C.2     0  <0>0        0.1315
      6  N2        -1.1430   31.3040   55.7290 N.2     0  <0>0       -0.3940
      7 Cl         -2.0300   27.7890   57.2790 Cl      0  <0>0       -0.0802
      8  C9        -2.5720   29.5140   54.8750 C.3     0  <0>0        0.1219
      9  S1        -1.8380   29.7170   53.2280 S.3     0  <0>0       -0.1030
     10  C10       -1.2780   28.1000   52.8090 C.ar    0  <0>0        0.0593
     11  C15       -1.6710   27.5140   51.6070 C.ar    0  <0>0        0.1392
     12  C14       -1.2220   26.2460   51.2800 C.ar    0  <0>0        0.0371
     13  C13       -0.3960   25.5580   52.1500 C.ar    0  <0>0        0.0031
     14  C12       -0.0100   26.1360   53.3460 C.ar    0  <0>0        0.0007
     15  C11       -0.4480   27.4040   53.6770 C.ar    0  <0>0        0.0092
     16  O1        -2.4890   28.1890   50.7550 O.3     0  <0>0       -0.5050
     17  H17       -3.2640   28.5800   51.1820 H       0  <0>0        0.2922
     18  N1         0.1910   33.1250   56.3760 N.pl3   0  <0>0       -0.3116
     19  H8        -0.1460   33.6540   55.6360 H       0  <0>0        0.1489
     20  C3         1.2400   33.6630   57.2440 C.3     0  <0>0        0.0888
     21  C2         0.6920   34.8570   58.0280 C.3     0  <0>0        0.0212
     22  C1         0.8110   34.5810   59.5280 C.3     0  <0>0        0.0018
@<TRIPOS>BOND
     1    16    17    1
     2    16    11    1
     3    12    11   ar
     4    12    13   ar
     5    11    10   ar
     6    13    14   ar
     7    10     9    1
     8    10    15   ar
     9     9     8    1
    10    14    15   ar
    11     8     5    1
    12    19    18    1
    13     6     5    2
    14     6     1    2
    15     5     4    1
    16    18     1    1
    17    18    20    1
    18     1     2    1
    19     4     7    1
    20     4     3    2
    21    20    21    1
    22     2     3    1
    23    21    22    1

@<TRIPOS>MOLECULE
ZINC20135155_replica-1.pdb
 21 22 0 0 0
SMALL
GASTEIGER

@<TRIPOS>ATOM
      1  C7         8.7610   35.9980   59.4380 C.3     0  <0>0        0.0919
      2  N3         9.2350   35.5770   58.1130 N.pl3   0  <0>0       -0.3287
      3  H11       10.2160   35.0900   58.0090 H       0  <0>0        0.1471
      4  C3         8.2900   35.8870   57.1160 C.ar    0  <0>0        0.0736
      5  C2         7.9770   37.1700   56.6460 C.ar    0  <0>0        0.0931
      6  C1         8.5980   38.4590   57.1220 C.3     0  <0>0        0.0553
      7  N2         7.0580   37.0590   55.7230 N.ar    0  <0>0       -0.1726
      8  N1         6.7430   35.7020   55.5760 N.ar    0  <0>0       -0.2519
      9  C4         7.5150   34.9980   56.4450 C.ar    0  <0>0        0.0702
     10  C5         5.7560   35.1410   54.6500 C.3     0  <0>0        0.1533
     11  C6         7.5120   33.5020   56.6310 C.3     0  <0>0        0.0531
     12  C8         7.5400   35.1630   59.8310 C.3     0  <0>0        0.0241
     13  C9         6.3900   36.0940   60.2190 C.3     0  <0>0        0.0020
     14  C10        5.2210   35.8890   59.2520 C.3     0  <0>0        0.0001
     15  C11        6.8630   37.5470   60.1460 C.3     0  <0>0        0.0001
     16  C12        9.8560   35.7950   60.4520 C.ar    0  <0>0       -0.0046
     17  C17       10.1340   36.7830   61.3770 C.ar    0  <0>0       -0.0027
     18  C16       11.1400   36.5960   62.3070 C.ar    0  <0>0       -0.0003
     19  C15       11.8660   35.4210   62.3130 C.ar    0  <0>0       -0.0000
     20  C14       11.5880   34.4320   61.3880 C.ar    0  <0>0       -0.0003
     21  C13       10.5800   34.6160   60.4610 C.ar    0  <0>0       -0.0027
@<TRIPOS>BOND
     1    10     8    1
     2     8     7   ar
     3     8     9   ar
     4     7     5   ar
     5     9    11    1
     6     9     4   ar
     7     5     4   ar
     8     5     6    1
     9     4     2    1
    10     3     2    1
    11     2     1    1
    12    14    13    1
    13     1    12    1
    14     1    16    1
    15    12    13    1
    16    15    13    1
    17    16    21   ar
    18    16    17   ar
    19    21    20   ar
    20    17    18   ar
    21    20    19   ar
    22    18    19   ar

@<TRIPOS>MOLECULE
ZINC48961900_replica-1.pdb
 20 21 0 0 0
SMALL
GASTEIGER

@<TRIPOS>ATOM
      1  N1        -0.6170   29.6520   55.0180 N.pl3   0  <0>0       -0.1891
      2  C8         0.5360   30.5560   55.0490 C.3     0  <0>0        0.1391
      3  C7        -0.5980   28.5230   54.1950 C.ar    0  <0>0        0.0649
      4  C2         0.0360   27.3630   54.6190 C.ar    0  <0>0       -0.0065
      5  C1         0.7060   27.3200   55.9690 C.3     0  <0>0        0.0324
      6  C3         0.0460   26.2460   53.8060 C.ar    0  <0>0        0.0037
      7  C4        -0.5670   26.2850   52.5680 C.ar    0  <0>0        0.0343
      8  C5        -1.1950   27.4420   52.1390 C.ar    0  <0>0        0.0080
      9 Br         -0.5490   24.7550   51.4560 Br      0  <0>0       -0.0490
     10  C6        -1.2100   28.5610   52.9480 C.ar    0  <0>0        0.0163
     11  S1        -1.9430   29.9680   55.9600 S.O2    0  <0>0        0.0768
     12  O1        -1.8450   31.3290   56.3530 O.2     0  <0>0       -0.1497
     13  O2        -3.0680   29.4540   55.2620 O.2     0  <0>0       -0.1497
     14  C9        -1.7790   29.0070   57.4290 C.ar    0  <0>0        0.1275
     15  C12       -0.9010   29.3710   58.3940 C.ar    0  <0>0        0.0261
     16  S2        -1.1420   28.0910   59.6140 S.2     0  <0>0       -0.0942
     17  C13        0.0360   30.5510   58.4290 C.3     0  <0>0        0.0396
     18  C11       -2.3900   27.1510   58.7510 C.ar    0  <0>0        0.0087
     19  C10       -2.5410   27.8680   57.6100 C.ar    0  <0>0        0.0225
     20  C14       -3.0940   25.8900   59.1790 C.3     0  <0>0        0.0382
@<TRIPOS>BOND
     1     9     7    1
     2     8     7   ar
     3     8    10   ar
     4     7     6   ar
     5    10     3   ar
     6     6     4   ar
     7     3     4   ar
     8     3     1    1
     9     4     5    1
    10     1     2    1
    11     1    11    1
    12    13    11    2
    13    11    12    2
    14    11    14    1
    15    14    19   ar
    16    14    15   ar
    17    19    18   ar
    18    15    17    1
    19    15    16   ar
    20    18    20    1
    21    18    16   ar

@<TRIPOS>MOLECULE
ZINC57358954_replica-1.pdb
 27 30 0 0 0
SMALL
GASTEIGER

@<TRIPOS>ATOM
      1  C1        -1.2760   27.6580   59.6420 C.2     0  <0>0       -0.0038
      2  C2        -0.8700   28.5210   60.6570 C.2     0  <0>0        0.0020
      3  C3        -0.3580   29.7500   60.3710 C.2     0  <0>0        0.0282
      4  C4        -0.2350   30.1600   59.0300 C.2     0  <0>0        0.1170
      5  C5        -0.6510   29.2770   58.0020 C.3     0  <0>0        0.1010
      6  C6        -1.1720   28.0210   58.3320 C.2     0  <0>0       -0.0149
      7  C7        -0.5210   29.7090   56.6090 C.2     0  <0>0        0.0445
      8  C8         0.0070   30.9700   56.3790 C.2     0  <0>0        0.0361
      9  C9         0.3880   31.7680   57.4720 C.2     0  <0>0        0.1652
     10  N1         0.2630   31.3580   58.7200 N.2     0  <0>0       -0.4025
     11  C14       -0.9360   28.8330   55.4920 C.2     0  <0>0        0.2464
     12  O2        -2.0920   28.4660   55.4040 O.2     0  <0>0       -0.2701
     13  N2        -0.0320   28.4430   54.5710 N.am    0  <0>0       -0.2771
     14  H9         0.8950   28.7140   54.6560 H       0  <0>0        0.1553
     15  C15       -0.4320   27.6450   53.4920 C.ar    0  <0>0        0.1061
     16  C20       -1.2220   28.1820   52.4830 C.ar    0  <0>0        0.1557
     17  C19       -1.6090   27.3920   51.4150 C.ar    0  <0>0        0.0311
     18  F1        -1.6070   29.4750   52.5410 F       0  <0>0       -0.2028
     19  C18       -1.2210   26.0650   51.3580 C.ar    0  <0>0        0.0047
     20  C17       -0.4410   25.5260   52.3630 C.ar    0  <0>0        0.0311
     21  C16       -0.0440   26.3110   53.4310 C.ar    0  <0>0        0.1557
     22  F2         0.7200   25.7830   54.4120 F       0  <0>0       -0.2028
     23  C10        0.9480   33.1080   57.2150 C.ar    0  <0>0        0.1748
     24  O1         2.0450   33.3790   56.4810 O.2     0  <0>0       -0.4478
     25  C13        2.2540   34.7040   56.4630 C.ar    0  <0>0        0.1797
     26  C12        1.2940   35.3030   57.1970 C.ar    0  <0>0        0.0439
     27  C11        0.4520   34.2850   57.6840 C.ar    0  <0>0        0.0434
@<TRIPOS>BOND
     1    19    17   ar
     2    19    20   ar
     3    17    16   ar
     4    20    21   ar
     5    16    18    1
     6    16    15   ar
     7    21    15   ar
     8    21    22    1
     9    15    13    1
    10    13    14    1
    11    13    11   am
    12    12    11    2
    13    11     7    1
    14     8     7    2
    15     8     9    1
    16    25    24   ar
    17    25    26   ar
    18    24    23   ar
    19     7     5    1
    20    26    27   ar
    21    23     9    1
    22    23    27   ar
    23     9    10    2
    24     5     6    1
    25     5     4    1
    26     6     1    2
    27    10     4    2
    28     4     3    1
    29     1     2    1
    30     3     2    2

@<TRIPOS>MOLECULE
ZINC66794847_replica-1.pdb
 21 23 0 0 0
SMALL
GASTEIGER

@<TRIPOS>ATOM
      1  C7        -0.9340   29.8860   54.3710 C.3     0  <0>0        0.1535
      2  C8         0.2610   30.0560   55.3120 C.3     0  <0>0        0.1080
      3  N1         0.1050   31.3030   56.0750 N.3     0  <0>0       -0.2508
      4  C9        -1.1470   31.2870   56.8460 C.3     0  <0>0        0.1059
      5  C10       -2.3280   31.1060   55.8890 C.3     0  <0>0        0.1599
      6  O1        -2.1440   29.9060   55.1330 O.3     0  <0>0       -0.3489
      7  C6        -0.8190   28.5720   53.6430 C.ar    0  <0>0        0.0068
      8  C1        -1.3460   28.4380   52.3720 C.ar    0  <0>0       -0.0010
      9  C2        -1.2400   27.2320   51.7030 C.ar    0  <0>0        0.0120
     10  C3        -0.6080   26.1600   52.3050 C.ar    0  <0>0        0.0682
     11  C4        -0.0800   26.2940   53.5790 C.ar    0  <0>0        0.0680
     12 Cl         -0.4760   24.6460   51.4660 Cl      0  <0>0       -0.0814
     13  C5        -0.1860   27.5010   54.2460 C.ar    0  <0>0        0.0104
     14 Cl          0.7150   24.9490   54.3360 Cl      0  <0>0       -0.0814
     15  C11        1.2610   31.5320   56.9520 C.3     0  <0>0        0.1697
     16  N2         1.1850   32.8810   57.5170 N.am    0  <0>0       -0.2828
     17  C14        1.1150   33.0490   58.8520 C.2     0  <0>0        0.1120
     18  S1         0.9640   34.8100   59.0970 S.3     0  <0>0       -0.0905
     19  S2         1.1650   31.8340   60.0580 S.2     0  <0>0       -0.0279
     20  C13        0.5990   35.2860   57.3530 C.3     0  <0>0        0.0853
     21  C12        1.1780   34.0370   56.6400 C.3     0  <0>0        0.1050
@<TRIPOS>BOND
     1    12    10    1
     2     9    10   ar
     3     9     8   ar
     4    10    11   ar
     5     8     7   ar
     6    11    13   ar
     7    11    14    1
     8     7    13   ar
     9     7     1    1
    10     1     6    1
    11     1     2    1
    12     6     5    1
    13     2     3    1
    14     5     4    1
    15     3     4    1
    16     3    15    1
    17    21    20    1
    18    21    16    1
    19    15    16    1
    20    20    18    1
    21    16    17    1
    22    17    18    1
    23    17    19    2

@<TRIPOS>MOLECULE
ZINC00097245_replica-1.pdb
 25 26 0 0 0
SMALL
GASTEIGER

@<TRIPOS>ATOM
      1  C4         7.4210   37.1300   58.4510 C.3     0  <0>0        0.1003
      2  C2         8.0140   37.3240   57.0540 C.3     0  <0>0        0.0128
      3  C1         6.8830   37.4100   56.0280 C.3     0  <0>0        0.0008
      4  C3         8.8320   38.6160   57.0210 C.3     0  <0>0        0.0008
      5  C5         8.5070   36.6920   59.4000 C.ar    0  <0>0       -0.0136
      6  C10        8.6310   37.3020   60.6350 C.ar    0  <0>0       -0.0007
      7  C9         9.6250   36.9010   61.5080 C.ar    0  <0>0        0.0368
      8  C8        10.4980   35.8860   61.1440 C.ar    0  <0>0        0.1443
      9  C7        10.3720   35.2770   59.9030 C.ar    0  <0>0        0.0368
     10  C6         9.3730   35.6770   59.0370 C.ar    0  <0>0       -0.0007
     11  O1        11.4760   35.4920   62.0000 O.3     0  <0>0       -0.4236
     12  C11       11.9310   34.1410   61.8860 C.3     0  <0>0        0.5087
     13  F1        13.2840   34.1320   61.5330 F       0  <0>0       -0.1550
     14  F2        11.7640   33.4890   63.1120 F       0  <0>0       -0.1550
     15  C12        6.3450   36.0770   58.3990 C.2     0  <0>0        0.2447
     16  O2         6.5550   35.0220   57.8380 O.2     0  <0>0       -0.2730
     17  N1         5.1480   36.3080   58.9750 N.am    0  <0>0       -0.2055
     18  H14        4.9970   37.1300   59.4680 H       0  <0>0        0.1773
     19  N2         4.1210   35.3610   58.8610 N.2     0  <0>0       -0.1744
     20  C13        2.8870   35.7520   58.7320 C.2     0  <0>0        0.1549
     21  C14        1.8140   34.7610   58.6140 C.ar    0  <0>0        0.1661
     22  O3         1.7320   33.5970   59.2900 O.2     0  <0>0       -0.4488
     23  C17        0.6140   32.9480   58.9260 C.ar    0  <0>0        0.1797
     24  C16       -0.0410   33.6920   58.0120 C.ar    0  <0>0        0.0438
     25  C15        0.7220   34.8540   57.8000 C.ar    0  <0>0        0.0424
@<TRIPOS>BOND
     1     3     2    1
     2     4     2    1
     3     2     1    1
     4    25    24   ar
     5    25    21   ar
     6    16    15    2
     7    24    23   ar
     8    15     1    1
     9    15    17   am
    10     1     5    1
    11    21    20    1
    12    21    22   ar
    13    20    19    2
    14    19    17    1
    15    23    22   ar
    16    17    18    1
    17    10     5   ar
    18    10     9   ar
    19     5     6   ar
    20     9     8   ar
    21     6     7   ar
    22     8     7   ar
    23     8    11    1
    24    13    12    1
    25    12    11    1
    26    12    14    1

@<TRIPOS>MOLECULE
ZINC60214745_replica-1.pdb
 24 26 0 0 0
SMALL
GASTEIGER

@<TRIPOS>ATOM
      1  C1        -1.1570   29.3730   56.6100 C.3     0  <0>0        0.0061
      2  C2        -1.5850   30.0910   55.3290 C.3     0  <0>0        0.0371
      3  C3        -3.0450   30.5350   55.4550 C.3     0  <0>0        0.0061
      4  C4        -0.6970   31.3170   55.1090 C.3     0  <0>0        0.0936
      5  N1        -0.5690   32.0590   56.3660 N.am    0  <0>0       -0.3005
      6  C5         0.6510   32.4060   56.8230 C.2     0  <0>0        0.2472
      7  O1         1.6450   32.1030   56.1920 O.2     0  <0>0       -0.2701
      8  H9        -1.3630   32.3010   56.8690 H       0  <0>0        0.1498
      9  C6         0.7780   33.1510   58.0850 C.ar    0  <0>0        0.0713
     10  C9         0.7820   34.5290   58.1110 C.ar    0  <0>0        0.0921
     11  S1         0.9420   34.9090   59.7380 S.2     0  <0>0       -0.0639
     12 Cl          0.6510   35.6230   56.7700 Cl      0  <0>0       -0.0750
     13  C8         1.0180   33.2720   60.4340 C.ar    0  <0>0        0.0879
     14  C7         0.9090   32.4740   59.3530 C.ar    0  <0>0        0.0239
     15 Cl          1.1890   32.8160   62.1000 Cl      0  <0>0       -0.0751
     16  C10       -1.4450   29.1530   54.1570 C.ar    0  <0>0       -0.0180
     17  C15       -0.7220   27.9820   54.2940 C.ar    0  <0>0        0.0360
     18  C14       -0.5970   27.1160   53.2210 C.ar    0  <0>0        0.1761
     19  C13       -1.1900   27.4340   52.0010 C.ar    0  <0>0        0.1764
     20  O2         0.0460   25.9180   53.0950 O.3     0  <0>0       -0.4346
     21  C12       -1.9070   28.6110   51.8690 C.ar    0  <0>0        0.0399
     22  O3        -0.9190   26.4340   51.1110 O.3     0  <0>0       -0.4346
     23  C11       -2.0340   29.4670   52.9470 C.ar    0  <0>0       -0.0009
     24  C16       -0.5020   25.3110   51.9100 C.3     0  <0>0        0.4294
@<TRIPOS>BOND
     1    22    24    1
     2    22    19    1
     3    21    19   ar
     4    21    23   ar
     5    24    20    1
     6    19    18   ar
     7    23    16   ar
     8    20    18    1
     9    18    17   ar
    10    16    17   ar
    11    16     2    1
    12     4     2    1
    13     4     5    1
    14     2     3    1
    15     2     1    1
    16     7     6    2
    17     5     6   am
    18     5     8    1
    19    12    10    1
    20     6     9    1
    21     9    10   ar
    22     9    14   ar
    23    10    11   ar
    24    14    13   ar
    25    11    13   ar
    26    13    15    1

@<TRIPOS>MOLECULE
ZINC49864575_replica-1.pdb
 20 22 0 0 0
SMALL
GASTEIGER

@<TRIPOS>ATOM
      1  C3        -0.5870   26.5190   52.5410 C.ar    0  <0>0       -0.0220
      2  C4         0.2080   26.1840   53.6250 C.ar    0  <0>0       -0.0030
      3  C5         0.3400   27.0490   54.6960 C.ar    0  <0>0        0.0147
      4  C6        -0.3270   28.2670   54.6970 C.ar    0  <0>0        0.0577
      5  C7        -1.1330   28.6040   53.5960 C.ar    0  <0>0        0.0570
      6  C8        -1.2540   27.7270   52.5190 C.ar    0  <0>0        0.0003
      7  C9        -1.7000   29.9340   53.8810 C.2     0  <0>0        0.2502
      8  O1        -2.4510   30.5840   53.1820 O.2     0  <0>0       -0.2816
      9  C10       -1.1460   30.3080   55.2240 C.2     0  <0>0        0.2922
     10  O2        -1.3680   31.3360   55.8300 O.2     0  <0>0       -0.2660
     11  N1        -0.3610   29.2970   55.6340 N.am    0  <0>0       -0.2476
     12  C11        0.3660   29.2800   56.9060 C.3     0  <0>0        0.1316
     13  C12       -0.5220   28.7160   57.9850 C.ar    0  <0>0        0.0281
     14  S1        -1.6780   27.3580   57.8950 S.2     0  <0>0       -0.0885
     15  C15       -2.2510   27.4020   59.5840 C.ar    0  <0>0        0.0418
     16  C14       -1.5390   28.4360   60.0960 C.ar    0  <0>0        0.0413
     17  C13       -0.6530   29.1100   59.2760 C.ar    0  <0>0        0.0111
     18 Br         -1.7560   28.9510   61.9020 Br      0  <0>0       -0.0485
     19  C2        -0.7190   25.5650   51.3820 C.3     0  <0>0        0.0264
     20  C1        -0.4760   24.1340   51.8680 C.3     0  <0>0        0.0050
@<TRIPOS>BOND
     1    19    20    1
     2    19     1    1
     3     6     1   ar
     4     6     5   ar
     5     1     2   ar
     6     8     7    2
     7     5     7    1
     8     5     4   ar
     9     2     3   ar
    10     7     9    1
    11     3     4   ar
    12     4    11    1
    13     9    11   am
    14     9    10    2
    15    11    12    1
    16    12    13    1
    17    14    13   ar
    18    14    15   ar
    19    13    17   ar
    20    17    16   ar
    21    15    16   ar
    22    16    18    1

@<TRIPOS>MOLECULE
ZINC08303498_replica-1.pdb
 27 29 0 0 0
SMALL
GASTEIGER

@<TRIPOS>ATOM
      1  C1         2.3490   32.5430   57.7830 C.3     0  <0>0        0.1157
      2  N1         1.2730   33.4790   57.4450 N.am    0  <0>0       -0.2656
      3  C10        1.5680   34.6770   56.9040 C.2     0  <0>0        0.2554
      4  O2         0.6770   35.4680   56.6520 O.2     0  <0>0       -0.2693
      5  C2        -0.1230   33.1110   57.6940 C.3     0  <0>0        0.1797
      6  C3        -0.4800   31.9030   56.8680 C.2     0  <0>0        0.2464
      7  O1        -0.8270   30.8770   57.4130 O.2     0  <0>0       -0.2729
      8  N2        -0.4150   31.9620   55.5230 N.am    0  <0>0       -0.2825
      9  H6        -0.2030   32.8020   55.0840 H       0  <0>0        0.1549
     10  C4        -0.6520   30.8140   54.7580 C.ar    0  <0>0        0.0505
     11  C9        -1.8090   30.7150   53.9950 C.ar    0  <0>0        0.0170
     12  C8        -2.0420   29.5810   53.2420 C.ar    0  <0>0        0.0309
     13  C7        -1.1240   28.5440   53.2470 C.ar    0  <0>0        0.1402
     14  C6         0.0300   28.6420   54.0070 C.ar    0  <0>0        0.0309
     15  F1        -1.3550   27.4360   52.5090 F       0  <0>0       -0.2042
     16  C5         0.2690   29.7760   54.7560 C.ar    0  <0>0        0.0170
     17  C11        2.9620   35.0290   56.6170 C.ar    0  <0>0        0.0824
     18  S1         3.9230   34.7130   55.1510 S.2     0  <0>0       -0.0871
     19  C14        5.4020   35.4780   55.6490 C.ar    0  <0>0        0.0034
     20  C13        5.1620   35.8950   56.9080 C.ar    0  <0>0       -0.0195
     21  C15        6.5840   35.6340   54.7270 C.3     0  <0>0        0.0326
     22  C12        3.8750   35.6890   57.4100 C.ar    0  <0>0        0.0069
     23  C20        6.2240   36.4750   57.8310 C.3     0  <0>0        0.0266
     24  C19        7.1320   35.3410   58.3090 C.3     0  <0>0        0.0047
     25  C18        7.6760   34.5940   57.0880 C.3     0  <0>0        0.0004
     26  C17        8.5300   35.5740   56.3090 C.3     0  <0>0        0.0004
     27  C16        7.7140   36.4420   55.3640 C.3     0  <0>0        0.0052
@<TRIPOS>BOND
     1    15    13    1
     2    12    13   ar
     3    12    11   ar
     4    13    14   ar
     5    11    10   ar
     6    14    16   ar
     7    21    27    1
     8    21    19    1
     9    16    10   ar
    10    10     8    1
    11     9     8    1
    12    18    19   ar
    13    18    17   ar
    14    27    26    1
    15     8     6   am
    16    19    20   ar
    17    26    25    1
    18    17     3    1
    19    17    22   ar
    20     4     3    2
    21     6     7    2
    22     6     5    1
    23     3     2   am
    24    20    22   ar
    25    20    23    1
    26    25    24    1
    27     2     5    1
    28     2     1    1
    29    23    24    1

@<TRIPOS>MOLECULE
ZINC04356710_replica-1.pdb
 19 20 0 0 0
SMALL
GASTEIGER

@<TRIPOS>ATOM
      1  C4         8.4160   36.3220   57.9060 C.ar    0  <0>0        0.1434
      2  N1         9.1630   35.3010   57.5970 N.ar    0  <0>0       -0.1328
      3  N2         9.8740   34.9520   58.6110 N.ar    0  <0>0       -0.1224
      4  C5         9.6180   35.7420   59.6270 C.ar    0  <0>0        0.1935
      5  N3         8.6760   36.6380   59.2110 N.ar    0  <0>0       -0.2896
      6  S1        10.3520   35.6600   61.2270 S.3     0  <0>0       -0.0708
      7  C9        10.3790   33.8670   61.4700 C.3     0  <0>0        0.0913
      8  C10       11.6920   33.4630   62.0870 C.ar    0  <0>0       -0.0109
      9  C15       12.8000   34.2780   61.9500 C.ar    0  <0>0       -0.0034
     10  C14       14.0050   33.9070   62.5170 C.ar    0  <0>0       -0.0003
     11  C13       14.1020   32.7220   63.2210 C.ar    0  <0>0       -0.0000
     12  C12       12.9940   31.9060   63.3580 C.ar    0  <0>0       -0.0003
     13  C11       11.7880   32.2800   62.7950 C.ar    0  <0>0       -0.0034
     14  C6         8.0740   37.7180   59.9960 C.3     0  <0>0        0.1356
     15  C7         6.8480   37.2010   60.7040 C.2     0  <0>0       -0.0017
     16  C8         5.6650   37.3540   60.1620 C.2     0  <0>0       -0.0029
     17  C2         7.4440   37.0250   56.9940 C.3     0  <0>0        0.0588
     18  C1         8.0330   38.3670   56.5560 C.3     0  <0>0        0.0080
     19  C3         7.1820   36.1560   55.7610 C.3     0  <0>0        0.0080
@<TRIPOS>BOND
     1    19    17    1
     2    18    17    1
     3    17     1    1
     4     2     1   ar
     5     2     3   ar
     6     1     5   ar
     7     3     4   ar
     8     5     4   ar
     9     5    14    1
    10     4     6    1
    11    14    15    1
    12    16    15    2
    13     6     7    1
    14     7     8    1
    15     9     8   ar
    16     9    10   ar
    17     8    13   ar
    18    10    11   ar
    19    13    12   ar
    20    11    12   ar

@<TRIPOS>MOLECULE
ZINC37328673_replica-1.pdb
 22 24 0 0 0
SMALL
GASTEIGER

@<TRIPOS>ATOM
      1  C1         8.0680   38.8710   57.6920 C.3     0  <0>0        0.0275
      2  C2         8.2170   37.3840   57.4920 C.2     0  <0>0       -0.0264
      3  C3         7.8220   36.8100   56.3450 C.2     0  <0>0        0.0027
      4  S1         8.2000   35.0850   56.5950 S.3     0  <0>0       -0.0639
      5  C4         8.8780   35.1880   58.2320 C.2     0  <0>0        0.1515
      6  C5         8.7960   36.5580   58.5360 C.3     0  <0>0        0.1537
      7  C6         9.2890   36.9370   59.8270 C.2     0  <0>0        0.2384
      8  O1         9.2570   38.1020   60.1840 O.2     0  <0>0       -0.2739
      9  N1         9.7890   35.9860   60.6380 N.am    0  <0>0       -0.2594
     10  C7         9.8330   34.6830   60.2570 C.2     0  <0>0        0.2073
     11  N2         9.3810   34.3050   59.0900 N.2     0  <0>0       -0.3846
     12  C15        7.2050   37.4650   55.1360 C.3     0  <0>0        0.0376
     13  H13       10.1240   36.2370   61.5130 H       0  <0>0        0.1570
     14  C8        10.4000   33.6550   61.1990 C.3     0  <0>0        0.2793
     15  O2        11.3740   34.2700   62.0460 O.3     0  <0>0       -0.4663
     16  C9        12.2830   33.4510   62.6370 C.ar    0  <0>0        0.1397
     17  C14       11.9220   32.1640   63.0080 C.ar    0  <0>0        0.0436
     18  C13       12.8500   31.3320   63.6030 C.ar    0  <0>0        0.0376
     19  C12       14.1360   31.7850   63.8390 C.ar    0  <0>0        0.0069
     20 Br         12.3620   29.5740   64.1020 Br      0  <0>0       -0.0489
     21  C11       14.4970   33.0690   63.4740 C.ar    0  <0>0        0.0036
     22  C10       13.5740   33.9030   62.8740 C.ar    0  <0>0        0.0369
@<TRIPOS>BOND
     1    12     3    1
     2     3     4    1
     3     3     2    2
     4     4     5    1
     5     2     1    1
     6     2     6    1
     7     5     6    1
     8     5    11    2
     9     6     7    1
    10    11    10    2
    11     7     8    2
    12     7     9   am
    13    10     9    1
    14    10    14    1
    15     9    13    1
    16    14    15    1
    17    15    16    1
    18    16    22   ar
    19    16    17   ar
    20    22    21   ar
    21    17    18   ar
    22    21    19   ar
    23    18    19   ar
    24    18    20    1

@<TRIPOS>MOLECULE
ZINC48816486_replica-1.pdb
 22 24 0 0 0
SMALL
GASTEIGER

@<TRIPOS>ATOM
      1  C1        -1.9680   27.7850   51.0880 C.3     0  <0>0        0.0275
      2  C2        -1.2290   27.6640   52.3960 C.2     0  <0>0       -0.0264
      3  C3        -0.4690   26.5860   52.6490 C.2     0  <0>0        0.0027
      4  S1         0.1770   26.9100   54.2800 S.3     0  <0>0       -0.0639
      5  C4        -0.5910   28.4830   54.5710 C.2     0  <0>0        0.1515
      6  C5        -1.3230   28.7150   53.3930 C.3     0  <0>0        0.1537
      7  C6        -2.0560   29.9450   53.3500 C.2     0  <0>0        0.2384
      8  O1        -2.7250   30.2340   52.3720 O.2     0  <0>0       -0.2739
      9  N1        -1.9940   30.7780   54.4060 N.am    0  <0>0       -0.2594
     10  C7        -1.2540   30.4730   55.5040 C.2     0  <0>0        0.2073
     11  N2        -0.5840   29.3530   55.5770 N.2     0  <0>0       -0.3846
     12  C15       -0.2230   25.3890   51.7680 C.3     0  <0>0        0.0376
     13  H13       -2.4880   31.6120   54.3830 H       0  <0>0        0.1570
     14  C8        -1.2160   31.4360   56.6610 C.3     0  <0>0        0.2793
     15  O2         0.1090   31.4880   57.1940 O.3     0  <0>0       -0.4659
     16  C9         0.4120   32.5450   57.9920 C.ar    0  <0>0        0.1445
     17  C14        0.6960   32.3440   59.3360 C.ar    0  <0>0        0.0640
     18  C13        1.0100   33.4200   60.1430 C.ar    0  <0>0        0.0088
     19  I1         0.6550   30.4080   60.1370 I       0  <0>0       -0.0394
     20  C12        1.0310   34.6980   59.6160 C.ar    0  <0>0        0.0006
     21  C11        0.7430   34.9020   58.2790 C.ar    0  <0>0        0.0031
     22  C10        0.4340   33.8290   57.4660 C.ar    0  <0>0        0.0374
@<TRIPOS>BOND
     1     1     2    1
     2    12     3    1
     3     8     7    2
     4     2     3    2
     5     2     6    1
     6     3     4    1
     7     7     6    1
     8     7     9   am
     9     6     5    1
    10     4     5    1
    11    13     9    1
    12     9    10    1
    13     5    11    2
    14    10    11    2
    15    10    14    1
    16    14    15    1
    17    15    16    1
    18    22    16   ar
    19    22    21   ar
    20    16    17   ar
    21    21    20   ar
    22    17    19    1
    23    17    18   ar
    24    20    18   ar

@<TRIPOS>MOLECULE
ZINC64638114_replica-1.pdb
 23 24 0 0 0
SMALL
GASTEIGER

@<TRIPOS>ATOM
      1  N1        -0.9890   30.4610   55.7660 N.3     0  <0>0       -0.2924
      2  H14       -1.8050   29.8760   55.8690 H       0  <0>0        0.1236
      3  C5         0.0840   30.0330   56.6730 C.3     0  <0>0        0.0828
      4  C2        -0.4520   28.9700   57.6320 C.3     0  <0>0        0.0176
      5  C1        -0.4360   29.5160   59.0610 C.3     0  <0>0        0.0017
      6  C3         0.4290   27.7200   57.5540 C.3     0  <0>0        0.0017
      7  C4        -1.8870   28.6070   57.2410 C.3     0  <0>0        0.0017
      8  C6         0.5770   31.2190   57.4620 C.ar    0  <0>0        0.0215
      9  S1         2.1270   31.4300   58.3230 S.2     0  <0>0       -0.0895
     10  C9         1.8480   33.0810   58.9430 C.ar    0  <0>0        0.0352
     11  C8         0.6090   33.3540   58.4640 C.ar    0  <0>0        0.0072
     12  C7        -0.0420   32.4000   57.7050 C.ar    0  <0>0        0.0040
     13  C10       -0.5250   30.4770   54.3730 C.3     0  <0>0        0.1030
     14  C11       -1.6360   29.9560   53.4590 C.3     0  <0>0        0.1485
     15  C12       -1.2780   28.5780   52.9670 C.ar    0  <0>0        0.0078
     16  C17       -0.5100   27.7410   53.7540 C.ar    0  <0>0        0.0277
     17  C16       -0.1860   26.4730   53.3040 C.ar    0  <0>0        0.1399
     18  C15       -0.6220   26.0480   52.0610 C.ar    0  <0>0        0.0296
     19  F1         0.5590   25.6510   54.0760 F       0  <0>0       -0.2042
     20  C14       -1.3860   26.8880   51.2720 C.ar    0  <0>0        0.0021
     21  C13       -1.7130   28.1520   51.7250 C.ar    0  <0>0       -0.0018
     22  O1        -2.8640   29.8970   54.1890 O.3     0  <0>0       -0.3786
     23  H22       -3.4540   29.1840   53.9100 H       0  <0>0        0.2108
@<TRIPOS>BOND
     1    20    21   ar
     2    20    18   ar
     3    21    15   ar
     4    18    17   ar
     5    15    14    1
     6    15    16   ar
     7    17    16   ar
     8    17    19    1
     9    14    22    1
    10    14    13    1
    11    23    22    1
    12    13     1    1
    13     1     2    1
    14     1     3    1
    15     3     8    1
    16     3     4    1
    17     7     4    1
    18     8    12   ar
    19     8     9   ar
    20     6     4    1
    21     4     5    1
    22    12    11   ar
    23     9    10   ar
    24    11    10   ar

@<TRIPOS>MOLECULE
ZINC05371577_replica-1.pdb
 22 24 0 0 0
SMALL
GASTEIGER

@<TRIPOS>ATOM
      1  N1         5.1960   34.5880   57.7120 N.am    0  <0>0       -0.2227
      2  C8         6.2850   35.1780   58.1750 C.2     0  <0>0        0.2634
      3  O1         6.5460   35.1920   59.3640 O.2     0  <0>0       -0.2687
      4  C9         7.1630   35.8220   57.1840 C.2     0  <0>0        0.0883
      5  C10        8.3320   36.4980   57.3680 C.2     0  <0>0        0.0486
      6  S1         6.2790   35.4650   55.6720 S.3     0  <0>0       -0.0600
      7  C16        4.9130   34.5690   56.3930 C.2     0  <0>0        0.1250
      8  S2         3.5720   33.8580   55.6030 S.2     0  <0>0       -0.0269
      9  C6         4.3200   33.9630   58.6090 C.ar    0  <0>0        0.0550
     10  C5         3.2220   34.6540   59.1040 C.ar    0  <0>0       -0.0078
     11  C4         2.3580   34.0330   59.9850 C.ar    0  <0>0       -0.0033
     12  C17        2.9710   36.0770   58.6770 C.3     0  <0>0        0.0323
     13  C3         2.5910   32.7300   60.3810 C.ar    0  <0>0       -0.0045
     14  C2         3.6860   32.0410   59.8950 C.ar    0  <0>0       -0.0206
     15  C1         3.9370   30.6210   60.3300 C.3     0  <0>0        0.0311
     16  C7         4.5520   32.6540   59.0100 C.ar    0  <0>0        0.0107
     17  C11        8.9820   36.4590   58.6230 C.ar    0  <0>0        0.1456
     18  O2         9.7390   35.4470   59.0970 O.2     0  <0>0       -0.4577
     19  C14       10.1890   35.7620   60.3200 C.ar    0  <0>0        0.1233
     20  C13        9.7250   36.9840   60.6610 C.ar    0  <0>0        0.0361
     21  C15       11.0680   34.8890   61.1790 C.3     0  <0>0        0.0725
     22  C12        8.9540   37.4490   59.5850 C.ar    0  <0>0        0.0403
@<TRIPOS>BOND
     1     8     7    2
     2     6     7    1
     3     6     4    1
     4     7     1    1
     5     4     5    2
     6     4     2    1
     7     5    17    1
     8     1     2   am
     9     1     9    1
    10     2     3    2
    11     9    16   ar
    12     9    10   ar
    13    17    18   ar
    14    17    22   ar
    15    12    10    1
    16    16    14   ar
    17    18    19   ar
    18    10    11   ar
    19    22    20   ar
    20    14    15    1
    21    14    13   ar
    22    11    13   ar
    23    19    20   ar
    24    19    21    1

@<TRIPOS>MOLECULE
ZINC42365396_replica-1.pdb
 21 23 0 0 0
SMALL
GASTEIGER

@<TRIPOS>ATOM
      1  C7        -0.4250   28.0640   54.6980 C.ar    0  <0>0        0.0608
      2  C8        -0.9180   27.8450   53.3890 C.ar    0  <0>0        0.0317
      3  C9        -1.6950   28.8110   52.7350 C.ar    0  <0>0        0.0027
      4  C10       -2.1530   28.5670   51.4750 C.ar    0  <0>0        0.0001
      5  C11       -1.8590   27.3690   50.8290 C.ar    0  <0>0        0.0015
      6  C12       -1.1070   26.4110   51.4380 C.ar    0  <0>0        0.0191
      7  C13       -0.6170   26.6260   52.7360 C.ar    0  <0>0        0.0825
      8  N2         0.1260   25.6960   53.3520 N.ar    0  <0>0       -0.2430
      9  C14        0.5950   25.8720   54.5610 C.ar    0  <0>0        0.1103
     10  C15        0.3500   27.0520   55.2810 C.ar    0  <0>0        0.1008
     11  C16        0.8830   27.2170   56.6000 C.1     0  <0>0        0.1032
     12  N3         1.3040   27.3480   57.6470 N.1     0  <0>0       -0.1907
     13  N1        -0.6920   29.2360   55.3740 N.pl3   0  <0>0       -0.3012
     14  C1         0.3200   30.2930   55.4370 C.3     0  <0>0        0.1125
     15  C2        -1.9900   29.4250   56.0280 C.3     0  <0>0        0.1183
     16  C3        -1.9530   28.8100   57.4030 C.ar    0  <0>0        0.0051
     17  C6        -2.5960   27.6440   57.6530 C.ar    0  <0>0        0.0333
     18  S1        -2.2320   27.3840   59.3810 S.2     0  <0>0       -0.0799
     19  C5        -1.2550   28.8520   59.6570 C.ar    0  <0>0        0.0636
     20  C4        -1.2680   29.4320   58.4310 C.ar    0  <0>0        0.0111
     21 Br         -0.4180   29.4460   61.2450 Br      0  <0>0       -0.0419
@<TRIPOS>BOND
     1     5     6   ar
     2     5     4   ar
     3     6     7   ar
     4     4     3   ar
     5     3     2   ar
     6     7     8   ar
     7     7     2   ar
     8     8     9   ar
     9     2     1   ar
    10     9    10   ar
    11     1    10   ar
    12     1    13    1
    13    10    11    1
    14    13    14    1
    15    13    15    1
    16    15    16    1
    17    11    12    3
    18    16    17   ar
    19    16    20   ar
    20    17    18   ar
    21    20    19   ar
    22    18    19   ar
    23    19    21    1

@<TRIPOS>MOLECULE
ZINC48544980_replica-1.pdb
 18 19 0 0 0
SMALL
GASTEIGER

@<TRIPOS>ATOM
      1  C9         6.3900   34.7700   58.2720 C.ar    0  <0>0        0.1086
      2  C10        5.1800   35.3690   57.9100 C.ar    0  <0>0        0.1183
      3  C11        4.2060   35.3430   58.9100 C.ar    0  <0>0        0.1574
      4  N2         4.5220   34.7770   60.0410 N.ar    0  <0>0       -0.1958
      5  S1         6.0960   34.2520   59.8400 S.2     0  <0>0        0.0296
      6 Cl          2.6350   36.0370   58.6550 Cl      0  <0>0       -0.0599
      7  C12        4.9600   35.9590   56.6250 C.1     0  <0>0        0.1047
      8  N3         4.7850   36.4290   55.6060 N.1     0  <0>0       -0.1907
      9  N1         7.5410   34.6320   57.5200 N.pl3   0  <0>0       -0.2952
     10  C1         7.7950   33.3860   56.7920 C.3     0  <0>0        0.1130
     11  C2         8.5080   35.7300   57.4520 C.3     0  <0>0        0.1187
     12  C3         9.1870   35.8830   58.7900 C.ar    0  <0>0        0.0038
     13  C8         8.9610   37.0130   59.5540 C.ar    0  <0>0        0.0322
     14  C7         9.5800   37.1520   60.7830 C.ar    0  <0>0        0.0064
     15 Br          7.7990   38.3660   58.9230 Br      0  <0>0       -0.0493
     16  C6        10.4330   36.1670   61.2420 C.ar    0  <0>0        0.0005
     17  C5        10.6630   35.0390   60.4750 C.ar    0  <0>0       -0.0002
     18  C4        10.0400   34.8980   59.2480 C.ar    0  <0>0       -0.0021
@<TRIPOS>BOND
     1     8     7    3
     2     7     2    1
     3    10     9    1
     4    11     9    1
     5    11    12    1
     6     9     1    1
     7     2     1   ar
     8     2     3   ar
     9     1     5   ar
    10     6     3    1
    11    12    18   ar
    12    12    13   ar
    13     3     4   ar
    14    15    13    1
    15    18    17   ar
    16    13    14   ar
    17     5     4   ar
    18    17    16   ar
    19    14    16   ar

@<TRIPOS>MOLECULE
ZINC54824599_replica-1.pdb
 20 21 0 0 0
SMALL
GASTEIGER

@<TRIPOS>ATOM
      1  C7        -1.0630   27.8300   56.1360 C.3     0  <0>0        0.0831
      2  C8        -1.9180   28.8990   56.8480 C.3     0  <0>0        0.0206
      3  C9        -1.7280   28.5970   58.3550 C.3     0  <0>0        0.0029
      4  C10       -0.2350   28.1900   58.4360 C.3     0  <0>0        0.0168
      5  C11        0.0060   27.3770   57.1460 C.3     0  <0>0        0.1092
      6  C12       -0.1360   25.9380   57.4210 C.1     0  <0>0        0.0738
      7  N2        -0.2470   24.8280   57.6330 N.1     0  <0>0       -0.1958
      8  N1        -0.4230   28.4050   54.9510 N.pl3   0  <0>0       -0.3325
      9  H6         0.2570   29.0910   55.0510 H       0  <0>0        0.1468
     10  C4        -0.7910   27.9660   53.6760 C.ar    0  <0>0        0.0592
     11  C3        -1.6140   28.7520   52.8800 C.ar    0  <0>0        0.0853
     12  C2        -1.9750   28.3150   51.6200 C.ar    0  <0>0        0.0051
     13  C1        -1.5180   27.0980   51.1510 C.ar    0  <0>0        0.0009
     14  C6        -0.6970   26.3130   51.9400 C.ar    0  <0>0        0.0126
     15  C5        -0.3320   26.7430   53.2020 C.ar    0  <0>0        0.0707
     16 Cl          0.6970   25.7570   54.1920 Cl      0  <0>0       -0.0810
     17  C13       -2.1130   30.0800   53.3900 C.3     0  <0>0        0.4197
     18  F1        -2.7070   30.7880   52.3400 F       0  <0>0       -0.1658
     19  F2        -3.0560   29.8660   54.4010 F       0  <0>0       -0.1658
     20  F3        -1.0390   30.8160   53.9010 F       0  <0>0       -0.1658
@<TRIPOS>BOND
     1    13    12   ar
     2    13    14   ar
     3    12    11   ar
     4    14    15   ar
     5    18    17    1
     6    11    17    1
     7    11    10   ar
     8    15    10   ar
     9    15    16    1
    10    17    20    1
    11    17    19    1
    12    10     8    1
    13     8     9    1
    14     8     1    1
    15     1     2    1
    16     1     5    1
    17     2     3    1
    18     5     6    1
    19     5     4    1
    20     6     7    3
    21     3     4    1

@<TRIPOS>MOLECULE
ZINC48770465_replica-1.pdb
 21 23 0 0 0
SMALL
GASTEIGER

@<TRIPOS>ATOM
      1  C2         0.5140   31.7190   56.8690 C.ar    0  <0>0        0.1734
      2  C3         0.3910   30.7520   55.8880 C.ar    0  <0>0        0.0521
      3  C4         0.0440   29.4460   56.2390 C.ar    0  <0>0        0.0893
      4  C5        -0.1770   29.1220   57.5760 C.ar    0  <0>0        0.0220
      5  C6        -0.0530   30.0900   58.5510 C.ar    0  <0>0        0.0720
      6  C7         0.2970   31.3870   58.2040 C.ar    0  <0>0        0.1740
      7 Br         -0.3540   29.6470   60.3650 Br      0  <0>0       -0.0457
      8  C8        -0.0890   28.4070   55.1910 C.1     0  <0>0        0.1378
      9  N2         0.3360   27.1760   55.4420 N.2     0  <0>0       -0.3323
     10  C11        0.2260   26.2240   54.5290 C.2     0  <0>0        0.1842
     11  C10       -0.3320   26.5330   53.2950 C.3     0  <0>0        0.1134
     12 Cl          0.7780   24.6130   54.8660 Cl      0  <0>0       -0.0512
     13  C9        -0.7600   27.8290   53.0640 C.2     0  <0>0        0.1062
     14  C12       -0.5830   25.6840   52.0710 C.3     0  <0>0        0.0152
     15  N1        -0.6260   28.7310   54.0220 N.2     0  <0>0       -0.3482
     16  C14       -1.3280   27.9360   51.6670 C.3     0  <0>0        0.0559
     17  C13       -1.6000   26.4820   51.2280 C.3     0  <0>0        0.0080
     18  O1         0.8510   32.9920   56.5290 O.3     0  <0>0       -0.4683
     19  C1         2.2290   33.3510   56.6440 C.3     0  <0>0        0.2526
     20  O2         0.4240   32.3370   59.1680 O.3     0  <0>0       -0.5025
     21  H6         0.6510   33.2140   58.8290 H       0  <0>0        0.2923
@<TRIPOS>BOND
     1    17    16    1
     2    17    14    1
     3    16    13    1
     4    14    11    1
     5    13    11    1
     6    13    15    2
     7    11    10    1
     8    15     8    2
     9    10    12    1
    10    10     9    2
    11     8     9    2
    12     8     3    1
    13     2     3   ar
    14     2     1   ar
    15     3     4   ar
    16    18    19    1
    17    18     1    1
    18     1     6   ar
    19     4     5   ar
    20     6     5   ar
    21     6    20    1
    22     5     7    1
    23    21    20    1

@<TRIPOS>MOLECULE
ZINC24964291_replica-1.pdb
 24 26 0 0 0
SMALL
GASTEIGER

@<TRIPOS>ATOM
      1  C10        1.2290   32.2870   56.6060 C.1     0  <0>0        0.1692
      2  N1         0.5050   33.3870   56.4360 N.2     0  <0>0       -0.3238
      3  C11        1.0340   34.5960   56.5220 C.2     0  <0>0        0.1778
      4  C12        2.4210   34.7320   56.8060 C.3     0  <0>0        0.1492
      5  C13        3.2250   35.9330   56.9490 C.2     0  <0>0       -0.0034
      6  C14        4.5330   35.8180   57.2200 C.2     0  <0>0        0.0339
      7  S2         4.7860   34.0560   57.3050 S.3     0  <0>0       -0.0579
      8  C15        3.1280   33.5220   56.9740 C.2     0  <0>0        0.1630
      9  N2         2.5260   32.3530   56.8770 N.2     0  <0>0       -0.3319
     10  S1         0.4520   30.7120   56.4760 S.3     0  <0>0       -0.0180
     11  C9        -1.2580   31.2270   56.1820 C.3     0  <0>0        0.0783
     12  C8        -2.1120   30.0020   55.8540 C.3     0  <0>0        0.0601
     13  C7        -2.4260   29.9840   54.3560 C.3     0  <0>0        0.2063
     14  O1        -1.2220   29.7530   53.6200 O.3     0  <0>0       -0.4754
     15  C6        -1.0430   28.5070   53.1070 C.ar    0  <0>0        0.1386
     16  C1        -0.3080   27.5650   53.8120 C.ar    0  <0>0        0.0378
     17  C2        -0.1290   26.2990   53.2890 C.ar    0  <0>0        0.0145
     18  C3        -0.6800   25.9710   52.0630 C.ar    0  <0>0        0.0579
     19  C4        -1.4120   26.9100   51.3590 C.ar    0  <0>0        0.0145
     20 Cl         -0.4520   24.3800   51.4090 Cl      0  <0>0       -0.0822
     21  C5        -1.5950   28.1760   51.8780 C.ar    0  <0>0        0.0378
     22  N3         0.2450   35.7180   56.3390 N.pl3   0  <0>0       -0.3350
     23  H13        0.6440   36.5880   55.7970 H       0  <0>0        0.1444
     24  H14       -0.7810   35.7390   56.7350 H       0  <0>0        0.1444
@<TRIPOS>BOND
     1    19    21   ar
     2    19    18   ar
     3    20    18    1
     4    21    15   ar
     5    18    17   ar
     6    15    14    1
     7    15    16   ar
     8    17    16   ar
     9    14    13    1
    10    13    12    1
    11    23    22    1
    12    12    11    1
    13    11    10    1
    14    22     3    1
    15    22    24    1
    16     2     3    2
    17     2     1    2
    18    10     1    1
    19     3     4    1
    20     1     9    2
    21     4     5    1
    22     4     8    1
    23     9     8    2
    24     5     6    2
    25     8     7    1
    26     6     7    1

@<TRIPOS>MOLECULE
ZINC36994597_replica-1.pdb
 20 21 0 0 0
SMALL
GASTEIGER

@<TRIPOS>ATOM
      1  C5        -0.3760   29.0560   55.9170 C.3     0  <0>0       -0.0378
      2  C2        -1.3970   28.5320   56.9300 C.3     0  <0>0       -0.0139
      3  C1        -2.8120   28.7600   56.3920 C.3     0  <0>0       -0.0017
      4  C3        -1.2300   29.2780   58.2550 C.3     0  <0>0       -0.0017
      5  C4        -1.1720   27.0360   57.1550 C.3     0  <0>0       -0.0017
      6  C6        -0.5170   28.2950   54.6230 C.ar    0  <0>0       -0.0420
      7  C11        0.1130   27.0750   54.4660 C.ar    0  <0>0       -0.0063
      8  C10       -0.0190   26.3770   53.2810 C.ar    0  <0>0       -0.0004
      9  C9        -0.7730   26.9040   52.2480 C.ar    0  <0>0       -0.0000
     10  C8        -1.3980   28.1270   52.4030 C.ar    0  <0>0       -0.0004
     11  C7        -1.2700   28.8230   53.5910 C.ar    0  <0>0       -0.0063
     12  N1        -0.6160   30.4840   55.6760 N.4     0  <0>0        0.3924
     13  H16       -1.1270   30.5990   54.8140 H       0  <0>0       -0.0833
     14  H22       -1.1530   30.8690   56.4380 H       0  <0>0       -0.0833
     15  C12        0.6700   31.1870   55.5800 C.3     0  <0>0       -0.0148
     16  C13        0.6630   32.3760   56.5060 C.ar    0  <0>0        0.1017
     17  O1         1.5290   33.4020   56.4730 O.2     0  <0>0       -0.4568
     18  C16        1.2200   34.2800   57.4410 C.ar    0  <0>0        0.1790
     19  C15        0.1520   33.8140   58.1120 C.ar    0  <0>0        0.0434
     20  C14       -0.2080   32.5860   57.5090 C.ar    0  <0>0        0.0340
@<TRIPOS>BOND
     1     9    10   ar
     2     9     8   ar
     3    10    11   ar
     4     8     7   ar
     5    11     6   ar
     6     7     6   ar
     7     6     1    1
     8    13    12    1
     9    15    12    1
    10    15    16    1
    11    12     1    1
    12    12    14    1
    13     1     2    1
    14     3     2    1
    15    17    16   ar
    16    17    18   ar
    17    16    20   ar
    18     2     5    1
    19     2     4    1
    20    18    19   ar
    21    20    19   ar

@<TRIPOS>MOLECULE
ZINC01411625_replica-1.pdb
 28 31 0 0 0
SMALL
GASTEIGER

@<TRIPOS>ATOM
      1  N2         5.8090   34.6050   57.9670 N.am    0  <0>0       -0.1580
      2  C6         6.8110   35.4610   57.8700 C.2     0  <0>0        0.2776
      3  O1         6.8850   36.2380   56.9360 O.2     0  <0>0       -0.2673
      4  C7         7.8060   35.4460   58.8960 C.2     0  <0>0        0.0897
      5  C8         8.9260   36.2150   59.0290 C.2     0  <0>0        0.0486
      6  S1         7.1890   34.1430   59.9510 S.3     0  <0>0       -0.0586
      7  C19        5.7280   33.7430   59.0040 C.2     0  <0>0        0.1407
      8  S2         4.5320   32.5610   59.3260 S.2     0  <0>0       -0.0255
      9  C9         9.7820   36.0290   60.1360 C.ar    0  <0>0        0.1460
     10  O2        10.5120   34.9240   60.3950 O.2     0  <0>0       -0.4535
     11  C12       11.2110   35.1060   61.5300 C.ar    0  <0>0        0.1453
     12  C11       10.9290   36.3610   62.0220 C.ar    0  <0>0        0.0406
     13  C10       10.0210   36.9510   61.1400 C.ar    0  <0>0        0.0406
     14  C13       12.1260   34.1260   62.1450 C.ar    0  <0>0        0.0355
     15  C18       11.6240   32.9320   62.6690 C.ar    0  <0>0        0.0167
     16  C17       12.4840   32.0180   63.2430 C.ar    0  <0>0        0.0851
     17  C16       13.8440   32.2840   63.2990 C.ar    0  <0>0        0.1506
     18 Cl         11.8630   30.5340   63.8950 Cl      0  <0>0       -0.0799
     19  C15       14.3480   33.4670   62.7810 C.ar    0  <0>0        0.0306
     20  F1        14.6830   31.3870   63.8620 F       0  <0>0       -0.2033
     21  C14       13.4980   34.3850   62.2010 C.ar    0  <0>0        0.0054
     22  N1         4.8150   34.5910   56.9790 N.ar    0  <0>0       -0.2568
     23  C2         3.6030   35.2100   57.0630 C.ar    0  <0>0        0.0572
     24  C1         3.1050   36.0230   58.2310 C.3     0  <0>0        0.0519
     25  C3         2.9290   34.9720   55.9210 C.ar    0  <0>0        0.0157
     26  C4         3.7510   34.1700   55.1050 C.ar    0  <0>0        0.0157
     27  C5         4.8990   33.9530   55.7770 C.ar    0  <0>0        0.0572
     28  C20        6.0720   33.1450   55.2860 C.3     0  <0>0        0.0519
@<TRIPOS>BOND
     1    26    27   ar
     2    26    25   ar
     3    28    27    1
     4    27    22   ar
     5    25    23   ar
     6     3     2    2
     7    22    23   ar
     8    22     1    1
     9    23    24    1
    10     2     1   am
    11     2     4    1
    12     1     7    1
    13     4     5    2
    14     4     6    1
    15     7     8    2
    16     7     6    1
    17     5     9    1
    18     9    10   ar
    19     9    13   ar
    20    10    11   ar
    21    13    12   ar
    22    11    12   ar
    23    11    14    1
    24    14    21   ar
    25    14    15   ar
    26    21    19   ar
    27    15    16   ar
    28    19    17   ar
    29    16    17   ar
    30    16    18    1
    31    17    20    1

@<TRIPOS>MOLECULE
ZINC03295983_replica-1.pdb
 20 21 0 0 0
SMALL
GASTEIGER

@<TRIPOS>ATOM
      1  C8        -1.2130   29.3380   54.6000 C.2     0  <0>0        0.3220
      2  O1        -1.2150   30.5350   54.4360 O.2     0  <0>0       -0.2497
      3  C7        -0.0250   28.5200   54.1660 C.3     0  <0>0        0.1381
      4  C5        -0.4590   27.5140   53.1300 C.ar    0  <0>0        0.0164
      5  C4        -0.0720   26.1900   53.2450 C.ar    0  <0>0        0.1367
      6  C3        -0.4710   25.2680   52.2930 C.ar    0  <0>0        0.0293
      7  F1         0.6950   25.7990   54.2870 F       0  <0>0       -0.2045
      8  C2        -1.2550   25.6700   51.2290 C.ar    0  <0>0        0.0023
      9  C1        -1.6410   26.9920   51.1150 C.ar    0  <0>0       -0.0002
     10  C6        -1.2470   27.9130   52.0670 C.ar    0  <0>0       -0.0015
     11  O2        -2.2700   28.7360   55.1680 O.3     0  <0>0       -0.4397
     12  C9        -2.6910   29.2300   56.4680 C.3     0  <0>0        0.2771
     13  C10       -1.6930   28.8040   57.5130 C.2     0  <0>0        0.2230
     14  O3        -1.1080   29.6410   58.1720 O.2     0  <0>0       -0.2869
     15  C11       -1.4350   27.4340   57.7260 C.ar    0  <0>0        0.0687
     16  S1        -2.3470   26.2580   58.7120 S.2     0  <0>0       -0.0725
     17  C14       -1.3680   24.8590   58.4210 C.ar    0  <0>0        0.0870
     18  C13       -0.3900   25.3280   57.5940 C.ar    0  <0>0        0.0186
     19 Cl         -1.5820   23.2470   59.0300 Cl      0  <0>0       -0.0752
     20  C12       -0.4040   26.6460   57.2240 C.ar    0  <0>0        0.0109
@<TRIPOS>BOND
     1     9     8   ar
     2     9    10   ar
     3     8     6   ar
     4    10     4   ar
     5     6     5   ar
     6     4     5   ar
     7     4     3    1
     8     5     7    1
     9     3     1    1
    10     2     1    2
    11     1    11    1
    12    11    12    1
    13    12    13    1
    14    20    18   ar
    15    20    15   ar
    16    13    15    1
    17    13    14    2
    18    18    17   ar
    19    15    16   ar
    20    17    16   ar
    21    17    19    1

@<TRIPOS>MOLECULE
ZINC48619270_replica-1.pdb
 19 21 0 0 0
SMALL
GASTEIGER

@<TRIPOS>ATOM
      1  C8        -1.4160   30.1880   54.3590 C.2     0  <0>0        0.1923
      2  C9        -2.1540   29.8990   55.6060 C.2     0  <0>0        0.3738
      3  O1        -3.0810   29.1270   55.7520 O.2     0  <0>0       -0.2419
      4  O2        -1.5780   30.6780   56.5480 O.3     0  <0>0       -0.3907
      5  C10       -0.5830   31.3850   55.9760 C.2     0  <0>0        0.2905
      6  N1        -0.4710   31.1090   54.7010 N.2     0  <0>0       -0.3645
      7  C7        -1.6330   29.6390   53.1160 C.3     0  <0>0        0.0922
      8  C4        -1.2020   28.2650   52.8350 C.ar    0  <0>0       -0.0149
      9  C3        -1.5910   27.6350   51.6460 C.ar    0  <0>0       -0.0038
     10  C2        -1.1800   26.3450   51.3890 C.ar    0  <0>0       -0.0003
     11  C1        -0.3850   25.6720   52.3020 C.ar    0  <0>0       -0.0000
     12  C6         0.0030   26.2880   53.4800 C.ar    0  <0>0       -0.0003
     13  C5        -0.3990   27.5770   53.7530 C.ar    0  <0>0       -0.0038
     14  C11        0.2670   32.3390   56.6920 C.ar    0  <0>0        0.0964
     15  S1         1.9570   32.8020   56.3650 S.2     0  <0>0       -0.0744
     16  C14        2.1740   33.9140   57.6070 C.ar    0  <0>0        0.0640
     17  C13        0.9850   33.9220   58.2580 C.ar    0  <0>0        0.0139
     18 Br          3.7260   34.9180   58.0090 Br      0  <0>0       -0.0419
     19  C12       -0.0310   33.1110   57.8050 C.ar    0  <0>0        0.0133
@<TRIPOS>BOND
     1    10     9   ar
     2    10    11   ar
     3     9     8   ar
     4    11    12   ar
     5     8     7    1
     6     8    13   ar
     7     7     1    1
     8    12    13   ar
     9     1     6    2
    10     1     2    1
    11     6     5    2
    12     2     3    2
    13     2     4    1
    14     5     4    1
    15     5    14    1
    16    15    14   ar
    17    15    16   ar
    18    14    19   ar
    19    16    18    1
    20    16    17   ar
    21    19    17   ar

@<TRIPOS>MOLECULE
ZINC04324250_replica-1.pdb
 22 24 0 0 0
SMALL
GASTEIGER

@<TRIPOS>ATOM
      1  C2         8.7170   35.5400   59.8700 C.2     0  <0>0        0.2166
      2  N2         9.5670   34.7110   60.4470 N.2     0  <0>0       -0.3834
      3  C3        10.4720   35.1480   61.3190 C.2     0  <0>0        0.1285
      4  C4        10.5180   36.4830   61.6220 C.3     0  <0>0        0.1252
      5  S1         9.2000   37.1050   60.5860 S.3     0  <0>0       -0.0590
      6  N1         7.7170   35.2700   58.9460 N.am    0  <0>0       -0.2238
      7  C1         6.4580   34.6620   59.3850 C.3     0  <0>0        0.1233
      8  C9         7.9020   35.5690   57.6450 C.2     0  <0>0        0.2549
      9  O1         8.9750   36.0000   57.2670 O.2     0  <0>0       -0.2695
     10  C10        6.8040   35.3720   56.6770 C.ar    0  <0>0        0.0541
     11  C15        5.8370   36.3650   56.5040 C.ar    0  <0>0        0.0068
     12  C14        4.8130   36.1760   55.6000 C.ar    0  <0>0        0.0298
     13  C13        4.7440   35.0040   54.8630 C.ar    0  <0>0        0.1401
     14  C12        5.7010   34.0150   55.0310 C.ar    0  <0>0        0.0298
     15  F1         3.7390   34.8250   53.9780 F       0  <0>0       -0.2042
     16  C11        6.7290   34.1940   55.9330 C.ar    0  <0>0        0.0068
     17  C5        11.4150   34.2040   61.9550 C.ar    0  <0>0        0.0566
     18  S2        11.1360   32.5250   62.4930 S.2     0  <0>0       -0.0732
     19  C8        12.7740   32.1820   63.1150 C.ar    0  <0>0        0.0870
     20  C7        13.4190   33.3530   62.8760 C.ar    0  <0>0        0.0186
     21 Cl         13.3840   30.7270   63.8390 Cl      0  <0>0       -0.0752
     22  C6        12.7330   34.3890   62.2780 C.ar    0  <0>0        0.0101
@<TRIPOS>BOND
     1    15    13    1
     2    13    14   ar
     3    13    12   ar
     4    14    16   ar
     5    12    11   ar
     6    16    10   ar
     7    11    10   ar
     8    10     8    1
     9     9     8    2
    10     8     6   am
    11     6     7    1
    12     6     1    1
    13     1     2    2
    14     1     5    1
    15     2     3    2
    16     5     4    1
    17     3     4    1
    18     3    17    1
    19    17    22   ar
    20    17    18   ar
    21    22    20   ar
    22    18    19   ar
    23    20    19   ar
    24    19    21    1

@<TRIPOS>MOLECULE
ZINC50342792_replica-1.pdb
 20 21 0 0 0
SMALL
GASTEIGER

@<TRIPOS>ATOM
      1  C7        -0.4630   27.6180   54.0710 C.ar    0  <0>0        0.0533
      2  C8        -0.1700   26.3440   53.6040 C.ar    0  <0>0        0.0441
      3  C9        -0.5270   25.9780   52.3200 C.ar    0  <0>0        0.1414
      4  C10       -1.1800   26.8800   51.4880 C.ar    0  <0>0        0.0299
      5  C11       -1.4780   28.1460   51.9350 C.ar    0  <0>0        0.0100
      6  C12       -1.1280   28.5290   53.2340 C.ar    0  <0>0        0.0889
      7  F1        -0.2390   24.7370   51.8700 F       0  <0>0       -0.2041
      8  N1        -0.1060   27.9880   55.3610 N.pl3   0  <0>0       -0.3304
      9  H8         0.6030   28.6350   55.5010 H       0  <0>0        0.1471
     10  C2        -0.8020   27.4020   56.5100 C.3     0  <0>0        0.0924
     11  C1        -2.0370   28.2430   56.8400 C.3     0  <0>0        0.0261
     12  C3         0.1240   27.3800   57.6990 C.ar    0  <0>0        0.0024
     13  C6         0.9790   28.4070   57.9240 C.ar    0  <0>0        0.0328
     14  S1         1.8060   27.8780   59.4150 S.2     0  <0>0       -0.0862
     15  C5         0.9630   26.3200   59.6330 C.ar    0  <0>0        0.0352
     16  C4         0.1180   26.3090   58.5720 C.ar    0  <0>0        0.0048
     17  C13       -1.4500   29.8810   53.7190 C.2     0  <0>0        0.3425
     18  O1        -2.6010   30.2710   53.7150 O.2     0  <0>0       -0.2448
     19  O2        -0.4670   30.6880   54.1670 O.3     0  <0>0       -0.4413
     20  C14       -0.7370   31.4420   55.3500 C.3     0  <0>0        0.2560
@<TRIPOS>BOND
     1     4     5   ar
     2     4     3   ar
     3     7     3    1
     4     5     6   ar
     5     3     2   ar
     6     6    17    1
     7     6     1   ar
     8     2     1   ar
     9    18    17    2
    10    17    19    1
    11     1     8    1
    12    19    20    1
    13     8     9    1
    14     8    10    1
    15    10    11    1
    16    10    12    1
    17    12    13   ar
    18    12    16   ar
    19    13    14   ar
    20    16    15   ar
    21    14    15   ar

@<TRIPOS>MOLECULE
ZINC40119024_replica-1.pdb
 22 22 0 0 0
SMALL
GASTEIGER

@<TRIPOS>ATOM
      1  C2         8.3560   36.1160   57.9510 C.ar    0  <0>0        0.1734
      2  C3         9.1280   36.4060   59.0600 C.ar    0  <0>0        0.0446
      3  C4         9.6660   35.3670   59.8250 C.ar    0  <0>0        0.0574
      4  C5         9.4220   34.0400   59.4640 C.ar    0  <0>0        0.0192
      5  C6         8.6510   33.7570   58.3570 C.ar    0  <0>0        0.0947
      6  C7         8.1120   34.7900   57.6000 C.ar    0  <0>0        0.1828
      7 Cl          8.3480   32.1060   57.9110 Cl      0  <0>0       -0.0790
      8  C9        10.4920   35.6730   61.0090 C.2     0  <0>0        0.2460
      9  O3        10.3480   36.7280   61.5950 O.2     0  <0>0       -0.2701
     10  N1        11.4050   34.7810   61.4420 N.am    0  <0>0       -0.3000
     11  H9        11.5210   33.9380   60.9740 H       0  <0>0        0.1498
     12  C10       12.2250   35.0840   62.6180 C.3     0  <0>0        0.1016
     13  C11       12.9390   33.8120   63.0830 C.3     0  <0>0        0.0867
     14  S1        11.8080   32.4000   62.9480 S.3     0  <0>0       -0.0396
     15  C12       12.7290   31.0270   63.6940 C.3     0  <0>0        0.4438
     16  F1        13.0850   30.1100   62.7000 F       0  <0>0       -0.1602
     17  F2        13.8840   31.5210   64.3090 F       0  <0>0       -0.1602
     18  F3        11.9270   30.3930   64.6490 F       0  <0>0       -0.1602
     19  O1         7.8310   37.1250   57.2060 O.3     0  <0>0       -0.4683
     20  C1         8.6410   38.2880   57.0250 C.3     0  <0>0        0.2526
     21  O2         7.3490   34.5060   56.5120 O.3     0  <0>0       -0.4675
     22  C8         5.9430   34.3640   56.7250 C.3     0  <0>0        0.2527
@<TRIPOS>BOND
     1    21    22    1
     2    21     6    1
     3    20    19    1
     4    19     1    1
     5     6     1   ar
     6     6     5   ar
     7     7     5    1
     8     1     2   ar
     9     5     4   ar
    10     2     3   ar
    11     4     3   ar
    12     3     8    1
    13    11    10    1
    14     8    10   am
    15     8     9    2
    16    10    12    1
    17    12    13    1
    18    16    15    1
    19    14    13    1
    20    14    15    1
    21    15    17    1
    22    15    18    1

@<TRIPOS>MOLECULE
ZINC66794848_replica-1.pdb
 21 23 0 0 0
SMALL
GASTEIGER

@<TRIPOS>ATOM
      1  C7        10.7610   35.0900   60.7840 C.3     0  <0>0        0.1535
      2  C8         9.5510   34.4120   60.1360 C.3     0  <0>0        0.1080
      3  N1         8.7960   35.4060   59.3590 N.3     0  <0>0       -0.2508
      4  C9         8.3540   36.5120   60.2200 C.3     0  <0>0        0.1059
      5  C10        9.5760   37.1690   60.8670 C.3     0  <0>0        0.1599
      6  O1        10.3150   36.1820   61.5910 O.3     0  <0>0       -0.3489
      7  C6        11.4940   34.0940   61.6450 C.ar    0  <0>0        0.0068
      8  C1        10.8520   32.9480   62.0760 C.ar    0  <0>0       -0.0010
      9  C2        11.5250   32.0340   62.8660 C.ar    0  <0>0        0.0120
     10  C3        12.8400   32.2650   63.2250 C.ar    0  <0>0        0.0682
     11  C4        13.4830   33.4130   62.7940 C.ar    0  <0>0        0.0680
     12 Cl         13.6830   31.1170   64.2170 Cl      0  <0>0       -0.0814
     13  C5        12.8100   34.3270   62.0030 C.ar    0  <0>0        0.0104
     14 Cl         15.1350   33.7040   63.2440 Cl      0  <0>0       -0.0814
     15  C11        7.6560   34.7830   58.6740 C.3     0  <0>0        0.1697
     16  N2         7.3000   35.5780   57.4960 N.am    0  <0>0       -0.2828
     17  C14        6.0280   35.9820   57.3140 C.2     0  <0>0        0.1120
     18  S1         6.0270   36.8400   55.7500 S.3     0  <0>0       -0.0905
     19  S2         4.6980   35.7270   58.3610 S.2     0  <0>0       -0.0279
     20  C13        7.6860   36.3050   55.1560 C.3     0  <0>0        0.0853
     21  C12        8.3190   35.9270   56.5220 C.3     0  <0>0        0.1050
@<TRIPOS>BOND
     1    20    18    1
     2    20    21    1
     3    18    17    1
     4    21    16    1
     5    17    16    1
     6    17    19    2
     7    16    15    1
     8    15     3    1
     9     3     2    1
    10     3     4    1
    11     2     1    1
    12     4     5    1
    13     1     6    1
    14     1     7    1
    15     5     6    1
    16     7    13   ar
    17     7     8   ar
    18    13    11   ar
    19     8     9   ar
    20    11    10   ar
    21    11    14    1
    22     9    10   ar
    23    10    12    1

@<TRIPOS>MOLECULE
ZINC36978023_replica-1.pdb
 22 24 0 0 0
SMALL
GASTEIGER

@<TRIPOS>ATOM
      1  C9        10.3080   35.4500   60.8450 C.ar    0  <0>0        0.0447
      2  C10        9.8380   36.7530   60.9510 C.ar    0  <0>0        0.0158
      3  C11        9.1760   37.3360   59.8890 C.ar    0  <0>0        0.0204
      4  C12        8.9800   36.6200   58.7160 C.ar    0  <0>0        0.0829
      5  C13        9.4490   35.3180   58.6100 C.ar    0  <0>0        0.0204
      6  C14       10.1160   34.7360   59.6700 C.ar    0  <0>0        0.0158
      7  N1        10.9780   34.8590   61.9210 N.pl3   0  <0>0       -0.3340
      8  H12       10.5530   34.1460   62.4240 H       0  <0>0        0.1468
      9  C2        12.3200   35.3150   62.2880 C.3     0  <0>0        0.0695
     10  C1        12.3820   35.5560   63.7980 C.3     0  <0>0        0.0212
     11  C3        13.3460   34.2480   61.8990 C.3     0  <0>0        0.0274
     12  C4        13.9100   33.5980   63.1640 C.3     0  <0>0        0.0662
     13  C5        13.1830   32.3050   63.4310 C.ar    0  <0>0        0.1230
     14  O1        11.8920   32.0600   63.1580 O.2     0  <0>0       -0.4547
     15  C8        11.5870   30.8040   63.5260 C.ar    0  <0>0        0.1791
     16  C7        12.6880   30.2360   64.0490 C.ar    0  <0>0        0.0434
     17  C6        13.7170   31.2030   63.9880 C.ar    0  <0>0        0.0362
     18  N2         8.3070   37.2120   57.6370 N.ar    0  <0>0       -0.2281
     19  N3         7.4860   36.5510   56.7140 N.ar    0  <0>0       -0.1635
     20  C17        7.0360   37.4340   55.8600 C.ar    0  <0>0        0.1221
     21  C16        7.5620   38.6840   56.2030 C.ar    0  <0>0        0.0431
     22  C15        8.3410   38.5210   57.2980 C.ar    0  <0>0        0.1020
@<TRIPOS>BOND
     1    20    21   ar
     2    20    19   ar
     3    21    22   ar
     4    19    18   ar
     5    22    18   ar
     6    18     4    1
     7     5     4   ar
     8     5     6   ar
     9     4     3   ar
    10     6     1   ar
    11     3     2   ar
    12     1     2   ar
    13     1     7    1
    14    11     9    1
    15    11    12    1
    16     7     9    1
    17     7     8    1
    18     9    10    1
    19    14    13   ar
    20    14    15   ar
    21    12    13    1
    22    13    17   ar
    23    15    16   ar
    24    17    16   ar

@<TRIPOS>MOLECULE
ZINC57710753_replica-1.pdb
 19 20 0 0 0
SMALL
GASTEIGER

@<TRIPOS>ATOM
      1  S2        -0.5270   28.6440   55.0400 S.O2    0  <0>0        0.1039
      2  O1         0.4150   27.8610   55.7600 O.2     0  <0>0       -0.1462
      3  O2        -1.8030   28.9760   55.5690 O.2     0  <0>0       -0.1462
      4  N2         0.2240   30.0750   54.6790 N.2     0  <0>0       -0.1033
      5  C4         0.5190   30.9190   55.6360 C.ar    0  <0>0        0.1921
      6  S1         0.2310   30.7850   57.3940 S.2     0  <0>0       -0.0475
      7  N1         1.1290   32.1530   55.5550 N.ar    0  <0>0       -0.3350
      8  C3         0.9400   32.3500   57.8780 C.ar    0  <0>0        0.0509
      9  C2         1.3350   32.8530   56.7080 C.ar    0  <0>0        0.0421
     10  C1         2.0040   34.2020   56.6580 C.3     0  <0>0        0.0504
     11  H8         1.4100   32.5120   54.7000 H       0  <0>0        0.1676
     12  C5        -0.8170   27.8080   53.5150 C.ar    0  <0>0        0.1502
     13  C10       -1.5730   28.4130   52.5270 C.ar    0  <0>0        0.0776
     14  C9        -1.7950   27.7580   51.3280 C.ar    0  <0>0        0.0128
     15 Cl         -2.2370   29.9960   52.7880 Cl      0  <0>0       -0.0808
     16  C8        -1.2730   26.4960   51.1230 C.ar    0  <0>0        0.0018
     17  C7        -0.5220   25.8880   52.1130 C.ar    0  <0>0        0.0128
     18  C6        -0.2940   26.5440   53.3090 C.ar    0  <0>0        0.0776
     19 Cl          0.6480   25.7820   54.5520 Cl      0  <0>0       -0.0808
@<TRIPOS>BOND
     1    16    14   ar
     2    16    17   ar
     3    14    13   ar
     4    17    18   ar
     5    13    15    1
     6    13    12   ar
     7    18    12   ar
     8    18    19    1
     9    12     1    1
    10     4     1    1
    11     4     5    2
    12    11     7    1
    13     1     3    2
    14     1     2    2
    15     7     5   ar
    16     7     9   ar
    17     5     6   ar
    18    10     9    1
    19     9     8   ar
    20     6     8   ar

@<TRIPOS>MOLECULE
ZINC03310424_replica-1.pdb
 21 23 0 0 0
SMALL
GASTEIGER

@<TRIPOS>ATOM
      1  C5        -0.6240   29.6250   55.0130 C.ar    0  <0>0        0.0937
      2  C6        -1.2770   29.4650   53.8290 C.ar    0  <0>0        0.0693
      3  C7        -1.1340   28.2660   53.1060 C.ar    0  <0>0        0.0278
      4  C8        -0.2920   27.2960   53.7010 C.ar    0  <0>0        0.0321
      5  S1         0.2480   28.0800   55.1990 S.2     0  <0>0       -0.0815
      6  C9        -0.0530   26.0720   53.1140 C.ar    0  <0>0        0.0179
      7  C10       -0.6490   25.7680   51.9050 C.ar    0  <0>0        0.0590
      8  C11       -1.4820   26.7020   51.2980 C.ar    0  <0>0        0.0228
      9  C12       -1.7210   27.9150   51.8630 C.ar    0  <0>0        0.0598
     10 Cl         -2.7640   29.0460   51.0560 Cl      0  <0>0       -0.0822
     11 Cl         -0.3620   24.2320   51.1500 Cl      0  <0>0       -0.0822
     12 Cl         -2.2830   30.7380   53.2110 Cl      0  <0>0       -0.0815
     13  C4        -0.6360   30.7820   55.9140 C.2     0  <0>0        0.2575
     14  N2         0.5260   31.3420   56.3090 N.am    0  <0>0       -0.2627
     15  H3         1.3690   30.9790   55.9960 H       0  <0>0        0.1567
     16  O2        -1.6940   31.2370   56.3060 O.2     0  <0>0       -0.2692
     17  C3         0.5150   32.4420   57.1640 C.ar    0  <0>0        0.1767
     18  C1         0.5070   32.4180   58.5840 C.ar    0  <0>0        0.0812
     19  C2         0.5010   33.7250   58.9320 C.ar    0  <0>0        0.2152
     20  O1         0.4970   34.4260   57.7900 O.2     0  <0>0       -0.3489
     21  N1         0.5050   33.7030   56.8200 N.ar    0  <0>0       -0.0616
@<TRIPOS>BOND
     1    10     9    1
     2    11     7    1
     3     8     9   ar
     4     8     7   ar
     5     9     3   ar
     6     7     6   ar
     7     3     4   ar
     8     3     2   ar
     9     6     4   ar
    10    12     2    1
    11     4     5   ar
    12     2     1   ar
    13     1     5   ar
    14     1    13    1
    15    13    16    2
    16    13    14   am
    17    15    14    1
    18    14    17    1
    19    21    17   ar
    20    21    20   ar
    21    17    18   ar
    22    20    19   ar
    23    18    19   ar

@<TRIPOS>MOLECULE
ZINC43560527_replica-1.pdb
 22 25 0 0 0
SMALL
GASTEIGER

@<TRIPOS>ATOM
      1  C9         0.0210   30.8500   55.3660 C.2     0  <0>0        0.3115
      2  N2         0.2390   30.0120   54.3920 N.2     0  <0>0       -0.3109
      3  C10       -0.8410   29.2310   54.2080 C.1     0  <0>0        0.1274
      4  N3        -1.7600   29.5750   55.0750 N.2     0  <0>0       -0.0072
      5  O1        -1.2100   30.6330   55.8460 O.2     0  <0>0       -0.3138
      6  C8         0.9930   31.8860   55.8700 C.3     0  <0>0        0.1673
      7  C7         1.7860   31.3350   57.0670 C.3     0  <0>0        0.0580
      8  C5         1.4420   32.2630   58.2100 C.ar    0  <0>0       -0.0069
      9  C4         0.5640   33.2290   57.7430 C.ar    0  <0>0        0.0410
     10  C6         1.8520   32.2670   59.5290 C.ar    0  <0>0       -0.0030
     11  C3         0.1010   34.2070   58.6270 C.ar    0  <0>0        0.0140
     12  N1         0.2740   33.0510   56.3900 N.pl3   0  <0>0       -0.3258
     13  C2         0.5140   34.2070   59.9420 C.ar    0  <0>0        0.0012
     14  C1         1.3900   33.2380   60.3970 C.ar    0  <0>0       -0.0002
     15  H8        -0.3190   33.6160   55.8690 H       0  <0>0        0.1472
     16  C11       -0.9690   28.1580   53.1910 C.ar    0  <0>0        0.0832
     17  C16       -0.3890   26.9100   53.4140 C.ar    0  <0>0        0.0450
     18  C15       -0.5160   25.9140   52.4660 C.ar    0  <0>0        0.0074
     19 Br          0.5650   26.5810   55.0130 Br      0  <0>0       -0.0483
     20  C14       -1.2100   26.1550   51.2950 C.ar    0  <0>0        0.0005
     21  C13       -1.7830   27.3930   51.0660 C.ar    0  <0>0        0.0007
     22  C12       -1.6660   28.3940   52.0080 C.ar    0  <0>0        0.0116
@<TRIPOS>BOND
     1    21    20   ar
     2    21    22   ar
     3    20    18   ar
     4    22    16   ar
     5    18    17   ar
     6    16    17   ar
     7    16     3    1
     8    17    19    1
     9     3     2    2
    10     3     4    2
    11     2     1    2
    12     4     5    1
    13     1     5    1
    14     1     6    1
    15    15    12    1
    16     6    12    1
    17     6     7    1
    18    12     9    1
    19     7     8    1
    20     9     8   ar
    21     9    11   ar
    22     8    10   ar
    23    11    13   ar
    24    10    14   ar
    25    13    14   ar

@<TRIPOS>MOLECULE
ZINC62788223_replica-1.pdb
 22 23 0 0 0
SMALL
GASTEIGER

@<TRIPOS>ATOM
      1  C9         8.0480   36.0670   58.8250 C.ar    0  <0>0        0.0506
      2  C10        7.6950   36.2670   57.4980 C.ar    0  <0>0        0.0260
      3  C11        7.8680   37.5070   56.9150 C.ar    0  <0>0        0.0589
      4  C12        8.3960   38.5600   57.6480 C.ar    0  <0>0        0.0115
      5  C13        8.7530   38.3800   58.9660 C.ar    0  <0>0        0.0038
      6  C14        8.5780   37.1310   59.5720 C.ar    0  <0>0        0.0330
      7 Cl          7.4220   37.7510   55.2550 Cl      0  <0>0       -0.0822
      8  N1         7.8750   34.8200   59.4140 N.pl3   0  <0>0       -0.3048
      9  C2         8.8740   33.7680   59.2080 C.3     0  <0>0        0.0732
     10  C1         9.0150   32.9420   60.4870 C.3     0  <0>0        0.0214
     11  C3         8.4270   32.8590   58.0610 C.3     0  <0>0        0.0214
     12  C4         6.6940   34.5570   60.2410 C.3     0  <0>0        0.1242
     13  C5         5.4480   34.7610   59.4170 C.ar    0  <0>0        0.0272
     14  S1         4.7270   33.6870   58.1860 S.2     0  <0>0       -0.0891
     15  C8         3.3230   34.7040   57.7570 C.ar    0  <0>0        0.0352
     16  C7         3.4990   35.7800   58.5640 C.ar    0  <0>0        0.0072
     17  C6         4.5880   35.8090   59.4150 C.ar    0  <0>0        0.0044
     18  C15        8.9520   36.9340   60.9820 C.2     0  <0>0        0.0792
     19  S2        10.4880   36.2930   61.3780 S.2     0  <0>0       -0.0351
     20  N2         8.0840   37.2600   61.9620 N.am    0  <0>0       -0.3517
     21  H16        7.2140   37.6240   61.7370 H       0  <0>0        0.1428
     22  H17        8.3310   37.1300   62.8900 H       0  <0>0        0.1428
@<TRIPOS>BOND
     1     7     3    1
     2     3     2   ar
     3     3     4   ar
     4     2     1   ar
     5     4     5   ar
     6    15    14   ar
     7    15    16   ar
     8    11     9    1
     9    14    13   ar
    10    16    17   ar
    11     1     8    1
    12     1     6   ar
    13     5     6   ar
    14     9     8    1
    15     9    10    1
    16     8    12    1
    17    17    13   ar
    18    13    12    1
    19     6    18    1
    20    18    19    2
    21    18    20    1
    22    21    20    1
    23    20    22    1

@<TRIPOS>MOLECULE
ZINC20589624_replica-1.pdb
 18 19 0 0 0
SMALL
GASTEIGER

@<TRIPOS>ATOM
      1  C4         6.1740   36.4180   56.3940 C.2     0  <0>0        0.3447
      2  N1         4.9360   36.3180   55.9980 N.2     0  <0>0        0.0880
      3  N2         4.2610   35.6110   56.8320 N.2     0  <0>0        0.0474
      4  C5         5.0340   35.2240   57.8200 C.1     0  <0>0        0.1838
      5  N3         6.2820   35.7280   57.5730 N.am    0  <0>0       -0.0964
      6  S1         4.5560   34.2440   59.2040 S.2     0  <0>0        0.0565
      7  C6         7.4310   35.5710   58.3610 C.ar    0  <0>0        0.1734
      8  C11        7.6300   36.3800   59.4720 C.ar    0  <0>0        0.0925
      9  C10        8.7610   36.2190   60.2490 C.ar    0  <0>0       -0.0078
     10 Cl          6.4540   37.5880   59.8880 Cl      0  <0>0       -0.0789
     11  C9         9.7010   35.2610   59.9150 C.ar    0  <0>0       -0.0023
     12  C12        8.9750   37.0930   61.4580 C.3     0  <0>0        0.0320
     13  C8         9.5100   34.4580   58.8070 C.ar    0  <0>0        0.0146
     14  C7         8.3770   34.6100   58.0280 C.ar    0  <0>0        0.0965
     15 Cl          8.1380   33.6000   56.6370 Cl      0  <0>0       -0.0786
     16  C3         7.2820   37.1550   55.6870 C.3     0  <0>0        0.1213
     17  C2         7.3760   38.5810   56.2340 C.3     0  <0>0        0.0128
     18  C1         8.6720   38.7370   57.0310 C.3     0  <0>0        0.0006
@<TRIPOS>BOND
     1    16    17    1
     2    16     1    1
     3     2     1    2
     4     2     3    1
     5    17    18    1
     6     1     5    1
     7    15    14    1
     8     3     4    2
     9     5     4    1
    10     5     7    1
    11     4     6    2
    12    14     7   ar
    13    14    13   ar
    14     7     8   ar
    15    13    11   ar
    16     8    10    1
    17     8     9   ar
    18    11     9   ar
    19     9    12    1

@<TRIPOS>MOLECULE
ZINC67371867_replica-1.pdb
 20 22 0 0 0
SMALL
GASTEIGER

@<TRIPOS>ATOM
      1  C1        -0.5930   24.9590   51.5860 C.3     0  <0>0        0.0308
      2  C2        -0.4840   26.1390   52.5170 C.ar    0  <0>0       -0.0229
      3  C3         0.2810   26.0410   53.6640 C.ar    0  <0>0       -0.0046
      4  C4         0.3780   27.1240   54.5210 C.ar    0  <0>0        0.0001
      5  C5        -0.2850   28.2950   54.2260 C.ar    0  <0>0        0.0333
      6  C6        -1.0500   28.4080   53.0720 C.ar    0  <0>0        0.1319
      7  C7        -1.1420   27.3140   52.2150 C.ar    0  <0>0        0.0079
      8  C8        -1.9680   27.4110   50.9590 C.3     0  <0>0        0.0339
      9  O1        -1.5980   29.6500   52.9630 O.3     0  <0>0       -0.4739
     10  C9        -1.5900   30.2850   54.2530 C.3     0  <0>0        0.2299
     11  C10       -0.3810   29.6220   54.9550 C.3     0  <0>0        0.1472
     12  N1        -0.6510   29.4170   56.3810 N.pl3   0  <0>0       -0.2715
     13  C11       -0.0380   30.2250   57.3230 C.1     0  <0>0        0.0873
     14  N3        -0.2930   30.0260   58.6070 N.2     0  <0>0       -0.2025
     15  N2         0.7850   31.1810   56.9180 N.2     0  <0>0       -0.1802
     16  C14        0.2810   30.7770   59.5350 C.3     0  <0>0        0.1721
     17  C13        1.1470   31.7870   59.1470 C.2     0  <0>0        0.0575
     18  C12        1.3870   31.9710   57.7930 C.2     0  <0>0        0.1151
     19 Br          1.9840   32.8900   60.4350 Br      0  <0>0       -0.0500
     20  H12       -1.2580   28.7170   56.6630 H       0  <0>0        0.1587
@<TRIPOS>BOND
     1     8     7    1
     2     1     2    1
     3     7     2   ar
     4     7     6   ar
     5     2     3   ar
     6     9     6    1
     7     9    10    1
     8     6     5   ar
     9     3     4   ar
    10     5     4   ar
    11     5    11    1
    12    10    11    1
    13    11    12    1
    14    12    20    1
    15    12    13    1
    16    15    13    2
    17    15    18    1
    18    13    14    2
    19    18    17    2
    20    14    16    1
    21    17    16    1
    22    17    19    1

@<TRIPOS>MOLECULE
ZINC36993675_replica-1.pdb
 20 21 0 0 0
SMALL
GASTEIGER

@<TRIPOS>ATOM
      1  N1         0.4800   28.2060   56.6730 N.3     0  <0>0       -0.2958
      2  H11       -0.3330   28.6800   56.3100 H       0  <0>0        0.1235
      3  C2         0.2990   27.8630   58.0900 C.3     0  <0>0        0.0618
      4  C1         1.3690   28.5680   58.9270 C.3     0  <0>0        0.0176
      5  C3        -1.0880   28.3150   58.5520 C.3     0  <0>0        0.0802
      6  C4        -1.6960   29.2130   57.5060 C.ar    0  <0>0        0.1243
      7  O1        -1.2510   30.4320   57.1600 O.2     0  <0>0       -0.4546
      8  C7        -2.0340   30.9380   56.1940 C.ar    0  <0>0        0.1791
      9  C6        -3.0010   30.0440   55.9180 C.ar    0  <0>0        0.0434
     10  C5        -2.7840   28.9330   56.7640 C.ar    0  <0>0        0.0362
     11  C8         0.7920   27.0100   55.8780 C.3     0  <0>0        0.0769
     12  C9         0.2920   25.7650   56.6140 C.3     0  <0>0        0.0220
     13  C10        0.1130   27.1080   54.5370 C.ar    0  <0>0       -0.0071
     14  C15        0.1050   26.0190   53.6850 C.ar    0  <0>0        0.0093
     15  C14       -0.5230   26.1070   52.4570 C.ar    0  <0>0        0.0679
     16  C13       -1.1340   27.2890   52.0750 C.ar    0  <0>0        0.0682
     17 Cl         -0.5400   24.7370   51.3900 Cl      0  <0>0       -0.0814
     18  C12       -1.1210   28.3800   52.9260 C.ar    0  <0>0        0.0120
     19 Cl         -1.9170   27.4020   50.5300 Cl      0  <0>0       -0.0814
     20  C11       -0.4970   28.2890   54.1550 C.ar    0  <0>0       -0.0021
@<TRIPOS>BOND
     1    19    16    1
     2    17    15    1
     3    16    15   ar
     4    16    18   ar
     5    15    14   ar
     6    18    20   ar
     7    14    13   ar
     8    20    13   ar
     9    13    11    1
    10    11    12    1
    11    11     1    1
    12     9     8   ar
    13     9    10   ar
    14     8     7   ar
    15     2     1    1
    16     1     3    1
    17    10     6   ar
    18     7     6   ar
    19     6     5    1
    20     3     5    1
    21     3     4    1

@<TRIPOS>MOLECULE
ZINC48439319_replica-1.pdb
 22 23 0 0 0
SMALL
GASTEIGER

@<TRIPOS>ATOM
      1  C7        11.1430   35.2400   61.5790 C.ar    0  <0>0        0.1107
      2  C8        10.6050   36.4830   61.6800 C.ar    0  <0>0        0.0230
      3  C9         9.8400   36.7170   60.5130 C.ar    0  <0>0        0.0171
      4  C10        9.0720   37.8010   60.0670 C.ar    0  <0>0        0.0012
      5  C11        8.4320   37.7310   58.8640 C.ar    0  <0>0       -0.0042
      6  C12        8.5340   36.5930   58.0740 C.ar    0  <0>0       -0.0211
      7  C13        9.2820   35.5150   58.4910 C.ar    0  <0>0        0.0127
      8  C14        9.9450   35.5620   59.7140 C.ar    0  <0>0        0.0564
      9  N2        10.7520   34.6730   60.3820 N.ar    0  <0>0       -0.3496
     10  H2        11.0040   33.7910   60.0660 H       0  <0>0        0.1661
     11  C6        12.0090   34.6020   62.5820 C.2     0  <0>0        0.2615
     12  N1        12.5060   33.3690   62.3570 N.am    0  <0>0       -0.3013
     13  H13       12.2930   32.9030   61.5340 H       0  <0>0        0.1497
     14  O1        12.2770   35.1870   63.6150 O.2     0  <0>0       -0.2686
     15  C4        13.3690   32.7330   63.3560 C.3     0  <0>0        0.0720
     16  C5        14.8200   33.1620   63.1230 C.3     0  <0>0        0.0213
     17  C3        13.2600   31.2120   63.2300 C.3     0  <0>0        0.0196
     18  C2        11.9280   30.7460   63.8210 C.3     0  <0>0        0.0017
     19  C1        12.1170   29.3840   64.4920 C.3     0  <0>0        0.0001
     20  C15        7.8180   36.5370   56.7490 C.3     0  <0>0        0.0224
     21  C16        6.4420   35.8940   56.9400 C.3     0  <0>0        0.0047
     22  C17        7.6460   37.9550   56.2030 C.3     0  <0>0        0.0047
@<TRIPOS>BOND
     1    22    20    1
     2    20    21    1
     3    20     6    1
     4     6     7   ar
     5     6     5   ar
     6     7     8   ar
     7     5     4   ar
     8     8     9   ar
     9     8     3   ar
    10    10     9    1
    11     4     3   ar
    12     9     1   ar
    13     3     2   ar
    14    13    12    1
    15     1     2   ar
    16     1    11    1
    17    12    11   am
    18    12    15    1
    19    11    14    2
    20    16    15    1
    21    17    15    1
    22    17    18    1
    23    18    19    1

@<TRIPOS>MOLECULE
ZINC49148840_replica-1.pdb
 23 24 0 0 0
SMALL
GASTEIGER

@<TRIPOS>ATOM
      1  C3         7.9320   36.9490   57.8390 C.3     0  <0>0        0.0708
      2  C2         8.1770   36.1080   56.5840 C.3     0  <0>0       -0.0048
      3  C1         7.6370   36.8500   55.3590 C.3     0  <0>0       -0.0013
      4  C4         8.8630   36.5000   58.9350 C.ar    0  <0>0       -0.0304
      5  C9         9.0210   37.2750   60.0690 C.ar    0  <0>0       -0.0057
      6  C8         9.8730   36.8610   61.0750 C.ar    0  <0>0       -0.0004
      7  C7        10.5730   35.6760   60.9450 C.ar    0  <0>0       -0.0000
      8  C6        10.4180   34.9030   59.8080 C.ar    0  <0>0       -0.0004
      9  C5         9.5640   35.3160   58.8040 C.ar    0  <0>0       -0.0057
     10  C10        8.1860   38.4010   57.5280 C.2     0  <0>0        0.3503
     11  O1         9.2080   38.7310   56.9490 O.co2   0  <0>0       -0.2476
     12  O2         7.3720   39.2480   57.8560 O.co2   0  <0>0       -0.2476
     13  N1         6.5400   36.7790   58.2770 N.4     0  <0>0        0.3996
     14  H12        6.4990   36.8170   59.2840 H       0  <0>0       -0.0825
     15  H18        5.9730   37.5160   57.8890 H       0  <0>0       -0.0825
     16  C11        6.0370   35.4780   57.8150 C.3     0  <0>0       -0.0310
     17  C12        4.6500   35.6590   57.1960 C.3     0  <0>0       -0.0183
     18  C13        5.9460   34.5310   58.9840 C.ar    0  <0>0       -0.0117
     19  S1         6.6160   32.8850   59.1530 S.2     0  <0>0       -0.0819
     20  C16        6.0370   32.5450   60.8070 C.ar    0  <0>0        0.0866
     21  C15        5.3740   33.6890   61.1130 C.ar    0  <0>0        0.0181
     22 Cl          6.2600   31.1190   61.7710 Cl      0  <0>0       -0.0752
     23  C14        5.3270   34.7060   60.1780 C.ar    0  <0>0        0.0015
@<TRIPOS>BOND
     1     3     2    1
     2     2     1    1
     3    11    10   ar
     4    17    16    1
     5    10     1    1
     6    10    12   ar
     7    16    13    1
     8    16    18    1
     9     1    13    1
    10     1     4    1
    11    15    13    1
    12    13    14    1
    13     9     4   ar
    14     9     8   ar
    15     4     5   ar
    16    18    19   ar
    17    18    23   ar
    18    19    20   ar
    19     8     7   ar
    20     5     6   ar
    21    23    21   ar
    22    20    21   ar
    23    20    22    1
    24     7     6   ar

@<TRIPOS>MOLECULE
ZINC63715870_replica-1.pdb
 21 23 0 0 0
SMALL
GASTEIGER

@<TRIPOS>ATOM
      1  C7        10.3520   35.9950   60.4630 C.3     0  <0>0        0.1167
      2  N1        10.8170   34.7090   60.9910 N.am    0  <0>0       -0.2965
      3  C6        11.6100   34.6750   62.0800 C.2     0  <0>0        0.2518
      4  O1        11.9410   35.7120   62.6250 O.2     0  <0>0       -0.2696
      5  H6        10.5520   33.8830   60.5570 H       0  <0>0        0.1501
      6  C5        12.0750   33.3890   62.6070 C.ar    0  <0>0        0.0788
      7  C2        13.3700   32.9680   62.8690 C.ar    0  <0>0       -0.0109
      8  C1        14.5650   33.8530   62.6230 C.3     0  <0>0        0.0317
      9  C3        13.4940   31.6950   63.3720 C.ar    0  <0>0        0.0034
     10  C4        12.3770   30.9530   63.5690 C.ar    0  <0>0        0.0353
     11  S1        11.1230   31.9570   63.0790 S.2     0  <0>0       -0.0822
     12  C8         9.4860   35.7580   59.2530 C.ar    0  <0>0        0.0011
     13  C13        9.2410   34.4680   58.8220 C.ar    0  <0>0        0.0073
     14  C12        8.4430   34.2450   57.7140 C.ar    0  <0>0        0.0714
     15  C11        7.8970   35.3160   57.0270 C.ar    0  <0>0        0.1825
     16 Br          8.1040   32.4770   57.1340 Br      0  <0>0       -0.0457
     17  C10        8.1490   36.6160   57.4580 C.ar    0  <0>0        0.1767
     18  O2         7.0950   35.3700   55.9230 O.3     0  <0>0       -0.4341
     19  C9         8.9440   36.8320   58.5710 C.ar    0  <0>0        0.0376
     20  O3         7.5050   37.4850   56.6230 O.3     0  <0>0       -0.4346
     21  C14        6.5270   36.6930   55.9250 C.3     0  <0>0        0.4294
@<TRIPOS>BOND
     1    18    21    1
     2    18    15    1
     3    21    20    1
     4    20    17    1
     5    15    17   ar
     6    15    14   ar
     7    16    14    1
     8    17    19   ar
     9    14    13   ar
    10    19    12   ar
    11    13    12   ar
    12    12     1    1
    13     1     2    1
    14     5     2    1
    15     2     3   am
    16     3     6    1
    17     3     4    2
    18     6     7   ar
    19     6    11   ar
    20     8     7    1
    21     7     9   ar
    22    11    10   ar
    23     9    10   ar

@<TRIPOS>MOLECULE
ZINC36992575_replica-1.pdb
 21 22 0 0 0
SMALL
GASTEIGER

@<TRIPOS>ATOM
      1  C8        10.3820   35.2360   60.6510 C.3     0  <0>0        0.0768
      2  C9        10.2810   36.5860   61.3660 C.3     0  <0>0        0.0220
      3  N1         9.0380   34.6730   60.4730 N.3     0  <0>0       -0.2959
      4  H11        8.3500   35.2140   60.9750 H       0  <0>0        0.1235
      5  C2         8.6920   34.5760   59.0490 C.3     0  <0>0        0.0592
      6  C1         8.5950   33.1020   58.6480 C.3     0  <0>0        0.0175
      7  C3         7.3470   35.2620   58.8010 C.3     0  <0>0        0.0486
      8  C4         7.5560   36.4850   57.9460 C.ar    0  <0>0        0.0086
      9  S1         6.7250   36.9580   56.4390 S.2     0  <0>0       -0.0907
     10  C7         7.5910   38.4910   56.1450 C.ar    0  <0>0        0.0351
     11  C6         8.4460   38.5360   57.1950 C.ar    0  <0>0        0.0072
     12  C5         8.4290   37.5080   58.1180 C.ar    0  <0>0        0.0027
     13  C10       11.2160   34.2910   61.4780 C.ar    0  <0>0       -0.0079
     14  C15       12.5100   34.6340   61.8250 C.ar    0  <0>0       -0.0013
     15  C14       13.2740   33.7700   62.5860 C.ar    0  <0>0        0.0238
     16  C13       12.7470   32.5590   62.9940 C.ar    0  <0>0        0.1429
     17  C12       11.4550   32.2140   62.6440 C.ar    0  <0>0        0.0238
     18  C11       10.6900   33.0800   61.8860 C.ar    0  <0>0       -0.0013
     19  N2        13.5660   31.6310   63.8070 N.pl3   0  <0>0        0.0577
     20  O1        13.1920   30.4960   63.9900 O.2     0  <0>0       -0.1261
     21  O2        14.6080   32.0100   64.2900 O.2     0  <0>0       -0.1261
@<TRIPOS>BOND
     1    10     9   ar
     2    10    11   ar
     3     9     8   ar
     4    11    12   ar
     5     8    12   ar
     6     8     7    1
     7     6     5    1
     8     7     5    1
     9     5     3    1
    10     3     1    1
    11     3     4    1
    12     1     2    1
    13     1    13    1
    14    13    14   ar
    15    13    18   ar
    16    14    15   ar
    17    18    17   ar
    18    15    16   ar
    19    17    16   ar
    20    16    19    1
    21    19    20    2
    22    19    21    2

@<TRIPOS>MOLECULE
ZINC42322921_replica-1.pdb
 21 22 0 0 0
SMALL
GASTEIGER

@<TRIPOS>ATOM
      1  N1         8.0030   35.0830   57.0110 N.3     0  <0>0       -0.2909
      2  H12        8.0990   34.1670   56.5970 H       0  <0>0        0.1238
      3  C4         7.3000   36.0000   56.1030 C.3     0  <0>0        0.0831
      4  C3         7.1540   37.3670   56.7720 C.3     0  <0>0        0.0208
      5  C2         8.5110   38.0720   56.7970 C.3     0  <0>0        0.0017
      6  C1         8.6290   38.9070   58.0740 C.3     0  <0>0        0.0001
      7  C5         5.9360   35.4450   55.7870 C.ar    0  <0>0        0.0215
      8  S1         5.4930   33.8240   55.1800 S.2     0  <0>0       -0.0895
      9  C8         3.7240   34.0580   55.1070 C.ar    0  <0>0        0.0352
     10  C7         3.5920   35.3370   55.5370 C.ar    0  <0>0        0.0072
     11  C6         4.7250   36.0480   55.8860 C.ar    0  <0>0        0.0040
     12  C9         7.3240   35.0040   58.3100 C.3     0  <0>0        0.0975
     13  C10        8.2460   35.5050   59.3910 C.ar    0  <0>0        0.0161
     14  C15        7.7400   36.2460   60.4430 C.ar    0  <0>0        0.1402
     15  C14        8.5850   36.7030   61.4380 C.ar    0  <0>0        0.0238
     16  C13        9.9370   36.4260   61.3750 C.ar    0  <0>0        0.0017
     17  C12       10.4450   35.6900   60.3210 C.ar    0  <0>0       -0.0002
     18  C11        9.5990   35.2300   59.3290 C.ar    0  <0>0       -0.0013
     19  N2         6.2910   36.5460   60.5070 N.pl3   0  <0>0        0.0574
     20  O1         5.8790   37.6200   60.1320 O.2     0  <0>0       -0.1261
     21  O2         5.5210   35.7190   60.9340 O.2     0  <0>0       -0.1261
@<TRIPOS>BOND
     1     9     8   ar
     2     9    10   ar
     3     8     7   ar
     4    10    11   ar
     5     7    11   ar
     6     7     3    1
     7     3     4    1
     8     3     1    1
     9     2     1    1
    10     4     5    1
    11     5     6    1
    12     1    12    1
    13    12    13    1
    14    18    13   ar
    15    18    17   ar
    16    13    14   ar
    17    20    19    2
    18    17    16   ar
    19    14    19    1
    20    14    15   ar
    21    19    21    2
    22    16    15   ar

@<TRIPOS>MOLECULE
ZINC65778937_replica-1.pdb
 26 28 0 0 0
SMALL
GASTEIGER

@<TRIPOS>ATOM
      1  C12        7.7020   37.9300   56.6690 C.2     0  <0>0        0.2232
      2  O1         7.3180   38.7550   55.8680 O.2     0  <0>0       -0.2751
      3  N1         7.2600   36.6580   56.5900 N.am    0  <0>0       -0.2955
      4  H16        7.5670   35.9990   57.2310 H       0  <0>0        0.1499
      5  C11        8.6700   38.3250   57.7530 C.3     0  <0>0        0.0897
      6  C10        8.1100   37.9080   59.1140 C.3     0  <0>0        0.0359
      7  C7         9.0720   36.9630   59.7860 C.ar    0  <0>0       -0.0217
      8  C6         9.6000   37.2780   61.0230 C.ar    0  <0>0       -0.0046
      9  C5        10.4830   36.4100   61.6400 C.ar    0  <0>0       -0.0046
     10  C4        10.8350   35.2270   61.0190 C.ar    0  <0>0       -0.0225
     11  C9        10.3110   34.9140   59.7790 C.ar    0  <0>0       -0.0046
     12  C8         9.4250   35.7800   59.1640 C.ar    0  <0>0       -0.0046
     13  C2        11.7970   34.2810   61.6900 C.3     0  <0>0        0.0224
     14  C1        12.3660   34.9400   62.9480 C.3     0  <0>0        0.0047
     15  C3        11.0610   32.9950   62.0760 C.3     0  <0>0        0.0047
     16  C13        6.3180   36.2730   55.5360 C.3     0  <0>0        0.1934
     17  C14        4.9380   36.1320   56.1230 C.2     0  <0>0        0.3135
     18  O2         3.8140   36.6530   55.6130 O.2     0  <0>0       -0.3137
     19  N3         2.7620   36.2680   56.4830 N.2     0  <0>0       -0.0067
     20  C15        3.3120   35.5620   57.4430 C.1     0  <0>0        0.1330
     21  N2         4.6370   35.4870   57.2130 N.2     0  <0>0       -0.3104
     22  C16        2.5990   34.9550   58.5850 C.ar    0  <0>0        0.1063
     23  S1         3.1580   33.6940   59.7190 S.2     0  <0>0       -0.0753
     24  C19        1.6890   33.5920   60.7280 C.ar    0  <0>0        0.0362
     25  C18        0.8760   34.5080   60.1400 C.ar    0  <0>0        0.0082
     26  C17        1.3340   35.2070   59.0460 C.ar    0  <0>0        0.0182
@<TRIPOS>BOND
     1    16    17    1
     2    16     3    1
     3    18    17    1
     4    18    19    1
     5     2     1    2
     6    17    21    2
     7    19    20    2
     8     3     1   am
     9     3     4    1
    10     1     5    1
    11    21    20    2
    12    20    22    1
    13     5     6    1
    14    22    26   ar
    15    22    23   ar
    16    26    25   ar
    17     6     7    1
    18    12    11   ar
    19    12     7   ar
    20    23    24   ar
    21    11    10   ar
    22     7     8   ar
    23    25    24   ar
    24    10     9   ar
    25    10    13    1
    26     8     9   ar
    27    13    15    1
    28    13    14    1

@<TRIPOS>MOLECULE
ZINC00178777_replica-1.pdb
 20 21 0 0 0
SMALL
GASTEIGER

@<TRIPOS>ATOM
      1  C6        -0.0950   31.6910   56.8390 C.ar    0  <0>0        0.1881
      2  N2        -0.4010   31.9370   55.5720 N.ar    0  <0>0       -0.1253
      3  N3        -0.4970   31.0140   54.7180 N.ar    0  <0>0       -0.1396
      4  C7        -0.3100   29.7400   55.0380 C.ar    0  <0>0        0.1348
      5  S1         0.0610   29.9080   56.7820 S.2     0  <0>0       -0.0304
      6  N1         0.0580   32.5660   57.9080 N.am    0  <0>0       -0.2628
      7  C5         1.2810   33.0400   58.2190 C.2     0  <0>0        0.2266
      8  O1         2.2470   32.7030   57.5670 O.2     0  <0>0       -0.2747
      9  H10       -0.7140   32.8350   58.4290 H       0  <0>0        0.1568
     10  C2         1.4490   33.9880   59.3790 C.3     0  <0>0        0.0692
     11  C1         2.7740   33.6990   60.0850 C.3     0  <0>0        0.0091
     12  C3         1.4470   35.4280   58.8630 C.3     0  <0>0        0.0091
     13  C4         0.2940   33.7990   60.3640 C.3     0  <0>0        0.0091
     14  C8        -0.3820   28.5270   54.1960 C.ar    0  <0>0        0.0257
     15  C13       -1.0870   28.5500   52.9920 C.ar    0  <0>0        0.0026
     16  C12       -1.1500   27.4140   52.2120 C.ar    0  <0>0        0.0068
     17  C11       -0.5180   26.2530   52.6210 C.ar    0  <0>0        0.0346
     18  C10        0.1870   26.2250   53.8120 C.ar    0  <0>0        0.0068
     19 Br         -0.6100   24.7010   51.5460 Br      0  <0>0       -0.0490
     20  C9         0.2530   27.3520   54.6040 C.ar    0  <0>0        0.0026
@<TRIPOS>BOND
     1    19    17    1
     2    16    17   ar
     3    16    15   ar
     4    17    18   ar
     5    15    14   ar
     6    18    20   ar
     7    14    20   ar
     8    14     4    1
     9     3     4   ar
    10     3     2   ar
    11     4     5   ar
    12     2     1   ar
    13     5     1   ar
    14     1     6    1
    15     8     7    2
    16     6     7   am
    17     6     9    1
    18     7    10    1
    19    12    10    1
    20    10    11    1
    21    10    13    1

@<TRIPOS>MOLECULE
ZINC20687696_replica-1.pdb
 24 27 0 0 0
SMALL
GASTEIGER

@<TRIPOS>ATOM
      1  C6         7.6480   35.2370   57.8570 C.3     0  <0>0        0.0978
      2  C7         7.8590   36.2440   58.9700 C.3     0  <0>0        0.0267
      3  C8         7.9830   37.7230   58.5870 C.3     0  <0>0        0.0023
      4  C9         8.8880   38.2500   59.7020 C.3     0  <0>0        0.0004
      5  C10        9.6400   37.2640   60.1800 C.3     0  <0>0        0.0045
      6  C11        9.3370   36.0300   59.4170 C.3     0  <0>0        0.0255
      7  C12        9.4100   34.6800   60.0190 C.ar    0  <0>0       -0.0080
      8  C13       10.2760   34.3920   61.0530 C.ar    0  <0>0        0.0210
      9  C14       10.3340   33.1190   61.5860 C.ar    0  <0>0        0.1423
     10  C15        9.5150   32.1270   61.0760 C.ar    0  <0>0        0.0210
     11  C16        8.6430   32.4070   60.0480 C.ar    0  <0>0       -0.0074
     12  C17        8.5700   33.6900   59.5030 C.ar    0  <0>0        0.0368
     13  N1         7.6530   33.9010   58.4750 N.pl3   0  <0>0       -0.3307
     14  C18        7.7580   31.3150   59.5050 C.3     0  <0>0        0.0324
     15  H15        6.9550   33.1290   58.1210 H       0  <0>0        0.1471
     16  C5         6.3230   35.4860   57.1830 C.ar    0  <0>0        0.0210
     17  C2         6.0750   35.9630   55.9390 C.ar    0  <0>0       -0.0178
     18  C1         7.2110   36.3280   55.0180 C.3     0  <0>0        0.0313
     19  C3         4.7640   36.1100   55.5270 C.ar    0  <0>0        0.0029
     20  C4         3.7650   35.7740   56.3790 C.ar    0  <0>0        0.0348
     21  S1         4.6740   35.2220   57.8130 S.2     0  <0>0       -0.0895
     22  N2        11.2650   32.8180   62.6960 N.pl3   0  <0>0        0.0577
     23  O1        12.1100   33.6330   63.0200 O.2     0  <0>0       -0.1261
     24  O2        11.1870   31.7540   63.2850 O.2     0  <0>0       -0.1261
@<TRIPOS>BOND
     1    18    17    1
     2    19    17   ar
     3    19    20   ar
     4    17    16   ar
     5    20    21   ar
     6    16    21   ar
     7    16     1    1
     8     1    13    1
     9     1     2    1
    10    15    13    1
    11    13    12    1
    12     3     2    1
    13     3     4    1
    14     2     6    1
    15     6     7    1
    16     6     5    1
    17    12     7   ar
    18    12    11   ar
    19    14    11    1
    20     4     5    1
    21     7     8   ar
    22    11    10   ar
    23     8     9   ar
    24    10     9   ar
    25     9    22    1
    26    22    23    2
    27    22    24    2

@<TRIPOS>MOLECULE
ZINC35586741_replica-1.pdb
 21 22 0 0 0
SMALL
GASTEIGER

@<TRIPOS>ATOM
      1  C4         8.2030   35.3380   58.4500 C.3     0  <0>0       -0.0384
      2  N1         8.4230   36.4520   57.5180 N.4     0  <0>0        0.3876
      3  H10        9.2330   36.9790   57.8090 H       0  <0>0       -0.0839
      4  H28        7.6130   37.0540   57.5140 H       0  <0>0       -0.0839
      5  C3         8.6450   35.9220   56.1660 C.3     0  <0>0       -0.0812
      6  C2         7.6010   36.5050   55.2120 C.3     0  <0>0       -0.0233
      7  C1         7.2170   37.9120   55.6730 C.3     0  <0>0       -0.0023
      8  C5         9.1650   35.4510   59.6040 C.ar    0  <0>0       -0.0422
      9  C10        9.6840   34.3100   60.1890 C.ar    0  <0>0       -0.0074
     10  C9        10.5670   34.4160   61.2400 C.ar    0  <0>0        0.0150
     11  C8        10.9350   35.6600   61.7380 C.ar    0  <0>0        0.1344
     12  C11       11.3090   33.3750   62.0570 C.3     0  <0>0        0.0729
     13  C7        10.4050   36.8040   61.1450 C.ar    0  <0>0        0.0362
     14  O1        11.7940   35.5380   62.7850 O.3     0  <0>0       -0.4791
     15  C6         9.5280   36.6960   60.0860 C.ar    0  <0>0       -0.0032
     16  C12       12.3910   34.2300   62.7590 C.3     0  <0>0        0.1704
     17  C13       13.6880   34.2370   61.9470 C.3     0  <0>0        0.0476
     18  C14        6.7670   35.3910   58.9760 C.3     0  <0>0       -0.0139
     19  C15        6.7060   34.7340   60.3570 C.3     0  <0>0       -0.0017
     20  C16        6.3170   36.8490   59.0850 C.3     0  <0>0       -0.0017
     21  C17        5.8430   34.6430   58.0140 C.3     0  <0>0       -0.0017
@<TRIPOS>BOND
     1     6     7    1
     2     6     5    1
     3     5     2    1
     4     4     2    1
     5     2     3    1
     6     2     1    1
     7    21    18    1
     8     1    18    1
     9     1     8    1
    10    18    20    1
    11    18    19    1
    12     8    15   ar
    13     8     9   ar
    14    15    13   ar
    15     9    10   ar
    16    13    11   ar
    17    10    11   ar
    18    10    12    1
    19    11    14    1
    20    17    16    1
    21    12    16    1
    22    16    14    1

@<TRIPOS>MOLECULE
ZINC35450903_replica-1.pdb
 19 20 0 0 0
SMALL
GASTEIGER

@<TRIPOS>ATOM
      1  N1        10.7400   34.3550   61.8240 N.pl3   0  <0>0       -0.3340
      2  H12       10.3380   35.0630   62.3530 H       0  <0>0        0.1468
      3  C2        10.2920   34.1250   60.4490 C.3     0  <0>0        0.0695
      4  C1         8.9260   33.4370   60.4650 C.3     0  <0>0        0.0212
      5  C3        10.1800   35.4660   59.7180 C.3     0  <0>0        0.0274
      6  C4         9.3230   35.2920   58.4630 C.3     0  <0>0        0.0662
      7  C5         8.7840   36.6320   58.0330 C.ar    0  <0>0        0.1230
      8  O1         8.4250   36.9700   56.7850 O.2     0  <0>0       -0.4547
      9  C8         7.9880   38.2400   56.7730 C.ar    0  <0>0        0.1791
     10  C7         8.0740   38.7300   58.0230 C.ar    0  <0>0        0.0434
     11  C6         8.5870   37.6940   58.8350 C.ar    0  <0>0        0.0362
     12  C9        11.7420   33.5540   62.3750 C.ar    0  <0>0        0.0463
     13  C14       13.0400   34.0420   62.4850 C.ar    0  <0>0        0.0257
     14  C13       14.0290   33.2490   63.0360 C.ar    0  <0>0        0.0597
     15  C12       13.7320   31.9670   63.4660 C.ar    0  <0>0        0.0229
     16 Cl         15.6480   33.8580   63.1800 Cl      0  <0>0       -0.0822
     17  C11       12.4420   31.4790   63.3530 C.ar    0  <0>0        0.0597
     18  C10       11.4470   32.2690   62.8090 C.ar    0  <0>0        0.0257
     19 Cl         12.0730   29.8710   63.8960 Cl      0  <0>0       -0.0822
@<TRIPOS>BOND
     1     9     8   ar
     2     9    10   ar
     3     8     7   ar
     4    10    11   ar
     5     7     6    1
     6     7    11   ar
     7     6     5    1
     8     5     3    1
     9     3     4    1
    10     3     1    1
    11     1     2    1
    12     1    12    1
    13    12    13   ar
    14    12    18   ar
    15    13    14   ar
    16    18    17   ar
    17    14    16    1
    18    14    15   ar
    19    17    15   ar
    20    17    19    1

@<TRIPOS>MOLECULE
ZINC01446697_replica-1.pdb
 22 24 0 0 0
SMALL
GASTEIGER

@<TRIPOS>ATOM
      1  C6         9.3330   36.1320   59.0660 C.ar    0  <0>0        0.1460
      2  C7         9.3780   37.0790   60.0730 C.ar    0  <0>0        0.0406
      3  C8        10.1180   36.5210   61.1190 C.ar    0  <0>0        0.0406
      4  C9        10.4940   35.2690   60.7220 C.ar    0  <0>0        0.1453
      5  O2        10.0210   35.0480   59.4820 O.2     0  <0>0       -0.4535
      6  C5         8.6860   36.2760   57.8200 C.2     0  <0>0        0.0486
      7  C4         7.3290   36.1520   57.7360 C.2     0  <0>0        0.0880
      8  C3         6.4760   36.2570   56.5960 C.2     0  <0>0        0.2596
      9  S1         6.1370   35.8080   59.0230 S.3     0  <0>0       -0.0603
     10  N1         5.1770   36.0950   56.7770 N.am    0  <0>0       -0.2441
     11  O1         6.9320   36.4900   55.4910 O.2     0  <0>0       -0.2690
     12  C16        4.6720   35.8380   58.0030 C.2     0  <0>0        0.1212
     13  S2         3.0400   35.5960   58.4630 S.2     0  <0>0       -0.0272
     14  C2         4.2710   36.1950   55.6300 C.3     0  <0>0        0.0995
     15  C1         4.0830   34.8120   55.0050 C.3     0  <0>0        0.0237
     16  C10       11.2930   34.3190   61.5190 C.ar    0  <0>0        0.0346
     17  C15       10.7430   33.0950   61.9110 C.ar    0  <0>0        0.0039
     18  C14       11.4960   32.2110   62.6550 C.ar    0  <0>0        0.0115
     19  C13       12.7940   32.5340   63.0140 C.ar    0  <0>0        0.0577
     20  C12       13.3450   33.7450   62.6290 C.ar    0  <0>0        0.0115
     21 Cl         13.7350   31.4150   63.9520 Cl      0  <0>0       -0.0822
     22  C11       12.6050   34.6360   61.8800 C.ar    0  <0>0        0.0039
@<TRIPOS>BOND
     1    15    14    1
     2    11     8    2
     3    14    10    1
     4     8    10   am
     5     8     7    1
     6    10    12    1
     7     7     6    2
     8     7     9    1
     9     6     1    1
    10    12    13    2
    11    12     9    1
    12     1     5   ar
    13     1     2   ar
    14     5     4   ar
    15     2     3   ar
    16     4     3   ar
    17     4    16    1
    18    16    22   ar
    19    16    17   ar
    20    22    20   ar
    21    17    18   ar
    22    20    19   ar
    23    18    19   ar
    24    19    21    1

@<TRIPOS>MOLECULE
ZINC02790640_replica-1.pdb
 20 21 0 0 0
SMALL
GASTEIGER

@<TRIPOS>ATOM
      1  C7        -0.4450   28.3770   54.5330 C.2     0  <0>0        0.1193
      2  N1         0.4880   29.2790   54.4810 N.2     0  <0>0       -0.1772
      3  N2         0.7580   30.0720   55.6030 N.am    0  <0>0       -0.1998
      4  C8         0.1760   31.2820   55.7280 C.2     0  <0>0        0.2992
      5  O1        -0.5840   31.6840   54.8670 O.2     0  <0>0       -0.2650
      6  H5         1.3630   29.7520   56.2890 H       0  <0>0        0.1777
      7  C9         0.4580   32.1120   56.9020 C.ar    0  <0>0        0.2007
      8  O2         0.8380   33.4070   56.8830 O.2     0  <0>0       -0.4423
      9  C12        1.0040   33.8390   58.1410 C.ar    0  <0>0        0.1793
     10  C11        0.7320   32.8210   58.9900 C.ar    0  <0>0        0.0478
     11 Br          1.5340   35.5820   58.6460 Br      0  <0>0       -0.0078
     12  C10        0.3760   31.7130   58.2060 C.ar    0  <0>0        0.0460
     13  C4        -0.7250   27.5370   53.3540 C.ar    0  <0>0        0.0418
     14  C3        -0.2020   26.2430   53.2750 C.ar    0  <0>0        0.0600
     15  C2        -0.4680   25.4620   52.1670 C.ar    0  <0>0        0.0115
     16 Cl          0.7790   25.6180   54.5640 Cl      0  <0>0       -0.0822
     17  C1        -1.2500   25.9570   51.1390 C.ar    0  <0>0        0.0017
     18  C6        -1.7720   27.2370   51.2110 C.ar    0  <0>0        0.0115
     19  C5        -1.5190   28.0280   52.3140 C.ar    0  <0>0        0.0600
     20 Cl         -2.1790   29.6300   52.4050 Cl      0  <0>0       -0.0822
@<TRIPOS>BOND
     1    17    18   ar
     2    17    15   ar
     3    18    19   ar
     4    15    14   ar
     5    19    20    1
     6    19    13   ar
     7    14    13   ar
     8    14    16    1
     9    13     1    1
    10     2     1    2
    11     2     3    1
    12     5     4    2
    13     3     4   am
    14     3     6    1
    15     4     7    1
    16     8     7   ar
    17     8     9   ar
    18     7    12   ar
    19     9    11    1
    20     9    10   ar
    21    12    10   ar

@<TRIPOS>MOLECULE
ZINC51362729_replica-1.pdb
 19 21 0 0 0
SMALL
GASTEIGER

@<TRIPOS>ATOM
      1  C1         6.6910   36.4690   58.5900 C.3     0  <0>0        0.1369
      2  N1         7.8830   35.6520   58.8290 N.ar    0  <0>0       -0.2601
      3  C2         8.8390   35.8600   59.8220 C.ar    0  <0>0        0.1000
      4  C3         8.9820   36.8090   60.8230 C.ar    0  <0>0        0.0202
      5  C4        10.0670   36.7510   61.6760 C.ar    0  <0>0       -0.0011
      6  C5        11.0100   35.7480   61.5340 C.ar    0  <0>0        0.0003
      7  C6        10.8740   34.7990   60.5410 C.ar    0  <0>0        0.0364
      8  C7         9.7890   34.8490   59.6800 C.ar    0  <0>0        0.1657
      9  O1         9.3990   34.0750   58.6370 O.2     0  <0>0       -0.4068
     10  C8         8.2520   34.5580   58.1330 C.ar    0  <0>0        0.4220
     11  O2         7.6430   34.0850   57.1940 O.2     0  <0>0       -0.2226
     12  C9        12.1910   35.6920   62.4680 C.3     0  <0>0        0.1303
     13 Cl         11.7710   36.5100   64.0190 Cl      0  <0>0       -0.1048
     14  C10       12.5490   34.2530   62.7410 C.ar    0  <0>0        0.0267
     15  S1        11.4690   32.8670   63.0550 S.2     0  <0>0       -0.0829
     16  C13       12.7220   31.6110   63.2560 C.ar    0  <0>0        0.0635
     17  C12       13.8630   32.3240   63.0810 C.ar    0  <0>0        0.0134
     18 Br         12.5140   29.7690   63.6240 Br      0  <0>0       -0.0419
     19  C11       13.7740   33.6780   62.8160 C.ar    0  <0>0        0.0047
@<TRIPOS>BOND
     1    11    10    2
     2    10     9   ar
     3    10     2   ar
     4     1     2    1
     5     9     8   ar
     6     2     3   ar
     7     8     3   ar
     8     8     7   ar
     9     3     4   ar
    10     7     6   ar
    11     4     5   ar
    12     6     5   ar
    13     6    12    1
    14    12    14    1
    15    12    13    1
    16    14    19   ar
    17    14    15   ar
    18    19    17   ar
    19    15    16   ar
    20    17    16   ar
    21    16    18    1

@<TRIPOS>MOLECULE
ZINC52098453_replica-1.pdb
 22 23 0 0 0
SMALL
GASTEIGER

@<TRIPOS>ATOM
      1  N1         5.8990   36.7530   58.7640 N.3     0  <0>0       -0.2925
      2  H12        5.1500   37.4100   58.9240 H       0  <0>0        0.1236
      3  C4         5.3710   35.4350   58.3860 C.3     0  <0>0        0.0829
      4  C2         5.5600   34.4580   59.5480 C.3     0  <0>0        0.0191
      5  C1         6.5590   33.3710   59.1450 C.3     0  <0>0        0.0017
      6  C3         6.0950   35.2130   60.7670 C.3     0  <0>0        0.0017
      7  C5         3.9030   35.5550   58.0650 C.ar    0  <0>0        0.0215
      8  S1         3.1190   35.9020   56.4990 S.2     0  <0>0       -0.0895
      9  C8         1.4220   35.8530   57.0510 C.ar    0  <0>0        0.0352
     10  C7         1.5650   35.5870   58.3720 C.ar    0  <0>0        0.0072
     11  C6         2.8360   35.4350   58.8920 C.ar    0  <0>0        0.0040
     12  C9         6.8330   37.2560   57.7490 C.3     0  <0>0        0.1003
     13  C10        7.9710   38.0150   58.4340 C.3     0  <0>0        0.1215
     14  C11        8.7890   38.7660   57.3800 C.3     0  <0>0        0.0353
     15  C12        8.8620   37.0400   59.1590 C.ar    0  <0>0        0.0030
     16  C17        9.3470   37.3490   60.4160 C.ar    0  <0>0       -0.0020
     17  C16       10.1590   36.4520   61.0830 C.ar    0  <0>0       -0.0002
     18  C15       10.4940   35.2500   60.4900 C.ar    0  <0>0       -0.0000
     19  C14       10.0140   34.9420   59.2310 C.ar    0  <0>0       -0.0002
     20  C13        9.1980   35.8380   58.5650 C.ar    0  <0>0       -0.0020
     21  O1         7.4260   38.9500   59.3680 O.3     0  <0>0       -0.3813
     22  H23        6.7870   38.5630   59.9830 H       0  <0>0        0.2107
@<TRIPOS>BOND
     1     8     9   ar
     2     8     7   ar
     3     9    10   ar
     4    14    13    1
     5    12    13    1
     6    12     1    1
     7     7     3    1
     8     7    11   ar
     9    10    11   ar
    10     3     1    1
    11     3     4    1
    12    13    15    1
    13    13    21    1
    14    20    15   ar
    15    20    19   ar
    16     1     2    1
    17     5     4    1
    18    15    16   ar
    19    19    18   ar
    20    21    22    1
    21     4     6    1
    22    16    17   ar
    23    18    17   ar

@<TRIPOS>MOLECULE
ZINC33557139_replica-1.pdb
 22 24 0 0 0
SMALL
GASTEIGER

@<TRIPOS>ATOM
      1  C1         9.9630   36.6530   60.8490 C.ar    0  <0>0        0.0406
      2  C2        10.7800   36.1090   61.8440 C.ar    0  <0>0        0.0406
      3  C3        11.2130   34.8960   61.3890 C.ar    0  <0>0        0.1454
      4  O1        10.6960   34.6810   60.1660 O.2     0  <0>0       -0.4535
      5  C4         9.9310   35.7360   59.8140 C.ar    0  <0>0        0.1460
      6  C5         9.2220   35.8790   58.6010 C.2     0  <0>0        0.0487
      7  C6         7.9250   35.4630   58.5170 C.2     0  <0>0        0.0903
      8  S1         6.7390   35.6980   57.2000 S.3     0  <0>0       -0.0253
      9  C7         7.1420   34.7290   59.4590 C.2     0  <0>0        0.2584
     10  C8         5.3690   34.8370   57.9570 C.2     0  <0>0        0.2832
     11  N1         5.8920   34.4440   59.1410 N.am    0  <0>0       -0.2425
     12  O3         4.2480   34.6550   57.5220 O.2     0  <0>0       -0.2622
     13  H4         5.3410   33.9460   59.7650 H       0  <0>0        0.1587
     14  O2         7.6140   34.3750   60.5250 O.2     0  <0>0       -0.2692
     15  C9        12.1020   33.9720   62.1200 C.ar    0  <0>0        0.0362
     16  C14       13.4390   34.3140   62.3430 C.ar    0  <0>0        0.0145
     17  C13       14.2640   33.4480   63.0320 C.ar    0  <0>0        0.0586
     18  C12       13.7740   32.2370   63.4910 C.ar    0  <0>0        0.0228
     19 Cl         15.9220   33.8760   63.3180 Cl      0  <0>0       -0.0822
     20  C11       12.4520   31.8890   63.2670 C.ar    0  <0>0        0.0586
     21  C10       11.6140   32.7480   62.5850 C.ar    0  <0>0        0.0145
     22 Cl         11.8480   30.3680   63.8460 Cl      0  <0>0       -0.0822
@<TRIPOS>BOND
     1     8    10    1
     2     8     7    1
     3    12    10    2
     4    10    11   am
     5     7     6    2
     6     7     9    1
     7     6     5    1
     8    11     9   am
     9    11    13    1
    10     9    14    2
    11     5     4   ar
    12     5     1   ar
    13     4     3   ar
    14     1     2   ar
    15     3     2   ar
    16     3    15    1
    17    15    16   ar
    18    15    21   ar
    19    16    17   ar
    20    21    20   ar
    21    17    19    1
    22    17    18   ar
    23    20    18   ar
    24    20    22    1

@<TRIPOS>MOLECULE
ZINC61495347_replica-1.pdb
 17 18 0 0 0
SMALL
GASTEIGER

@<TRIPOS>ATOM
      1  C4        11.6500   33.0700   62.3700 C.ar    0  <0>0        0.2366
      2  N1        10.6040   32.3610   62.0510 N.ar    0  <0>0       -0.1105
      3  N2         9.8420   33.0440   61.2710 N.ar    0  <0>0       -0.1071
      4  C5        10.3810   34.2230   61.0640 C.ar    0  <0>0        0.2518
      5  O1        11.5340   34.2640   61.7600 O.2     0  <0>0       -0.4186
      6  C6         9.8250   35.3060   60.2250 C.ar    0  <0>0        0.0830
      7  C11        9.6900   36.5970   60.7440 C.ar    0  <0>0        0.1447
      8  C10        9.1740   37.6050   59.9510 C.ar    0  <0>0        0.0303
      9  F1        10.0670   36.8590   62.0140 F       0  <0>0       -0.2040
     10  C9         8.7820   37.3370   58.6530 C.ar    0  <0>0        0.0090
     11  C8         8.9080   36.0580   58.1350 C.ar    0  <0>0        0.0349
     12  C7         9.4270   35.0430   58.9140 C.ar    0  <0>0        0.0137
     13 Br          8.3680   35.7030   56.3590 Br      0  <0>0       -0.0490
     14  C3        12.7820   32.6350   63.2650 C.3     0  <0>0        0.1348
     15 Br         14.4110   33.6270   62.7870 Br      0  <0>0       -0.0717
     16  C2        13.0260   31.1360   63.0850 C.3     0  <0>0        0.0208
     17  C1        12.6100   30.3950   64.3570 C.3     0  <0>0        0.0014
@<TRIPOS>BOND
     1    13    11    1
     2    11    10   ar
     3    11    12   ar
     4    10     8   ar
     5    12     6   ar
     6     8     7   ar
     7     6     7   ar
     8     6     4    1
     9     7     9    1
    10     4     3   ar
    11     4     5   ar
    12     3     2   ar
    13     5     1   ar
    14     2     1   ar
    15     1    14    1
    16    15    14    1
    17    16    14    1
    18    16    17    1

@<TRIPOS>MOLECULE
ZINC37197430_replica-1.pdb
 22 24 0 0 0
SMALL
GASTEIGER

@<TRIPOS>ATOM
      1  C7         9.9350   35.2180   60.6190 C.ar    0  <0>0        0.0450
      2  C8         9.8150   36.5770   60.8900 C.ar    0  <0>0        0.0145
      3  C9         9.3180   37.4400   59.9310 C.ar    0  <0>0        0.0059
      4  C10        8.9370   36.9480   58.6890 C.ar    0  <0>0        0.0584
      5  C11        9.0590   35.5700   58.4110 C.ar    0  <0>0        0.0596
      6  C12        9.5610   34.7140   59.3730 C.ar    0  <0>0        0.0190
      7  C13        8.5740   35.3950   57.0240 C.2     0  <0>0        0.2552
      8  O1         8.5190   34.3440   56.4190 O.2     0  <0>0       -0.2695
      9  N2         8.2010   36.5970   56.5470 N.am    0  <0>0       -0.2211
     10  C14        8.3850   37.5610   57.4670 C.2     0  <0>0        0.2551
     11  O2         8.1380   38.7400   57.3150 O.2     0  <0>0       -0.2695
     12  C15        7.6660   36.8250   55.2020 C.3     0  <0>0        0.1234
     13  N1        10.4340   34.3600   61.5920 N.pl3   0  <0>0       -0.3302
     14  H7         9.8390   33.7410   62.0450 H       0  <0>0        0.1471
     15  C2        11.8580   34.3890   61.9340 C.3     0  <0>0        0.0985
     16  C1        12.1360   35.5750   62.8590 C.3     0  <0>0        0.0267
     17  C3        12.2340   33.1080   62.6320 C.ar    0  <0>0        0.0312
     18  S1        11.1860   31.7550   63.1380 S.2     0  <0>0       -0.0887
     19  C6        12.4470   30.7140   63.8560 C.ar    0  <0>0        0.0357
     20  C5        13.5640   31.4590   63.6700 C.ar    0  <0>0        0.0139
     21  C4        13.4550   32.6850   63.0430 C.ar    0  <0>0        0.0386
     22 Br         14.9860   33.7590   62.7620 Br      0  <0>0       -0.0487
@<TRIPOS>BOND
     1    12     9    1
     2     8     7    2
     3     9     7   am
     4     9    10   am
     5     7     5    1
     6    11    10    2
     7    10     4    1
     8     5     4   ar
     9     5     6   ar
    10     4     3   ar
    11     6     1   ar
    12     3     2   ar
    13     1     2   ar
    14     1    13    1
    15    13    15    1
    16    13    14    1
    17    15    17    1
    18    15    16    1
    19    17    21   ar
    20    17    18   ar
    21    22    21    1
    22    21    20   ar
    23    18    19   ar
    24    20    19   ar

@<TRIPOS>MOLECULE
ZINC08992544_replica-1.pdb
 29 31 0 0 0
SMALL
GASTEIGER

@<TRIPOS>ATOM
      1  C6         6.9950   36.7360   59.8080 C.ar    0  <0>0        0.0252
      2  C7         8.0690   37.4890   60.2550 C.ar    0  <0>0        0.1305
      3  C8         8.8030   38.2720   59.3680 C.ar    0  <0>0        0.0365
      4  C9         8.4630   38.3140   58.0440 C.ar    0  <0>0        0.0094
      5  C10        7.3810   37.5650   57.5820 C.ar    0  <0>0        0.0763
      6  C11        6.6380   36.7670   58.4670 C.ar    0  <0>0        0.1454
      7  O1         5.6550   36.1510   57.7770 O.3     0  <0>0       -0.4504
      8  C12        5.6870   36.4840   56.4650 C.2     0  <0>0        0.1845
      9  C13        4.8300   36.0300   55.5060 C.2     0  <0>0        0.0473
     10  C18        6.7640   37.3870   56.2560 C.2     0  <0>0        0.2327
     11  O2         7.1040   37.9030   55.2050 O.2     0  <0>0       -0.2832
     12  C5         6.2130   35.8880   60.7780 C.3     0  <0>0       -0.0437
     13  N1         6.0990   34.5210   60.2280 N.4     0  <0>0        0.3898
     14  H28        5.9530   34.5800   59.2140 H       0  <0>0       -0.0792
     15  C4         4.9470   33.8250   60.8390 C.3     0  <0>0       -0.0768
     16  C2         3.9270   33.5080   59.7440 C.3     0  <0>0       -0.0208
     17  C1         4.1940   32.1080   59.1880 C.3     0  <0>0       -0.0022
     18  C3         2.5160   33.5630   60.3310 C.3     0  <0>0       -0.0022
     19  C19        7.3420   33.7660   60.4910 C.3     0  <0>0       -0.0768
     20  C20        7.9700   33.3790   59.1500 C.3     0  <0>0       -0.0208
     21  C21        9.2800   34.1480   58.9600 C.3     0  <0>0       -0.0022
     22  C22        8.2540   31.8760   59.1350 C.3     0  <0>0       -0.0022
     23  O3         8.4120   37.4590   61.5690 O.3     0  <0>0       -0.5058
     24  H18        8.5620   38.3320   61.9560 H       0  <0>0        0.2922
     25  C14        3.7970   35.1300   55.8510 C.ar    0  <0>0        0.0326
     26  S1         2.2820   35.4440   56.7380 S.2     0  <0>0       -0.0863
     27  C17        1.6270   33.8400   56.7120 C.ar    0  <0>0        0.0354
     28  C16        2.5730   33.1260   56.0450 C.ar    0  <0>0        0.0075
     29  C15        3.6980   33.7650   55.5920 C.ar    0  <0>0        0.0071
@<TRIPOS>BOND
     1    11    10    2
     2     9    25    1
     3     9     8    2
     4    29    25   ar
     5    29    28   ar
     6    25    26   ar
     7    28    27   ar
     8    10     8    1
     9    10     5    1
    10     8     7    1
    11    27    26   ar
    12     5     4   ar
    13     5     6   ar
    14     7     6    1
    15     4     3   ar
    16     6     1   ar
    17    21    20    1
    18    22    20    1
    19    20    19    1
    20    17    16    1
    21    14    13    1
    22     3     2   ar
    23    16    18    1
    24    16    15    1
    25     1     2   ar
    26     1    12    1
    27    13    19    1
    28    13    12    1
    29    13    15    1
    30     2    23    1
    31    23    24    1

@<TRIPOS>MOLECULE
ZINC36990735_replica-1.pdb
 22 23 0 0 0
SMALL
GASTEIGER

@<TRIPOS>ATOM
      1  C9        10.0020   35.3960   59.8700 C.ar    0  <0>0        0.0551
      2  C10        9.4590   35.2740   58.5970 C.ar    0  <0>0        0.0126
      3  C11        8.8370   36.3530   58.0110 C.ar    0  <0>0        0.0017
      4  C12        8.7430   37.5690   58.6750 C.ar    0  <0>0        0.0477
      5  C13        9.2890   37.6880   59.9510 C.ar    0  <0>0        0.0270
      6  C14        9.9070   36.6070   60.5450 C.ar    0  <0>0        0.0719
      7 Cl         10.5770   36.7630   62.1390 Cl      0  <0>0       -0.0809
      8  N2         8.0730   38.5020   57.8780 N.am    0  <0>0       -0.2839
      9  C15        7.7010   37.9870   56.6950 C.2     0  <0>0        0.2306
     10  O1         7.1060   38.5670   55.8110 O.2     0  <0>0       -0.2744
     11  C16        8.1610   36.5450   56.6720 C.3     0  <0>0        0.1129
     12  H21        7.8970   39.4170   58.1490 H       0  <0>0        0.1549
     13  N1        10.6350   34.3030   60.4730 N.pl3   0  <0>0       -0.3334
     14  H18       11.5800   34.1440   60.3190 H       0  <0>0        0.1468
     15  C7         9.8730   33.3990   61.3370 C.3     0  <0>0        0.0691
     16  C8         9.0180   32.4690   60.4730 C.3     0  <0>0        0.0212
     17  C6        10.8380   32.5650   62.1820 C.3     0  <0>0        0.0195
     18  C5        11.9060   33.4790   62.7860 C.3     0  <0>0        0.0017
     19  C4        13.2160   32.7030   62.9350 C.3     0  <0>0        0.0001
     20  C3        12.9210   31.2010   62.9500 C.3     0  <0>0        0.0000
     21  C2        13.0590   30.6700   64.3790 C.3     0  <0>0        0.0000
     22  C1        12.1620   29.4420   64.5540 C.3     0  <0>0        0.0000
@<TRIPOS>BOND
     1    10     9    2
     2    11     9    1
     3    11     3    1
     4     9     8   am
     5     8    12    1
     6     8     4    1
     7     3     2   ar
     8     3     4   ar
     9     2     1   ar
    10     4     5   ar
    11     1    13    1
    12     1     6   ar
    13     5     6   ar
    14    14    13    1
    15    13    15    1
    16    16    15    1
    17     6     7    1
    18    15    17    1
    19    17    18    1
    20    18    19    1
    21    19    20    1
    22    20    21    1
    23    21    22    1

@<TRIPOS>MOLECULE
ZINC37560935_replica-1.pdb
 20 22 0 0 0
SMALL
GASTEIGER

@<TRIPOS>ATOM
      1  C3        10.6840   35.4550   60.7240 C.ar    0  <0>0        0.1405
      2  C4        10.2340   34.9150   59.5830 C.ar    0  <0>0        0.0377
      3  C5         9.3550   35.9190   58.9730 C.ar    0  <0>0        0.0378
      4  C6         8.5960   35.9690   57.8050 C.ar    0  <0>0        0.0098
      5  C7         7.8600   37.0980   57.5190 C.ar    0  <0>0        0.0348
      6  C8         7.8730   38.1800   58.3890 C.ar    0  <0>0        0.0098
      7  C9         8.6190   38.1430   59.5470 C.ar    0  <0>0        0.0380
      8  C10        9.3680   37.0140   59.8540 C.ar    0  <0>0        0.1449
      9  O1        10.1720   36.6870   60.8870 O.2     0  <0>0       -0.4561
     10 Br          6.8280   37.1740   55.9360 Br      0  <0>0       -0.0490
     11  C2        11.6230   34.7780   61.6880 C.3     0  <0>0        0.1284
     12  C1        11.9030   35.7100   62.8680 C.3     0  <0>0        0.0295
     13  N1        11.0100   33.5410   62.1780 N.pl3   0  <0>0       -0.3122
     14  H9        10.0570   33.3950   62.0700 H       0  <0>0        0.1486
     15  C11       11.8000   32.5680   62.8030 C.ar    0  <0>0        0.1501
     16  N3        11.3650   31.4620   63.3570 N.ar    0  <0>0       -0.1543
     17  N2        12.4690   30.7640   63.8660 N.ar    0  <0>0       -0.2462
     18  C13       13.5770   31.4900   63.6080 C.ar    0  <0>0        0.0981
     19  C14       12.4270   29.4760   64.5600 C.3     0  <0>0        0.1538
     20  C12       13.1960   32.6100   62.9520 C.ar    0  <0>0        0.0561
@<TRIPOS>BOND
     1    10     5    1
     2     5     4   ar
     3     5     6   ar
     4     4     3   ar
     5     6     7   ar
     6     3     2   ar
     7     3     8   ar
     8     7     8   ar
     9     2     1   ar
    10     8     9   ar
    11     1     9   ar
    12     1    11    1
    13    11    13    1
    14    11    12    1
    15    14    13    1
    16    13    15    1
    17    15    20   ar
    18    15    16   ar
    19    20    18   ar
    20    16    17   ar
    21    18    17   ar
    22    17    19    1

@<TRIPOS>MOLECULE
ZINC27981537_replica-1.pdb
 23 25 0 0 0
SMALL
GASTEIGER

@<TRIPOS>ATOM
      1  N1        -0.6150   27.0690   52.4120 N.ar    0  <0>0       -0.3309
      2  C3        -1.4730   28.0720   52.0510 C.ar    0  <0>0        0.0335
      3  C4        -1.7110   28.8730   53.1010 C.ar    0  <0>0       -0.0088
      4  C5        -0.9410   28.3380   54.2270 C.ar    0  <0>0        0.0130
      5  C6        -0.2700   27.2010   53.7350 C.ar    0  <0>0        0.0593
      6  C7         0.5540   26.4660   54.5840 C.ar    0  <0>0        0.0173
      7  C8         0.7120   26.8420   55.8850 C.ar    0  <0>0        0.0060
      8  C9         0.0490   27.9710   56.3870 C.ar    0  <0>0        0.0538
      9  C10       -0.7790   28.7210   55.5560 C.ar    0  <0>0        0.0057
     10  C15       -2.5990   30.0900   53.1190 C.3     0  <0>0        0.0322
     11  C16       -2.0650   28.2520   50.6760 C.3     0  <0>0        0.0497
     12  C11        0.2300   28.3650   57.7980 C.2     0  <0>0        0.2509
     13  O1         1.0560   27.7980   58.4860 O.2     0  <0>0       -0.2698
     14  N2        -0.5210   29.3530   58.3250 N.am    0  <0>0       -0.2606
     15  H9        -1.2690   29.8660   57.7020 H       0  <0>0        0.1571
     16  C12       -0.3500   29.7230   59.6520 C.ar    0  <0>0        0.1663
     17  S1        -1.0850   29.0520   61.0750 S.2     0  <0>0       -0.0445
     18  C14       -0.2970   30.1200   62.2710 C.ar    0  <0>0        0.0855
     19  C13        0.4600   30.8960   61.4550 C.ar    0  <0>0        0.1141
     20 Br         -0.4720   30.1600   64.1530 Br      0  <0>0       -0.0402
     21  N3         0.4160   30.6700   60.1560 N.ar    0  <0>0       -0.2218
     22  C2        -0.1350   26.0120   51.5190 C.3     0  <0>0        0.1058
     23  C1        -0.7800   24.6810   51.9100 C.3     0  <0>0        0.0265
@<TRIPOS>BOND
     1    11     2    1
     2    22    23    1
     3    22     1    1
     4     2     1   ar
     5     2     3   ar
     6     1     5   ar
     7     3    10    1
     8     3     4   ar
     9     5     4   ar
    10     5     6   ar
    11     4     9   ar
    12     6     7   ar
    13     9     8   ar
    14     7     8   ar
    15     8    12    1
    16    15    14    1
    17    12    14   am
    18    12    13    2
    19    14    16    1
    20    16    21   ar
    21    16    17   ar
    22    21    19   ar
    23    17    18   ar
    24    19    18   ar
    25    18    20    1

@<TRIPOS>MOLECULE
ZINC04038681_replica-1.pdb
 17 19 0 0 0
SMALL
GASTEIGER

@<TRIPOS>ATOM
      1  C1        11.2100   36.6600   62.7900 C.3     0  <0>0        0.1199
      2  N1        10.7990   35.9830   61.5570 N.pl3   0  <0>0       -0.2565
      3  C2        10.0030   36.5100   60.5570 C.2     0  <0>0        0.0795
      4  C3         9.3740   37.7330   60.3750 C.2     0  <0>0       -0.0034
      5  C4         8.6300   37.9600   59.2360 C.3     0  <0>0        0.0606
      6  C5         8.5030   36.9710   58.2690 C.2     0  <0>0        0.0194
      7  C6         9.1200   35.7510   58.4320 C.2     0  <0>0        0.0361
      8  C7         9.8800   35.5050   59.5810 C.2     0  <0>0        0.1466
      9  N2        10.5870   34.4340   60.0160 N.2     0  <0>0       -0.3822
     10  C8        11.1360   34.7090   61.1770 C.2     0  <0>0        0.2219
     11 Br          7.4770   37.3040   56.7160 Br      0  <0>0       -0.0532
     12  C9        11.9810   33.7900   61.9530 C.ar    0  <0>0        0.1900
     13  O1        11.5910   32.6120   62.4810 O.2     0  <0>0       -0.4430
     14  C12       12.6270   32.0450   63.1190 C.ar    0  <0>0        0.1792
     15  C11       13.6980   32.8620   63.0160 C.ar    0  <0>0        0.0478
     16 Br         12.5910   30.3830   64.0190 Br      0  <0>0       -0.0078
     17  C10       13.2930   33.9830   62.2690 C.ar    0  <0>0        0.0452
@<TRIPOS>BOND
     1    11     6    1
     2     6     7    2
     3     6     5    1
     4     7     8    1
     5     5     4    1
     6     8     9    2
     7     8     3    1
     8     9    10    2
     9     4     3    2
    10     3     2    1
    11    10     2    1
    12    10    12    1
    13     2     1    1
    14    12    17   ar
    15    12    13   ar
    16    17    15   ar
    17    13    14   ar
    18    15    14   ar
    19    14    16    1

@<TRIPOS>MOLECULE
ZINC37324890_replica-1.pdb
 19 21 0 0 0
SMALL
GASTEIGER

@<TRIPOS>ATOM
      1  C1         9.4050   36.5710   59.9280 C.ar    0  <0>0        0.0431
      2  C2         9.8600   35.2610   60.0990 C.ar    0  <0>0        0.0393
      3  C3         9.4480   34.2590   59.2180 C.ar    0  <0>0        0.0130
      4  C4         8.5920   34.5630   58.1780 C.ar    0  <0>0        0.0716
      5  C5         8.1410   35.8640   58.0100 C.ar    0  <0>0        0.1783
      6  C6         8.5490   36.8650   58.8850 C.ar    0  <0>0        0.1728
      7  O1         8.0960   38.1400   58.7070 O.3     0  <0>0       -0.4723
      8  C7         8.5740   38.8170   57.5430 C.3     0  <0>0        0.2094
      9  C8         7.7280   38.4670   56.3300 C.3     0  <0>0        0.0946
     10  C9         7.8350   36.9970   55.9530 C.3     0  <0>0        0.2094
     11  O2         7.2950   36.1700   56.9850 O.3     0  <0>0       -0.4718
     12 Br          8.0350   33.2070   56.9830 Br      0  <0>0       -0.0457
     13  C10       10.7760   34.9350   61.2120 C.2     0  <0>0        0.1566
     14  S1        11.6070   36.0310   62.3560 S.3     0  <0>0       -0.0751
     15  C12       12.4540   34.7650   63.2940 C.3     0  <0>0        0.1201
     16  C11       12.0310   33.6480   62.6470 C.2     0  <0>0        0.1149
     17  N1        11.2080   33.7530   61.6280 N.2     0  <0>0       -0.4021
     18  C13       12.5040   32.2900   63.0980 C.3     0  <0>0        0.1498
     19 Cl         14.2730   32.3530   63.4410 Cl      0  <0>0       -0.1060
@<TRIPOS>BOND
     1    10     9    1
     2    10    11    1
     3     9     8    1
     4    12     4    1
     5    11     5    1
     6     8     7    1
     7     5     4   ar
     8     5     6   ar
     9     4     3   ar
    10     7     6    1
    11     6     1   ar
    12     3     2   ar
    13     1     2   ar
    14     2    13    1
    15    13    17    2
    16    13    14    1
    17    17    16    2
    18    14    15    1
    19    16    18    1
    20    16    15    1
    21    18    19    1

@<TRIPOS>MOLECULE
ZINC37104108_replica-1.pdb
 19 20 0 0 0
SMALL
GASTEIGER

@<TRIPOS>ATOM
      1  C7        10.3910   35.5340   60.4620 C.ar    0  <0>0        0.0461
      2  C8        10.3430   36.7270   61.1720 C.ar    0  <0>0        0.0144
      3  C9        11.0080   36.8430   62.3770 C.ar    0  <0>0        0.0028
      4  C10       11.7250   35.7730   62.8790 C.ar    0  <0>0        0.0176
      5  C11       11.7770   34.5780   62.1740 C.ar    0  <0>0        0.0653
      6  C12       11.1050   34.4560   60.9660 C.ar    0  <0>0        0.0318
      7  N1         9.7180   35.4170   59.2430 N.pl3   0  <0>0       -0.3340
      8  H14       10.0710   34.8410   58.5480 H       0  <0>0        0.1468
      9  C5         8.4790   36.1650   59.0170 C.3     0  <0>0        0.0690
     10  C6         7.2920   35.1990   59.0210 C.3     0  <0>0        0.0212
     11  C3         8.5530   36.8770   57.6640 C.3     0  <0>0        0.0179
     12  C4         8.5190   38.3900   57.8820 C.3     0  <0>0        0.0017
     13  C2         7.3590   36.4590   56.8030 C.3     0  <0>0        0.0016
     14  C1         7.7840   36.4080   55.3330 C.3     0  <0>0        0.0001
     15  N2        12.5040   33.4930   62.6850 N.ar    0  <0>0       -0.3035
     16  C16       13.8380   33.4950   62.9770 C.ar    0  <0>0        0.0802
     17  C15       14.1680   32.2760   63.4470 C.ar    0  <0>0        0.0205
     18  C14       12.9990   31.4880   63.4370 C.ar    0  <0>0        0.0205
     19  C13       11.9980   32.2570   62.9660 C.ar    0  <0>0        0.0802
@<TRIPOS>BOND
     1    14    13    1
     2    13    11    1
     3    11    12    1
     4    11     9    1
     5     8     7    1
     6     9    10    1
     7     9     7    1
     8     7     1    1
     9     1     6   ar
    10     1     2   ar
    11     6     5   ar
    12     2     3   ar
    13     5    15    1
    14     5     4   ar
    15     3     4   ar
    16    15    19   ar
    17    15    16   ar
    18    19    18   ar
    19    16    17   ar
    20    18    17   ar

@<TRIPOS>MOLECULE
ZINC66270058_replica-1.pdb
 22 24 0 0 0
SMALL
GASTEIGER

@<TRIPOS>ATOM
      1  C8        -0.8690   29.1260   54.5710 C.2     0  <0>0        0.1568
      2  N1        -0.0150   30.1090   54.7880 N.2     0  <0>0       -0.3945
      3  C9        -0.2080   30.8940   55.8380 C.2     0  <0>0        0.1741
      4  C10       -1.2810   30.6600   56.6570 C.3     0  <0>0        0.1281
      5  S1        -2.0120   29.3320   55.9260 S.3     0  <0>0       -0.0746
      6  C11        0.7190   32.0020   56.1220 C.2     0  <0>0        0.2773
      7  O1         0.2920   33.0610   56.5420 O.2     0  <0>0       -0.2673
      8  N2         2.0420   31.8440   55.9180 N.am    0  <0>0       -0.2587
      9  H9         2.3830   30.9990   55.5840 H       0  <0>0        0.1571
     10  C12        2.9170   32.8890   56.1860 C.ar    0  <0>0        0.1655
     11  S2         3.6650   33.2800   57.6420 S.2     0  <0>0       -0.0557
     12  C14        4.5750   34.7070   57.0770 C.ar    0  <0>0        0.0293
     13  C13        4.1960   34.7510   55.7760 C.ar    0  <0>0        0.1030
     14  C15        5.5050   35.6180   57.8380 C.3     0  <0>0        0.0399
     15  N3         3.3600   33.8160   55.3640 N.ar    0  <0>0       -0.2227
     16  C7        -0.8810   28.1220   53.4850 C.ar    0  <0>0        0.0316
     17  C2        -0.2470   26.8910   53.6620 C.ar    0  <0>0       -0.0189
     18  C1         0.4520   26.5820   54.9600 C.3     0  <0>0        0.0311
     19  C3        -0.2660   25.9570   52.6480 C.ar    0  <0>0       -0.0042
     20  C4        -0.9080   26.2390   51.4550 C.ar    0  <0>0       -0.0003
     21  C5        -1.5330   27.4600   51.2710 C.ar    0  <0>0        0.0001
     22  C6        -1.5210   28.4030   52.2770 C.ar    0  <0>0        0.0027
@<TRIPOS>BOND
     1    21    20   ar
     2    21    22   ar
     3    20    19   ar
     4    22    16   ar
     5    19    17   ar
     6    16    17   ar
     7    16     1    1
     8    17    18    1
     9     1     2    2
    10     1     5    1
    11     2     3    2
    12    15    13   ar
    13    15    10   ar
    14     9     8    1
    15    13    12   ar
    16     3     6    1
    17     3     4    1
    18     8     6   am
    19     8    10    1
    20     5     4    1
    21     6     7    2
    22    10    11   ar
    23    12    11   ar
    24    12    14    1

@<TRIPOS>MOLECULE
ZINC49373403_replica-1.pdb
 20 22 0 0 0
SMALL
GASTEIGER

@<TRIPOS>ATOM
      1  C8         9.8930   35.7320   60.6870 C.1     0  <0>0        0.1490
      2  N1        10.5490   34.5980   60.9420 N.2     0  <0>0       -0.3093
      3  C9        11.4780   34.8110   61.8510 C.2     0  <0>0        0.3172
      4  O2        11.4300   36.1100   62.1960 O.2     0  <0>0       -0.3111
      5  N2        10.3900   36.6880   61.4190 N.2     0  <0>0       -0.0076
      6  C7         8.7620   35.8840   59.7040 C.3     0  <0>0        0.3191
      7  O1         9.2720   35.7940   58.3720 O.3     0  <0>0       -0.4577
      8  C4         8.3620   35.6850   57.3680 C.ar    0  <0>0        0.1523
      9  C3         7.8610   34.4390   57.0150 C.ar    0  <0>0        0.0690
     10  C2         6.9360   34.3320   55.9960 C.ar    0  <0>0        0.0098
     11 Br          8.4440   32.8910   57.9320 Br      0  <0>0       -0.0458
     12  C1         6.5080   35.4630   55.3250 C.ar    0  <0>0        0.0012
     13  C6         7.0050   36.7050   55.6740 C.ar    0  <0>0        0.0098
     14  C5         7.9320   36.8190   56.6940 C.ar    0  <0>0        0.0690
     15 Br          8.6120   38.5180   57.1690 Br      0  <0>0       -0.0458
     16  C10       12.4070   33.8040   62.3930 C.ar    0  <0>0        0.0762
     17  C13       11.9600   32.6020   62.8620 C.ar    0  <0>0        0.0413
     18  S1        13.3500   31.8080   63.3620 S.2     0  <0>0       -0.0857
     19  C12       14.5690   33.0480   62.9760 C.ar    0  <0>0        0.0357
     20  C11       13.8270   34.0490   62.4570 C.ar    0  <0>0        0.0134
@<TRIPOS>BOND
     1    12    13   ar
     2    12    10   ar
     3    13    14   ar
     4    10     9   ar
     5    14    15    1
     6    14     8   ar
     7     9     8   ar
     8     9    11    1
     9     8     7    1
    10     7     6    1
    11     6     1    1
    12     1     2    2
    13     1     5    2
    14     2     3    2
    15     5     4    1
    16     3     4    1
    17     3    16    1
    18    16    20   ar
    19    16    17   ar
    20    20    19   ar
    21    17    18   ar
    22    19    18   ar

@<TRIPOS>MOLECULE
ZINC27979422_replica-1.pdb
 22 24 0 0 0
SMALL
GASTEIGER

@<TRIPOS>ATOM
      1  C1         0.6550   25.3600   54.4250 C.3     0  <0>0        0.0322
      2  C2        -0.1370   26.3380   53.5950 C.ar    0  <0>0       -0.0088
      3  C3        -0.6080   26.1350   52.3550 C.ar    0  <0>0        0.0335
      4  N1        -1.2780   27.2480   51.9230 N.ar    0  <0>0       -0.3289
      5  C4        -1.2540   28.2190   52.8950 C.ar    0  <0>0        0.0594
      6  C5        -0.5380   27.6920   53.9880 C.ar    0  <0>0        0.0131
      7  C6        -0.3490   28.4620   55.1320 C.ar    0  <0>0        0.0057
      8  C7        -0.8750   29.7500   55.1840 C.ar    0  <0>0        0.0538
      9  C8        -1.5910   30.2600   54.0910 C.ar    0  <0>0        0.0060
     10  C9        -1.7710   29.5100   52.9670 C.ar    0  <0>0        0.0173
     11  C14       -1.9240   27.3840   50.6150 C.3     0  <0>0        0.1301
     12  C15       -0.4270   24.8700   51.5580 C.3     0  <0>0        0.0497
     13  C10       -0.6840   30.5780   56.3910 C.2     0  <0>0        0.2509
     14  O1        -1.5410   31.3730   56.7250 O.2     0  <0>0       -0.2698
     15  N2         0.4410   30.4520   57.1230 N.am    0  <0>0       -0.2606
     16  H7         1.2160   29.7320   56.8220 H       0  <0>0        0.1571
     17  C11        0.6210   31.2310   58.2600 C.ar    0  <0>0        0.1663
     18  S1         0.1410   30.9020   59.8950 S.2     0  <0>0       -0.0445
     19  C13        0.7690   32.4060   60.6290 C.ar    0  <0>0        0.0855
     20  C12        1.2900   33.0200   59.5380 C.ar    0  <0>0        0.1141
     21 Br          0.7190   32.9810   62.4290 Br      0  <0>0       -0.0402
     22  N3         1.2010   32.4100   58.3710 N.ar    0  <0>0       -0.2218
@<TRIPOS>BOND
     1    11     4    1
     2    12     3    1
     3     4     3   ar
     4     4     5   ar
     5     3     2   ar
     6     5    10   ar
     7     5     6   ar
     8    10     9   ar
     9     2     6   ar
    10     2     1    1
    11     6     7   ar
    12     9     8   ar
    13     7     8   ar
    14     8    13    1
    15    13    14    2
    16    13    15   am
    17    16    15    1
    18    15    17    1
    19    17    22   ar
    20    17    18   ar
    21    22    20   ar
    22    20    19   ar
    23    18    19   ar
    24    19    21    1

@<TRIPOS>MOLECULE
ZINC00152456_replica-1.pdb
 21 24 0 0 0
SMALL
GASTEIGER

@<TRIPOS>ATOM
      1  C1         6.2950   36.7470   58.4620 C.3     0  <0>0        0.0169
      2  C2         7.7300   36.8830   57.9480 C.3     0  <0>0        0.0782
      3  C3         8.6820   36.3210   58.9680 C.2     0  <0>0        0.0383
      4  C4         9.2910   37.1930   59.8590 C.2     0  <0>0        0.1110
      5  N1        10.1270   36.7160   60.7670 N.2     0  <0>0       -0.1677
      6  C5        10.3880   35.4200   60.8330 C.1     0  <0>0        0.1651
      7  N2         9.8310   34.5570   60.0040 N.2     0  <0>0       -0.3356
      8  C6         8.9750   34.9660   59.0590 C.2     0  <0>0        0.1430
      9  C7         8.3890   33.9480   58.1630 C.ar    0  <0>0        0.0368
     10  C8         8.3450   32.6140   58.5770 C.ar    0  <0>0        0.0144
     11  C9         7.8070   31.6520   57.7480 C.ar    0  <0>0        0.0578
     12  C10        7.3080   31.9960   56.5020 C.ar    0  <0>0        0.0119
     13  C11        7.3420   33.3110   56.0790 C.ar    0  <0>0        0.0071
     14  C12        7.8770   34.2880   56.9060 C.ar    0  <0>0        0.0280
     15  S1         7.9110   35.9720   56.3850 S.3     0  <0>0       -0.1099
     16 Cl          7.7550   29.9970   58.2700 Cl      0  <0>0       -0.0822
     17  N3        11.2740   34.9550   61.8030 N.ar    0  <0>0       -0.2387
     18  C13       11.6330   33.6490   61.9950 C.ar    0  <0>0        0.0914
     19  C14       12.5060   33.5990   63.0210 C.ar    0  <0>0        0.0213
     20  C15       12.6880   34.9180   63.4870 C.ar    0  <0>0        0.0213
     21  C16       11.9250   35.7270   62.7250 C.ar    0  <0>0        0.0914
@<TRIPOS>BOND
     1    13    12   ar
     2    13    14   ar
     3    15    14    1
     4    15     2    1
     5    12    11   ar
     6    14     9   ar
     7    11    16    1
     8    11    10   ar
     9     2     1    1
    10     2     3    1
    11     9    10   ar
    12     9     8    1
    13     3     8    1
    14     3     4    2
    15     8     7    2
    16     4     5    1
    17     7     6    2
    18     5     6    2
    19     6    17    1
    20    17    18   ar
    21    17    21   ar
    22    18    19   ar
    23    21    20   ar
    24    19    20   ar

@<TRIPOS>MOLECULE
ZINC34994355_replica-1.pdb
 21 23 0 0 0
SMALL
GASTEIGER

@<TRIPOS>ATOM
      1  C7        -0.8210   29.0180   53.8520 C.ar    0  <0>0        0.0291
      2  C8        -1.4980   30.2000   53.7200 C.ar    0  <0>0        0.0066
      3  C9        -1.2770   31.1970   54.6440 C.ar    0  <0>0        0.0006
      4  C10       -0.3970   30.9780   55.6560 C.ar    0  <0>0       -0.0142
      5  S1         0.1500   29.3120   55.3210 S.2     0  <0>0       -0.0934
      6  C11        0.0090   31.9020   56.7740 C.3     0  <0>0       -0.0469
      7  N1         0.3900   33.2070   56.2180 N.4     0  <0>0        0.3916
      8  H10        0.8020   33.0760   55.3050 H       0  <0>0       -0.0834
      9  H16       -0.4300   33.7900   56.1370 H       0  <0>0       -0.0834
     10  C12        1.3650   33.8530   57.1070 C.3     0  <0>0       -0.0148
     11  C13        2.4820   34.4420   56.2840 C.ar    0  <0>0        0.1017
     12  O1         3.2080   33.7870   55.3630 O.2     0  <0>0       -0.4568
     13  C16        4.1110   34.6230   54.8260 C.ar    0  <0>0        0.1790
     14  C15        3.9750   35.8270   55.4120 C.ar    0  <0>0        0.0434
     15  C14        2.9250   35.7090   56.3520 C.ar    0  <0>0        0.0340
     16  C4        -0.8820   27.8080   53.0030 C.ar    0  <0>0        0.0060
     17  C3        -0.2290   26.6400   53.3980 C.ar    0  <0>0        0.0005
     18  C2        -0.2920   25.5160   52.6010 C.ar    0  <0>0        0.0000
     19  C1        -0.9990   25.5450   51.4130 C.ar    0  <0>0        0.0000
     20  C6        -1.6490   26.6990   51.0150 C.ar    0  <0>0        0.0000
     21  C5        -1.5950   27.8310   51.8020 C.ar    0  <0>0        0.0005
@<TRIPOS>BOND
     1    20    19   ar
     2    20    21   ar
     3    19    18   ar
     4    21    16   ar
     5    18    17   ar
     6    16    17   ar
     7    16     1    1
     8     2     1   ar
     9     2     3   ar
    10     1     5   ar
    11     3     4   ar
    12    13    12   ar
    13    13    14   ar
    14     8     7    1
    15     5     4   ar
    16    12    11   ar
    17    14    15   ar
    18     4     6    1
    19     9     7    1
    20     7     6    1
    21     7    10    1
    22    11    15   ar
    23    11    10    1

@<TRIPOS>MOLECULE
ZINC60726098_replica-1.pdb
 21 23 0 0 0
SMALL
GASTEIGER

@<TRIPOS>ATOM
      1  C1        -1.7160   27.3830   50.8320 C.ar    0  <0>0        0.0029
      2  C2        -0.9250   26.5900   51.6410 C.ar    0  <0>0       -0.0028
      3  C3        -0.6300   26.9840   52.9360 C.ar    0  <0>0       -0.0043
      4  C4        -1.1300   28.1820   53.4170 C.ar    0  <0>0        0.0984
      5  C5        -1.9290   28.9820   52.6010 C.ar    0  <0>0        0.1481
      6  C6        -2.2190   28.5790   51.3090 C.ar    0  <0>0        0.0379
      7  N1        -0.8400   28.6100   54.7200 N.pl3   0  <0>0       -0.1875
      8  C7        -0.2580   27.6510   55.6690 C.3     0  <0>0        0.1163
      9  C8         0.8510   26.8840   54.9390 C.3     0  <0>0        0.0281
     10  C9         0.2300   26.0900   53.7910 C.3     0  <0>0        0.0296
     11  S1        -1.1470   30.1700   55.1820 S.O2    0  <0>0        0.0824
     12  O2        -0.4520   31.0090   54.2700 O.2     0  <0>0       -0.1492
     13  O3        -2.5500   30.2640   55.3870 O.2     0  <0>0       -0.1492
     14  C10       -0.3910   30.4050   56.7570 C.ar    0  <0>0        0.1553
     15  S2         1.1030   31.2950   57.1660 S.2     0  <0>0       -0.0602
     16  C13        1.0890   31.0120   58.9280 C.ar    0  <0>0        0.0651
     17  C12       -0.0310   30.2630   59.0840 C.ar    0  <0>0        0.0152
     18 Br          2.3220   31.5970   60.2380 Br      0  <0>0       -0.0419
     19  C11       -0.7890   29.9530   57.9700 C.ar    0  <0>0        0.0279
     20  O1        -2.4240   30.1580   53.0750 O.3     0  <0>0       -0.5042
     21  H4        -3.1160   30.5450   52.5220 H       0  <0>0        0.2922
@<TRIPOS>BOND
     1     1     6   ar
     2     1     2   ar
     3     6     5   ar
     4     2     3   ar
     5    21    20    1
     6     5    20    1
     7     5     4   ar
     8     3     4   ar
     9     3    10    1
    10     4     7    1
    11    10     9    1
    12    12    11    2
    13     7    11    1
    14     7     8    1
    15     9     8    1
    16    11    13    2
    17    11    14    1
    18    14    15   ar
    19    14    19   ar
    20    15    16   ar
    21    19    17   ar
    22    16    17   ar
    23    16    18    1

@<TRIPOS>MOLECULE
ZINC08296477_replica-1.pdb
 15 16 0 0 0
SMALL
GASTEIGER

@<TRIPOS>ATOM
      1  C7        -0.0750   28.4050   54.2400 C.3     0  <0>0        0.1474
      2  C5        -0.5020   27.4400   53.1640 C.ar    0  <0>0        0.0103
      3  C4        -0.1440   26.1060   53.2500 C.ar    0  <0>0        0.0554
      4  C3        -0.5400   25.2200   52.2640 C.ar    0  <0>0        0.0111
      5 Cl          0.7950   25.5450   54.5970 Cl      0  <0>0       -0.0825
      6  C2        -1.2830   25.6690   51.1890 C.ar    0  <0>0        0.0008
      7  C1        -1.6360   27.0020   51.1010 C.ar    0  <0>0       -0.0002
      8  C6        -1.2450   27.8880   52.0880 C.ar    0  <0>0       -0.0017
      9  N1        -1.0590   28.3910   55.3260 N.pl3   0  <0>0       -0.1648
     10  N3        -1.0200   27.5990   56.4860 N.2     0  <0>0       -0.1026
     11  C9        -2.0840   27.8990   57.1840 C.1     0  <0>0        0.1404
     12  N2        -2.7830   28.8270   56.5310 N.2     0  <0>0       -0.3192
     13 Br         -2.5560   27.1370   58.8490 Br      0  <0>0        0.0498
     14  C8        -2.1740   29.1370   55.4140 C.2     0  <0>0        0.2496
     15 Br         -2.7630   30.4070   54.1430 Br      0  <0>0        0.0063
@<TRIPOS>BOND
     1     7     6   ar
     2     7     8   ar
     3     6     4   ar
     4     8     2   ar
     5     4     3   ar
     6     2     3   ar
     7     2     1    1
     8     3     5    1
     9    15    14    1
    10     1     9    1
    11     9    14    1
    12     9    10    1
    13    14    12    2
    14    10    11    2
    15    12    11    2
    16    11    13    1

@<TRIPOS>MOLECULE
ZINC14103791_replica-1.pdb
 20 22 0 0 0
SMALL
GASTEIGER

@<TRIPOS>ATOM
      1  C7        -0.9240   29.0630   53.9630 C.2     0  <0>0        0.1225
      2  C8        -2.0860   29.6510   54.3750 C.3     0  <0>0        0.1247
      3  S1        -1.4480   30.9530   55.4230 S.3     0  <0>0       -0.0597
      4  C9         0.2870   30.5850   55.2090 C.2     0  <0>0        0.2074
      5  N1         0.2390   29.5480   54.3930 N.2     0  <0>0       -0.3846
      6  N2         1.3910   31.2200   55.7540 N.pl3   0  <0>0       -0.3031
      7  H7         2.2810   30.8690   55.5950 H       0  <0>0        0.1496
      8  C10        1.2140   32.4240   56.5700 C.3     0  <0>0        0.0948
      9  C11        2.5530   32.8130   57.2020 C.3     0  <0>0        0.0542
     10  C12        3.1200   34.0090   56.4800 C.ar    0  <0>0        0.0090
     11  S2         3.2580   35.6980   57.0400 S.2     0  <0>0       -0.0907
     12  C15        4.0220   36.3850   55.5800 C.ar    0  <0>0        0.0351
     13  C14        4.1180   35.2980   54.7760 C.ar    0  <0>0        0.0072
     14  C13        3.6610   34.0780   55.2400 C.ar    0  <0>0        0.0027
     15  C4        -0.9580   27.8980   53.0470 C.ar    0  <0>0        0.0264
     16  C3        -0.2890   26.7230   53.3850 C.ar    0  <0>0        0.0022
     17  C2        -0.3250   25.6410   52.5290 C.ar    0  <0>0        0.0001
     18  C1        -1.0230   25.7210   51.3370 C.ar    0  <0>0        0.0000
     19  C6        -1.6890   26.8850   50.9960 C.ar    0  <0>0        0.0001
     20  C5        -1.6640   27.9710   51.8480 C.ar    0  <0>0        0.0022
@<TRIPOS>BOND
     1    19    18   ar
     2    19    20   ar
     3    18    17   ar
     4    20    15   ar
     5    17    16   ar
     6    15    16   ar
     7    15     1    1
     8     1     2    1
     9     1     5    2
    10     2     3    1
    11     5     4    2
    12    13    14   ar
    13    13    12   ar
    14     4     3    1
    15     4     6    1
    16    14    10   ar
    17    12    11   ar
    18     7     6    1
    19     6     8    1
    20    10    11   ar
    21    10     9    1
    22     8     9    1

@<TRIPOS>MOLECULE
ZINC59343611_replica-1.pdb
 19 19 0 0 0
SMALL
GASTEIGER

@<TRIPOS>ATOM
      1  C7        10.8360   35.4870   61.1970 C.ar    0  <0>0        0.1885
      2  N2        10.1520   36.5930   61.4400 N.ar    0  <0>0       -0.1248
      3  N3         9.2620   37.0160   60.6530 N.ar    0  <0>0       -0.1332
      4  C8         8.9570   36.3780   59.5330 C.ar    0  <0>0        0.1606
      5  S1        10.1040   35.0060   59.6350 S.2     0  <0>0       -0.0242
      6  N1        11.8410   34.8740   61.9400 N.am    0  <0>0       -0.2627
      7  C6        11.6980   33.5940   62.3410 C.2     0  <0>0        0.2271
      8  O1        10.6950   32.9770   62.0520 O.2     0  <0>0       -0.2747
      9  H13       12.6430   35.3680   62.1710 H       0  <0>0        0.1568
     10  C4        12.7860   32.9310   63.1460 C.3     0  <0>0        0.0769
     11  C5        14.1500   33.4500   62.6850 C.3     0  <0>0        0.0096
     12  C3        12.7220   31.4170   62.9410 C.3     0  <0>0        0.0091
     13  C2        12.5040   30.7280   64.2900 C.3     0  <0>0        0.0005
     14  C1        12.2470   29.2360   64.0650 C.3     0  <0>0        0.0000
     15  S2         7.7670   36.7700   58.2940 S.3     0  <0>0       -0.0875
     16  C9         8.3340   35.8550   56.8350 C.3     0  <0>0        0.0539
     17  C10        7.6470   34.4880   56.7910 C.3     0  <0>0        0.0121
     18  C11        7.9850   36.6410   55.5700 C.3     0  <0>0        0.0112
     19  C12        7.3140   37.9600   55.9600 C.3     0  <0>0        0.0009
@<TRIPOS>BOND
     1    18    19    1
     2    18    16    1
     3    17    16    1
     4    16    15    1
     5    15     4    1
     6     4     5   ar
     7     4     3   ar
     8     5     1   ar
     9     3     2   ar
    10     1     2   ar
    11     1     6    1
    12     6     9    1
    13     6     7   am
    14     8     7    2
    15     7    10    1
    16    11    10    1
    17    12    10    1
    18    12    13    1
    19    14    13    1

@<TRIPOS>MOLECULE
ZINC50358967_replica-1.pdb
 18 19 0 0 0
SMALL
GASTEIGER

@<TRIPOS>ATOM
      1  C3         8.7080   36.1380   59.0590 C.3     0  <0>0        0.1247
      2  C4         8.8870   34.7890   58.9440 C.2     0  <0>0        0.0971
      3  N1         9.7290   34.1550   59.7530 N.2     0  <0>0       -0.3918
      4  C5        10.4100   34.8050   60.6830 C.2     0  <0>0        0.2197
      5  N2        10.2710   36.1550   60.8430 N.am    0  <0>0       -0.2567
      6  H1        10.7770   36.6190   61.5280 H       0  <0>0        0.1573
      7  C6         9.4300   36.8410   60.0400 C.2     0  <0>0        0.2339
      8  O1         9.2960   38.0480   60.1650 O.2     0  <0>0       -0.2743
      9  C11        8.1270   34.0170   57.8960 C.3     0  <0>0        0.0620
     10  C7        11.3270   34.0650   61.5530 C.ar    0  <0>0        0.1903
     11  O2        11.1120   32.8360   62.0690 O.2     0  <0>0       -0.4425
     12  C10       12.1660   32.4750   62.8130 C.ar    0  <0>0        0.1853
     13  C9        13.0750   33.4780   62.7940 C.ar    0  <0>0        0.0787
     14 Br         12.3520   30.8390   63.7420 Br      0  <0>0       -0.0073
     15  C8        12.5460   34.4990   61.9900 C.ar    0  <0>0        0.0518
     16 Br         14.7440   33.4990   63.6830 Br      0  <0>0       -0.0452
     17  C2         7.7540   36.8640   58.1440 C.3     0  <0>0        0.0159
     18  C1         8.5360   37.5000   56.9930 C.3     0  <0>0        0.0009
@<TRIPOS>BOND
     1    18    17    1
     2     9     2    1
     3    17     1    1
     4     2     1    1
     5     2     3    2
     6     1     7    1
     7     3     4    2
     8     7     8    2
     9     7     5   am
    10     4     5    1
    11     4    10    1
    12     5     6    1
    13    10    15   ar
    14    10    11   ar
    15    15    13   ar
    16    11    12   ar
    17    13    12   ar
    18    13    16    1
    19    12    14    1

