@<TRIPOS>MOLECULE
ZINC35667924_replica-1.pdb
 30 32 0 0 0
SMALL
GASTEIGER

@<TRIPOS>ATOM
      1  C9         5.8610   36.6310   58.3470 C.ar    0  <0>0        0.1390
      2  C10        5.9300   36.3370   56.9900 C.ar    0  <0>0        0.0366
      3  C11        4.9090   35.6440   56.3800 C.ar    0  <0>0       -0.0008
      4  C12        3.7980   35.2350   57.1290 C.ar    0  <0>0       -0.0161
      5  C13        3.7340   35.5350   58.4970 C.ar    0  <0>0       -0.0008
      6  C14        4.7630   36.2230   59.0970 C.ar    0  <0>0        0.0366
      7  C15        2.7060   34.4960   56.4850 C.3     0  <0>0        0.0743
      8  C16        2.6970   33.1390   56.5100 C.2     0  <0>0        0.1127
      9  C17        3.7030   32.4150   57.2890 C.2     0  <0>0        0.3973
     10  O2         4.7980   32.1700   56.7970 O.co2   0  <0>0       -0.2395
     11  O3         3.4500   32.0560   58.4320 O.co2   0  <0>0       -0.2395
     12  N1         1.7260   32.4320   55.7910 N.am    0  <0>0       -0.2783
     13  C18        0.5440   32.1340   56.3670 C.2     0  <0>0        0.2494
     14  O4         0.2790   32.5710   57.4700 O.2     0  <0>0       -0.2698
     15  H15        1.9030   32.1560   54.8780 H       0  <0>0        0.1551
     16  C19       -0.4290   31.2780   55.6580 C.ar    0  <0>0        0.0537
     17  C24       -0.0310   30.5440   54.5390 C.ar    0  <0>0        0.0045
     18  C23       -0.9430   29.7410   53.8840 C.ar    0  <0>0        0.0001
     19  C22       -2.2510   29.6730   54.3260 C.ar    0  <0>0        0.0000
     20  C21       -2.6540   30.4030   55.4310 C.ar    0  <0>0        0.0001
     21  C20       -1.7510   31.2040   56.0980 C.ar    0  <0>0        0.0045
     22  O1         6.8710   37.3150   58.9430 O.3     0  <0>0       -0.4707
     23  C8         8.1700   37.1880   58.3620 C.3     0  <0>0        0.2317
     24  C7         9.1050   36.5460   59.3560 C.ar    0  <0>0        0.0172
     25  C2         9.5600   35.2590   59.1450 C.ar    0  <0>0       -0.0223
     26  C1         9.1210   34.4950   57.9220 C.3     0  <0>0        0.0308
     27  C3        10.4200   34.6730   60.0540 C.ar    0  <0>0       -0.0045
     28  C4        10.8230   35.3730   61.1760 C.ar    0  <0>0       -0.0003
     29  C5        10.3640   36.6590   61.3900 C.ar    0  <0>0       -0.0002
     30  C6         9.5040   37.2450   60.4800 C.ar    0  <0>0       -0.0010
@<TRIPOS>BOND
     1    18    19   ar
     2    18    17   ar
     3    19    20   ar
     4    17    16   ar
     5    15    12    1
     6    20    21   ar
     7    16    21   ar
     8    16    13    1
     9    12    13   am
    10    12     8    2
    11    13    14    2
    12     3     2   ar
    13     3     4   ar
    14     7     8    1
    15     7     4    1
    16     8     9    1
    17    10     9   ar
    18     2     1   ar
    19     4     5   ar
    20     9    11   ar
    21    26    25    1
    22     1    22    1
    23     1     6   ar
    24    23    22    1
    25    23    24    1
    26     5     6   ar
    27    25    24   ar
    28    25    27   ar
    29    24    30   ar
    30    27    28   ar
    31    30    29   ar
    32    28    29   ar

@<TRIPOS>MOLECULE
ZINC27528599_replica-1.pdb
 28 30 0 0 0
SMALL
GASTEIGER

@<TRIPOS>ATOM
      1  C1         8.9580   37.9960   59.5450 C.ar    0  <0>0        0.0010
      2  C2         8.3850   37.2840   58.5070 C.ar    0  <0>0       -0.0025
      3  C3         8.6340   35.9300   58.3740 C.ar    0  <0>0       -0.0014
      4  C4         9.4610   35.2860   59.2740 C.ar    0  <0>0        0.0117
      5  C5        10.0330   35.9970   60.3200 C.ar    0  <0>0        0.0446
      6  C6         9.7810   37.3570   60.4530 C.ar    0  <0>0        0.0143
      7  N1        10.8650   35.3480   61.2360 N.pl3   0  <0>0       -0.3291
      8  H5        11.6760   35.9040   61.7310 H       0  <0>0        0.1471
      9  C7        10.6580   33.9300   61.5370 C.3     0  <0>0        0.1143
     10  C8        11.8820   33.3780   62.2220 C.ar    0  <0>0       -0.0010
     11  C13       11.8290   32.1450   62.8450 C.ar    0  <0>0        0.0215
     12  C12       12.9540   31.6370   63.4680 C.ar    0  <0>0        0.1426
     13  C11       14.1270   32.3670   63.4780 C.ar    0  <0>0        0.0241
     14  C10       14.1800   33.6000   62.8550 C.ar    0  <0>0        0.0014
     15  C9        13.0570   34.1060   62.2280 C.ar    0  <0>0       -0.0025
     16  N2        12.9000   30.3150   64.1290 N.pl3   0  <0>0        0.0577
     17  O1        12.9510   30.2380   65.3440 O.2     0  <0>0       -0.1261
     18  O2        12.8030   29.3010   63.4580 O.2     0  <0>0       -0.1261
     19  C14        8.0080   35.1580   57.2400 C.3     0  <0>0        0.1143
     20  N3         7.1300   36.0440   56.4720 N.pl3   0  <0>0       -0.3291
     21  H14        7.5610   36.7670   55.7640 H       0  <0>0        0.1471
     22  C15        5.7450   35.9710   56.6420 C.ar    0  <0>0        0.0449
     23  C20        4.8980   36.2990   55.5910 C.ar    0  <0>0        0.0148
     24  C19        3.5290   36.2260   55.7600 C.ar    0  <0>0        0.0080
     25  C18        3.0020   35.8270   56.9750 C.ar    0  <0>0        0.0346
     26  C17        3.8430   35.5000   58.0240 C.ar    0  <0>0        0.0080
     27 Br          1.1270   35.7290   57.2030 Br      0  <0>0       -0.0490
     28  C16        5.2130   35.5660   57.8590 C.ar    0  <0>0        0.0148
@<TRIPOS>BOND
     1    23    24   ar
     2    23    22   ar
     3    24    25   ar
     4    21    20    1
     5    20    22    1
     6    20    19    1
     7    22    28   ar
     8    25    27    1
     9    25    26   ar
    10    19     3    1
    11    28    26   ar
    12     3     2   ar
    13     3     4   ar
    14     2     1   ar
    15     4     5   ar
    16     1     6   ar
    17     5     6   ar
    18     5     7    1
    19     7     9    1
    20     7     8    1
    21     9    10    1
    22    10    15   ar
    23    10    11   ar
    24    15    14   ar
    25    11    12   ar
    26    14    13   ar
    27    18    16    2
    28    12    13   ar
    29    12    16    1
    30    16    17    2

@<TRIPOS>MOLECULE
ZINC27977620_replica-1.pdb
 25 27 0 0 0
SMALL
GASTEIGER

@<TRIPOS>ATOM
      1  N1         0.4650   30.4760   57.1520 N.am    0  <0>0       -0.2806
      2  C8        -0.6360   30.6660   56.3970 C.2     0  <0>0        0.2495
      3  O1        -1.4510   31.5110   56.7120 O.2     0  <0>0       -0.2698
      4  H7         1.2380   29.7640   56.8280 H       0  <0>0        0.1552
      5  C9        -0.8520   29.8460   55.1890 C.ar    0  <0>0        0.0538
      6  C14       -0.3230   28.5600   55.1170 C.ar    0  <0>0        0.0057
      7  C13       -0.5350   27.7970   53.9720 C.ar    0  <0>0        0.0131
      8  C12       -1.2780   28.3280   52.8990 C.ar    0  <0>0        0.0594
      9  C15       -0.1390   26.4470   53.5620 C.ar    0  <0>0       -0.0088
     10  C11       -1.7970   29.6170   52.9910 C.ar    0  <0>0        0.0173
     11  N2        -1.3210   27.3630   51.9210 N.ar    0  <0>0       -0.3289
     12  C10       -1.5940   30.3600   54.1170 C.ar    0  <0>0        0.0060
     13  C16       -0.6380   26.2500   52.3310 C.ar    0  <0>0        0.0335
     14  C17       -1.9980   27.5060   50.6300 C.3     0  <0>0        0.1301
     15  C18       -0.4720   24.9900   51.5220 C.3     0  <0>0        0.0497
     16  C19        0.6740   25.4660   54.3670 C.3     0  <0>0        0.0322
     17  C7         0.6250   31.1860   58.3480 C.ar    0  <0>0        0.0467
     18  C2         0.2880   30.5940   59.5580 C.ar    0  <0>0       -0.0054
     19  C1        -0.2500   29.1870   59.5830 C.3     0  <0>0        0.0324
     20  C3         0.4460   31.2940   60.7380 C.ar    0  <0>0        0.0339
     21  C4         0.9410   32.5900   60.7140 C.ar    0  <0>0        0.1385
     22  C5         1.2830   33.1810   59.5060 C.ar    0  <0>0        0.0382
     23  C6         1.1200   32.4830   58.3250 C.ar    0  <0>0        0.0175
     24  O2         1.0970   33.2790   61.8760 O.3     0  <0>0       -0.4714
     25  C20       -0.0180   33.3060   62.7680 C.3     0  <0>0        0.2525
@<TRIPOS>BOND
     1    14    11    1
     2    15    13    1
     3    11    13   ar
     4    11     8   ar
     5    13     9   ar
     6     8    10   ar
     7     8     7   ar
     8    10    12   ar
     9     9     7   ar
    10     9    16    1
    11     7     6   ar
    12    12     5   ar
    13     6     5   ar
    14     5     2    1
    15     2     3    2
    16     2     1   am
    17     4     1    1
    18     1    17    1
    19    23    17   ar
    20    23    22   ar
    21    17    18   ar
    22    22    21   ar
    23    18    19    1
    24    18    20   ar
    25    21    20   ar
    26    21    24    1
    27    24    25    1

@<TRIPOS>MOLECULE
ZINC05566089_replica-1.pdb
 27 29 0 0 0
SMALL
GASTEIGER

@<TRIPOS>ATOM
      1  C1        -2.3070   30.0390   53.3680 C.3     0  <0>0        0.0496
      2  C2        -0.9820   30.0270   54.0870 C.2     0  <0>0        0.0621
      3  N1        -0.4490   31.1300   54.4630 N.2     0  <0>0       -0.1895
      4  C9        -0.2860   28.7200   54.3640 C.3     0  <0>0        0.0820
      5  C10       -0.7640   28.1660   55.6820 C.ar    0  <0>0       -0.0131
      6  C15        0.0500   27.3150   56.4080 C.ar    0  <0>0       -0.0036
      7  C14       -0.3880   26.8070   57.6170 C.ar    0  <0>0       -0.0003
      8  C13       -1.6370   27.1500   58.1000 C.ar    0  <0>0       -0.0000
      9  C12       -2.4490   28.0000   57.3740 C.ar    0  <0>0       -0.0003
     10  C11       -2.0130   28.5080   56.1640 C.ar    0  <0>0       -0.0036
     11  C16       -0.6000   27.7400   53.2630 C.ar    0  <0>0       -0.0131
     12  C21       -0.1820   26.4270   53.3680 C.ar    0  <0>0       -0.0036
     13  C20       -0.4690   25.5270   52.3590 C.ar    0  <0>0       -0.0003
     14  C19       -1.1760   25.9410   51.2450 C.ar    0  <0>0       -0.0000
     15  C18       -1.5950   27.2540   51.1400 C.ar    0  <0>0       -0.0003
     16  C17       -1.3110   28.1520   52.1520 C.ar    0  <0>0       -0.0036
     17  N2         0.7120   31.1130   55.2460 N.pl3   0  <0>0       -0.2366
     18  H4         1.5300   30.7270   54.8950 H       0  <0>0        0.1744
     19  C3         0.6920   31.6510   56.5350 C.ar    0  <0>0        0.0651
     20  C8         0.7810   30.8150   57.6410 C.ar    0  <0>0        0.0177
     21  C7         0.7620   31.3520   58.9130 C.ar    0  <0>0        0.0254
     22  C6         0.6560   32.7200   59.0880 C.ar    0  <0>0        0.1430
     23  C5         0.5670   33.5550   57.9890 C.ar    0  <0>0        0.0254
     24  C4         0.5910   33.0260   56.7130 C.ar    0  <0>0        0.0177
     25  N3         0.6360   33.2910   60.4530 N.pl3   0  <0>0        0.0577
     26  O1         0.9640   32.6060   61.4040 O.2     0  <0>0       -0.1261
     27  O2         0.2900   34.4460   60.6240 O.2     0  <0>0       -0.1261
@<TRIPOS>BOND
     1    15    14   ar
     2    15    16   ar
     3    14    13   ar
     4    16    11   ar
     5    13    12   ar
     6    11    12   ar
     7    11     4    1
     8     1     2    1
     9     2     4    1
    10     2     3    2
    11     4     5    1
    12     3    17    1
    13    18    17    1
    14    17    19    1
    15     5    10   ar
    16     5     6   ar
    17    10     9   ar
    18     6     7   ar
    19    19    24   ar
    20    19    20   ar
    21    24    23   ar
    22     9     8   ar
    23     7     8   ar
    24    20    21   ar
    25    23    22   ar
    26    21    22   ar
    27    22    25    1
    28    25    27    2
    29    25    26    2

@<TRIPOS>MOLECULE
ZINC27500357_replica-1.pdb
 28 31 0 0 0
SMALL
GASTEIGER

@<TRIPOS>ATOM
      1  C8        10.5860   35.6550   61.1600 C.ar    0  <0>0        0.1390
      2  C9        10.4670   34.8580   60.0260 C.ar    0  <0>0        0.0366
      3  C10        9.7470   35.3000   58.9470 C.ar    0  <0>0       -0.0007
      4  C11        9.1420   36.5640   58.9820 C.ar    0  <0>0       -0.0147
      5  C12        9.2700   37.3660   60.1260 C.ar    0  <0>0       -0.0007
      6  C13        9.9870   36.9090   61.2020 C.ar    0  <0>0        0.0366
      7  C14        8.3770   37.0460   57.8290 C.3     0  <0>0        0.0922
      8  C15        7.0950   36.5860   57.6100 C.2     0  <0>0        0.1923
      9  N1         6.1890   36.1900   58.5490 N.2     0  <0>0       -0.3648
     10  C17        5.0880   35.8250   57.9520 C.2     0  <0>0        0.2843
     11  O3         5.1900   35.9410   56.6140 O.3     0  <0>0       -0.3911
     12  C16        6.4200   36.4120   56.3130 C.2     0  <0>0        0.3738
     13  O2         6.8710   36.6440   55.2070 O.2     0  <0>0       -0.2419
     14  C18        3.8830   35.3390   58.6540 C.ar    0  <0>0        0.0665
     15  C23        3.9810   34.2920   59.5720 C.ar    0  <0>0        0.0063
     16  C22        2.8530   33.8420   60.2240 C.ar    0  <0>0        0.0069
     17  C21        1.6240   34.4260   59.9690 C.ar    0  <0>0        0.0346
     18  C20        1.5180   35.4640   59.0590 C.ar    0  <0>0        0.0069
     19 Br          0.0800   33.8020   60.8670 Br      0  <0>0       -0.0490
     20  C19        2.6410   35.9280   58.4050 C.ar    0  <0>0        0.0063
     21  O1        11.2950   35.2090   62.2280 O.3     0  <0>0       -0.4706
     22  C7        12.5930   34.6710   61.9660 C.3     0  <0>0        0.2320
     23  C4        12.7330   33.3370   62.6550 C.ar    0  <0>0        0.0212
     24  C3        13.9570   32.9470   63.1640 C.ar    0  <0>0       -0.0007
     25  C2        14.0850   31.7230   63.7940 C.ar    0  <0>0       -0.0002
     26  C1        12.9900   30.8880   63.9120 C.ar    0  <0>0       -0.0000
     27  C6        11.7640   31.2800   63.4060 C.ar    0  <0>0       -0.0002
     28  C5        11.6360   32.5040   62.7760 C.ar    0  <0>0       -0.0007
@<TRIPOS>BOND
     1    13    12    2
     2    12    11    1
     3    12     8    1
     4    11    10    1
     5     8     7    1
     6     8     9    2
     7     7     4    1
     8    10     9    2
     9    10    14    1
    10    20    14   ar
    11    20    18   ar
    12    14    15   ar
    13     3     4   ar
    14     3     2   ar
    15     4     5   ar
    16    18    17   ar
    17    15    16   ar
    18    17    16   ar
    19    17    19    1
    20     2     1   ar
    21     5     6   ar
    22     1     6   ar
    23     1    21    1
    24    22    21    1
    25    22    23    1
    26    23    28   ar
    27    23    24   ar
    28    28    27   ar
    29    24    25   ar
    30    27    26   ar
    31    25    26   ar

@<TRIPOS>MOLECULE
ZINC27528921_replica-1.pdb
 32 35 0 0 0
SMALL
GASTEIGER

@<TRIPOS>ATOM
      1  C13        9.0010   36.3530   58.4460 C.ar    0  <0>0       -0.0204
      2  C14        9.6470   35.1410   58.6070 C.ar    0  <0>0       -0.0029
      3  C15       10.3150   34.8630   59.7830 C.ar    0  <0>0        0.0140
      4  C16       10.3290   35.7990   60.8100 C.ar    0  <0>0        0.0448
      5  C17        9.6740   37.0140   60.6480 C.ar    0  <0>0        0.0140
      6  C18        9.0130   37.2870   59.4660 C.ar    0  <0>0       -0.0029
      7  C12        8.2780   36.6560   57.1600 C.3     0  <0>0        0.0475
      8  C11        6.8290   37.0400   57.4660 C.3     0  <0>0        0.0918
      9  N1         5.9470   35.9130   57.1520 N.pl3   0  <0>0       -0.3324
     10  H8         5.8700   35.5470   56.1170 H       0  <0>0        0.1468
     11  C10        5.2090   35.3030   58.1630 C.ar    0  <0>0        0.0446
     12  C4         3.7980   35.3430   58.1380 C.ar    0  <0>0        0.0131
     13  C3         3.1060   35.9910   57.1030 C.ar    0  <0>0        0.0012
     14  C5         3.0680   34.7170   59.1770 C.ar    0  <0>0        0.0012
     15  C2         1.7440   36.0100   57.1110 C.ar    0  <0>0        0.0000
     16  C1         1.0250   35.3940   58.1320 C.ar    0  <0>0        0.0000
     17  C6         1.6630   34.7570   59.1520 C.ar    0  <0>0        0.0000
     18  C7         3.7580   34.0690   60.2150 C.ar    0  <0>0        0.0001
     19  C8         5.1210   34.0460   60.2140 C.ar    0  <0>0        0.0013
     20  C9         5.8490   34.6620   59.2020 C.ar    0  <0>0        0.0143
     21  N2        10.9980   35.5190   62.0030 N.pl3   0  <0>0       -0.3291
     22  H17       10.4850   35.6540   62.9670 H       0  <0>0        0.1471
     23  C19       12.3840   35.0450   61.9720 C.3     0  <0>0        0.1143
     24  C20       12.4580   33.6670   62.5750 C.ar    0  <0>0       -0.0025
     25  C25       13.6730   33.1610   62.9990 C.ar    0  <0>0       -0.0009
     26  C24       13.7410   31.8960   63.5520 C.ar    0  <0>0        0.0238
     27  C23       12.5930   31.1370   63.6820 C.ar    0  <0>0        0.1429
     28  C22       11.3780   31.6420   63.2590 C.ar    0  <0>0        0.0238
     29  C21       11.3100   32.9090   62.7100 C.ar    0  <0>0       -0.0009
     30  N3        12.6660   29.7820   64.2740 N.pl3   0  <0>0        0.0577
     31  O1        12.7970   29.6490   65.4770 O.2     0  <0>0       -0.1261
     32  O2        12.5930   28.7990   63.5570 O.2     0  <0>0       -0.1261
@<TRIPOS>BOND
     1    10     9    1
     2    13    15   ar
     3    13    12   ar
     4    15    16   ar
     5     9     8    1
     6     9    11    1
     7     7     8    1
     8     7     1    1
     9    16    17   ar
    10    12    11   ar
    11    12    14   ar
    12    11    20   ar
    13     1     2   ar
    14     1     6   ar
    15     2     3   ar
    16    17    14   ar
    17    14    18   ar
    18    20    19   ar
    19     6     5   ar
    20     3     4   ar
    21    19    18   ar
    22     5     4   ar
    23     4    21    1
    24    23    21    1
    25    23    24    1
    26    21    22    1
    27    24    29   ar
    28    24    25   ar
    29    29    28   ar
    30    25    26   ar
    31    28    27   ar
    32    26    27   ar
    33    32    30    2
    34    27    30    1
    35    30    31    2

@<TRIPOS>MOLECULE
ZINC09676135_replica-1.pdb
 31 35 0 0 0
SMALL
GASTEIGER

@<TRIPOS>ATOM
      1  C9        10.6930   33.4030   61.5540 C.ar    0  <0>0        0.1042
      2  C10       10.0860   34.6360   61.0510 C.ar    0  <0>0        0.0562
      3  C11       10.4640   35.9900   61.0580 C.ar    0  <0>0        0.1019
      4  N1         9.7050   36.9080   60.5180 N.ar    0  <0>0       -0.2414
      5  C12        8.5330   36.6160   59.9330 C.ar    0  <0>0        0.1102
      6  C13        8.0730   35.2780   59.8790 C.ar    0  <0>0        0.0399
      7  C14        8.8720   34.2620   60.4540 C.ar    0  <0>0        0.0873
      8  N2         8.7560   32.9110   60.5880 N.ar    0  <0>0       -0.2296
      9  N3         9.8780   32.4150   61.2620 N.ar    0  <0>0       -0.1651
     10  C21        6.8510   34.9880   59.2650 C.ar    0  <0>0        0.0328
     11  C22        6.1080   35.9980   58.7200 C.ar    0  <0>0        0.1425
     12  C23        6.5560   37.3160   58.7700 C.ar    0  <0>0        0.0608
     13  C24        7.7440   37.6300   59.3630 C.ar    0  <0>0        0.1599
     14  F2         8.1620   38.9140   59.4010 F       0  <0>0       -0.2025
     15  F3         4.9280   35.7150   58.1270 F       0  <0>0       -0.2041
     16  C6        11.9880   33.2890   62.2660 C.ar    0  <0>0        0.0196
     17  C5        12.2890   32.1380   62.9920 C.ar    0  <0>0        0.0047
     18  C4        13.4950   32.0360   63.6520 C.ar    0  <0>0        0.0369
     19  C3        14.4090   33.0790   63.5940 C.ar    0  <0>0        0.1386
     20  C8        14.1140   34.2270   62.8730 C.ar    0  <0>0        0.0369
     21  C7        12.9110   34.3340   62.2060 C.ar    0  <0>0        0.0047
     22  O1        15.5980   32.9760   64.2460 O.3     0  <0>0       -0.4755
     23  C2        16.0370   34.1200   64.9800 C.3     0  <0>0        0.2055
     24  C1        17.4180   34.5480   64.4780 C.3     0  <0>0        0.0512
     25  C15        7.6860   32.1390   60.1210 C.ar    0  <0>0        0.0829
     26  C20        7.7410   31.5680   58.8560 C.ar    0  <0>0        0.0215
     27  C19        6.6840   30.8070   58.3960 C.ar    0  <0>0        0.0312
     28  C18        5.5700   30.6120   59.1950 C.ar    0  <0>0        0.1402
     29  C17        5.5130   31.1800   60.4580 C.ar    0  <0>0        0.0312
     30  F1         4.5370   29.8670   58.7440 F       0  <0>0       -0.2042
     31  C16        6.5700   31.9380   60.9230 C.ar    0  <0>0        0.0215
@<TRIPOS>BOND
     1    15    11    1
     2    27    26   ar
     3    27    28   ar
     4    11    12   ar
     5    11    10   ar
     6    30    28    1
     7    12    13   ar
     8    26    25   ar
     9    28    29   ar
    10    10     6   ar
    11    13    14    1
    12    13     5   ar
    13     6     5   ar
    14     6     7   ar
    15     5     4   ar
    16    25     8    1
    17    25    31   ar
    18     7     8   ar
    19     7     2   ar
    20    29    31   ar
    21     4     3   ar
    22     8     9   ar
    23     2     3   ar
    24     2     1   ar
    25     9     1   ar
    26     1    16    1
    27    21    16   ar
    28    21    20   ar
    29    16    17   ar
    30    20    19   ar
    31    17    18   ar
    32    19    18   ar
    33    19    22    1
    34    22    23    1
    35    24    23    1

@<TRIPOS>MOLECULE
ZINC22996505_replica-1.pdb
 23 25 0 0 0
SMALL
GASTEIGER

@<TRIPOS>ATOM
      1  C7        10.9400   34.8410   61.4080 C.1     0  <0>0        0.0874
      2  N1        10.9210   36.0940   61.8410 N.2     0  <0>0       -0.1822
      3  C8        10.1230   36.9920   61.2890 C.2     0  <0>0        0.1132
      4  C9         9.2960   36.6130   60.2440 C.2     0  <0>0        0.0560
      5  C10        9.3380   35.2860   59.8100 C.2     0  <0>0        0.1627
      6  N2        10.1700   34.4370   60.4090 N.2     0  <0>0       -0.3488
      7  C11        8.4730   34.8300   58.6940 C.ar    0  <0>0        0.1222
      8  N3         8.9010   34.9370   57.4440 N.ar    0  <0>0       -0.2404
      9  C15        8.1670   34.5390   56.4260 C.ar    0  <0>0        0.1028
     10  C14        6.9070   34.0020   56.6240 C.ar    0  <0>0        0.0914
     11  C13        6.4180   33.8770   57.9150 C.ar    0  <0>0        0.0184
     12  C12        7.2140   34.2990   58.9690 C.ar    0  <0>0        0.0778
     13 Cl          6.6510   34.1660   60.6050 Cl      0  <0>0       -0.0806
     14  C16        6.0770   33.5570   55.4480 C.3     0  <0>0        0.4200
     15  F1         6.7470   32.5360   54.7640 F       0  <0>0       -0.1658
     16  F2         4.8420   33.0820   55.9020 F       0  <0>0       -0.1658
     17  F3         5.8720   34.6390   54.5860 F       0  <0>0       -0.1658
     18  C4        11.8520   33.8660   62.0570 C.ar    0  <0>0        0.0740
     19  C3        13.2060   34.1660   62.2030 C.ar    0  <0>0        0.0110
     20  C2        14.0500   33.2560   62.8060 C.ar    0  <0>0        0.0007
     21  C1        13.5540   32.0500   63.2670 C.ar    0  <0>0        0.0000
     22  C6        12.2120   31.7470   63.1260 C.ar    0  <0>0        0.0007
     23  C5        11.3580   32.6500   62.5220 C.ar    0  <0>0        0.0110
@<TRIPOS>BOND
     1    17    14    1
     2    15    14    1
     3    14    16    1
     4    14    10    1
     5     9    10   ar
     6     9     8   ar
     7    10    11   ar
     8     8     7   ar
     9    11    12   ar
    10     7    12   ar
    11     7     5    1
    12    12    13    1
    13     5     4    1
    14     5     6    2
    15     4     3    2
    16     6     1    2
    17     3     2    1
    18     1     2    2
    19     1    18    1
    20    18    19   ar
    21    18    23   ar
    22    19    20   ar
    23    23    22   ar
    24    20    21   ar
    25    22    21   ar

@<TRIPOS>MOLECULE
ZINC12903088_replica-1.pdb
 30 32 0 0 0
SMALL
GASTEIGER

@<TRIPOS>ATOM
      1  N1         8.9220   36.5330   59.0040 N.am    0  <0>0       -0.2986
      2  C14        8.3360   37.7450   58.9500 C.2     0  <0>0        0.2238
      3  O1         7.6000   38.1030   59.8440 O.2     0  <0>0       -0.2751
      4  H12        9.5120   36.2460   58.2890 H       0  <0>0        0.1500
      5  C7         8.6710   35.6480   60.1450 C.3     0  <0>0        0.1169
      6  C4         8.2560   34.2880   59.6440 C.ar    0  <0>0       -0.0003
      7  C3         7.3770   33.5190   60.3820 C.ar    0  <0>0       -0.0024
      8  C2         6.9960   32.2720   59.9220 C.ar    0  <0>0       -0.0003
      9  C1         7.4950   31.7950   58.7240 C.ar    0  <0>0       -0.0000
     10  C6         8.3740   32.5650   57.9860 C.ar    0  <0>0       -0.0003
     11  C5         8.7510   33.8140   58.4430 C.ar    0  <0>0       -0.0024
     12  C8         9.9270   35.5180   60.9670 C.ar    0  <0>0       -0.0003
     13  C13       10.6540   34.3420   60.9380 C.ar    0  <0>0       -0.0024
     14  C12       11.8070   34.2230   61.6910 C.ar    0  <0>0       -0.0003
     15  C11       12.2330   35.2790   62.4730 C.ar    0  <0>0       -0.0000
     16  C10       11.5080   36.4560   62.5020 C.ar    0  <0>0       -0.0003
     17  C9        10.3570   36.5770   61.7460 C.ar    0  <0>0       -0.0024
     18  C15        8.5940   38.6550   57.7770 C.3     0  <0>0        0.0967
     19  C16        8.5650   37.8400   56.4830 C.3     0  <0>0        0.0674
     20  S1         6.8450   37.5900   55.9650 S.3     0  <0>0       -0.1349
     21  C17        6.6800   35.7870   55.8480 C.3     0  <0>0        0.0837
     22  C18        5.7450   35.2970   56.9250 C.ar    0  <0>0       -0.0113
     23  C23        5.1790   34.0380   56.8240 C.ar    0  <0>0       -0.0032
     24  C22        4.3230   33.5830   57.8050 C.ar    0  <0>0        0.0063
     25  C21        4.0280   34.3960   58.9020 C.ar    0  <0>0        0.0798
     26  C20        4.6030   35.6650   58.9970 C.ar    0  <0>0        0.0063
     27  C19        5.4620   36.1050   58.0110 C.ar    0  <0>0       -0.0032
     28  C24        3.1130   33.9160   59.9560 C.2     0  <0>0        0.3878
     29  O2         3.5190   33.1620   60.8170 O.co2   0  <0>0       -0.2406
     30  O3         1.8250   34.3140   59.9650 O.co2   0  <0>0       -0.2406
@<TRIPOS>BOND
     1    21    20    1
     2    21    22    1
     3    20    19    1
     4    19    18    1
     5    23    22   ar
     6    23    24   ar
     7    22    27   ar
     8    18     2    1
     9    24    25   ar
    10    10    11   ar
    11    10     9   ar
    12    27    26   ar
    13     4     1    1
    14    11     6   ar
    15     9     8   ar
    16    25    26   ar
    17    25    28    1
    18     2     1   am
    19     2     3    2
    20     1     5    1
    21     6     5    1
    22     6     7   ar
    23     8     7   ar
    24    28    30   ar
    25    28    29   ar
    26     5    12    1
    27    13    12   ar
    28    13    14   ar
    29    12    17   ar
    30    14    15   ar
    31    17    16   ar
    32    15    16   ar

@<TRIPOS>MOLECULE
ZINC08626799_replica-1.pdb
 28 31 0 0 0
SMALL
GASTEIGER

@<TRIPOS>ATOM
      1  C1         1.7900   35.6140   59.2940 C.ar    0  <0>0        0.0209
      2  C2         2.9110   35.9660   58.5620 C.ar    0  <0>0        0.0094
      3  C3         3.6630   34.9460   57.9670 C.ar    0  <0>0        0.0903
      4  C4         3.2550   33.6110   58.1460 C.ar    0  <0>0        0.1163
      5  N1         2.1760   33.3320   58.8610 N.ar    0  <0>0       -0.2371
      6  C5         1.4520   34.2800   59.4250 C.ar    0  <0>0        0.0994
      7  C12        4.8630   35.2630   57.1730 C.2     0  <0>0        0.2863
      8  O2         4.9080   35.2450   55.8280 O.3     0  <0>0       -0.3910
      9  C21        6.1530   35.5880   55.4310 C.2     0  <0>0        0.3738
     10  C13        6.9060   35.8210   56.6780 C.2     0  <0>0        0.1923
     11  O1         6.5640   35.6840   54.2910 O.2     0  <0>0       -0.2419
     12  N2         6.0170   35.5960   57.6870 N.2     0  <0>0       -0.3648
     13  C14        8.2280   36.1910   56.7980 C.3     0  <0>0        0.0922
     14  C15        8.8570   36.2440   58.1200 C.ar    0  <0>0       -0.0148
     15  C20        9.6060   35.1570   58.5890 C.ar    0  <0>0       -0.0030
     16  C19       10.1950   35.2150   59.8330 C.ar    0  <0>0        0.0111
     17  C18       10.0460   36.3450   60.6210 C.ar    0  <0>0        0.0577
     18  C17        9.3080   37.4250   60.1660 C.ar    0  <0>0        0.0111
     19 Cl         10.7910   36.4080   62.1890 Cl      0  <0>0       -0.0822
     20  C16        8.7180   37.3860   58.9210 C.ar    0  <0>0       -0.0030
     21  S1         4.1850   32.3050   57.4150 S.3     0  <0>0       -0.0678
     22  C6         5.5630   32.2600   58.5140 C.ar    0  <0>0        0.0309
     23  C11        5.3650   32.3970   59.8830 C.ar    0  <0>0        0.0074
     24  C10        6.4470   32.3600   60.7410 C.ar    0  <0>0        0.0119
     25  C9         7.7250   32.1890   60.2390 C.ar    0  <0>0        0.0577
     26  C8         7.9240   32.0520   58.8770 C.ar    0  <0>0        0.0119
     27 Cl          9.0820   32.1440   61.3220 Cl      0  <0>0       -0.0822
     28  C7         6.8470   32.0830   58.0140 C.ar    0  <0>0        0.0074
@<TRIPOS>BOND
     1    11     9    2
     2     9     8    1
     3     9    10    1
     4     8     7    1
     5    10    13    1
     6    10    12    2
     7    13    14    1
     8     7    12    2
     9     7     3    1
    10    21     4    1
    11    21    22    1
    12     3     4   ar
    13     3     2   ar
    14    28    22   ar
    15    28    26   ar
    16    14    15   ar
    17    14    20   ar
    18     4     5   ar
    19    22    23   ar
    20     2     1   ar
    21    15    16   ar
    22     5     6   ar
    23    26    25   ar
    24    20    18   ar
    25     1     6   ar
    26    16    17   ar
    27    23    24   ar
    28    18    17   ar
    29    25    24   ar
    30    25    27    1
    31    17    19    1

@<TRIPOS>MOLECULE
ZINC28360128_replica-1.pdb
 27 29 0 0 0
SMALL
GASTEIGER

@<TRIPOS>ATOM
      1  C9        -1.3050   27.6810   57.9020 C.ar    0  <0>0        0.0655
      2  C10       -1.6100   28.3760   56.7350 C.ar    0  <0>0        0.0318
      3  C11       -1.2790   29.7250   56.6640 C.ar    0  <0>0        0.0653
      4  C12       -0.6650   30.3280   57.7550 C.ar    0  <0>0        0.1132
      5  N2        -0.3980   29.6380   58.8470 N.ar    0  <0>0       -0.2397
      6  C13       -0.6970   28.3580   58.9510 C.ar    0  <0>0        0.1132
      7  N3        -1.5580   30.4630   55.5120 N.pl3   0  <0>0       -0.3311
      8  H14       -2.3360   31.2410   55.5300 H       0  <0>0        0.1469
      9  C14       -0.8130   30.2020   54.2770 C.3     0  <0>0        0.0918
     10  C15       -1.7860   29.7850   53.1730 C.3     0  <0>0        0.0475
     11  C16       -1.4220   28.4100   52.6740 C.ar    0  <0>0       -0.0203
     12  C21       -0.5670   27.6130   53.4110 C.ar    0  <0>0       -0.0019
     13  C20       -0.2310   26.3520   52.9540 C.ar    0  <0>0        0.0293
     14  C19       -0.7530   25.8880   51.7590 C.ar    0  <0>0        0.1401
     15  C18       -1.6090   26.6880   51.0220 C.ar    0  <0>0        0.0293
     16  F1        -0.4250   24.6560   51.3110 F       0  <0>0       -0.2042
     17  C17       -1.9470   27.9460   51.4820 C.ar    0  <0>0       -0.0019
     18  N1        -1.6140   26.3240   58.0190 N.pl3   0  <0>0       -0.3294
     19  H10       -2.5860   25.9490   57.6680 H       0  <0>0        0.1471
     20  C2        -0.6410   25.4000   58.6080 C.3     0  <0>0        0.0920
     21  C1        -1.2840   24.6660   59.7870 C.3     0  <0>0        0.0261
     22  C3        -0.2070   24.3980   57.5690 C.ar    0  <0>0       -0.0046
     23  C8         0.2860   24.8330   56.3530 C.ar    0  <0>0       -0.0027
     24  C7         0.6830   23.9130   55.4000 C.ar    0  <0>0       -0.0003
     25  C6         0.5890   22.5600   55.6630 C.ar    0  <0>0       -0.0000
     26  C5         0.0970   22.1260   56.8810 C.ar    0  <0>0       -0.0003
     27  C4        -0.2970   23.0450   57.8350 C.ar    0  <0>0       -0.0027
@<TRIPOS>BOND
     1    15    17   ar
     2    15    14   ar
     3    16    14    1
     4    17    11   ar
     5    14    13   ar
     6    11    10    1
     7    11    12   ar
     8    13    12   ar
     9    10     9    1
    10     9     7    1
    11    24    25   ar
    12    24    23   ar
    13     7     8    1
    14     7     3    1
    15    25    26   ar
    16    23    22   ar
    17     3     2   ar
    18     3     4   ar
    19     2     1   ar
    20    26    27   ar
    21    22    27   ar
    22    22    20    1
    23    19    18    1
    24     4     5   ar
    25     1    18    1
    26     1     6   ar
    27    18    20    1
    28    20    21    1
    29     5     6   ar

@<TRIPOS>MOLECULE
ZINC58847114_replica-1.pdb
 34 38 0 0 0
SMALL
GASTEIGER

@<TRIPOS>ATOM
      1  C7         0.3110   28.4040   55.0050 C.3     0  <0>0        0.0937
      2  C8        -0.5490   28.0320   56.1750 C.3     0  <0>0        0.0263
      3  C9        -2.0220   28.4440   55.9740 C.3     0  <0>0        0.0023
      4  C10       -2.5340   28.6540   57.3830 C.3     0  <0>0        0.0004
      5  C11       -1.5430   28.7960   58.2240 C.3     0  <0>0        0.0045
      6  C12       -0.2250   28.7300   57.4940 C.3     0  <0>0        0.0255
      7  C13        0.2760   30.1350   57.3120 C.ar    0  <0>0       -0.0080
      8  C14        0.3140   30.9690   58.4200 C.ar    0  <0>0        0.0171
      9  C15        0.7550   32.2710   58.3010 C.ar    0  <0>0        0.1249
     10  C16        1.1630   32.7560   57.0720 C.ar    0  <0>0        0.0214
     11  C17        1.1330   31.9330   55.9640 C.ar    0  <0>0        0.0154
     12  C18        0.6930   30.6170   56.0850 C.ar    0  <0>0        0.0408
     13  N1         0.7160   29.7940   54.9750 N.pl3   0  <0>0       -0.3308
     14  H14        0.9920   30.1790   54.1290 H       0  <0>0        0.1471
     15  S1         0.7980   33.3180   59.7170 S.O2    0  <0>0        0.0736
     16  O1         0.4160   34.6140   59.2770 O.2     0  <0>0       -0.1499
     17  O2         0.1070   32.6310   60.7520 O.2     0  <0>0       -0.1499
     18  N2         2.3800   33.4280   60.1970 N.pl3   0  <0>0       -0.2150
     19  H15        2.6400   33.1240   61.0800 H       0  <0>0        0.1737
     20  C19        3.3380   33.9580   59.3280 C.ar    0  <0>0        0.0649
     21  C24        4.3070   33.1310   58.7760 C.ar    0  <0>0        0.0182
     22  C23        5.2510   33.6550   57.9140 C.ar    0  <0>0        0.0309
     23  C22        5.2360   35.0050   57.6080 C.ar    0  <0>0        0.1402
     24  C21        4.2740   35.8320   58.1620 C.ar    0  <0>0        0.0309
     25  F1         6.1630   35.5160   56.7680 F       0  <0>0       -0.2042
     26  C20        3.3260   35.3120   59.0200 C.ar    0  <0>0        0.0182
     27  C4        -0.4480   28.1000   53.7390 C.ar    0  <0>0        0.0166
     28  C3        -0.3550   26.8470   53.1610 C.ar    0  <0>0        0.0560
     29  C2        -1.0520   26.5680   51.9990 C.ar    0  <0>0        0.0112
     30 Cl          0.6350   25.6240   53.8940 Cl      0  <0>0       -0.0825
     31  C1        -1.8420   27.5410   51.4160 C.ar    0  <0>0        0.0017
     32  C6        -1.9350   28.7940   51.9930 C.ar    0  <0>0        0.0112
     33  C5        -1.2390   29.0740   53.1550 C.ar    0  <0>0        0.0560
     34 Cl         -1.3550   30.6470   53.8800 Cl      0  <0>0       -0.0825
@<TRIPOS>BOND
     1    31    32   ar
     2    31    29   ar
     3    32    33   ar
     4    29    28   ar
     5    33    27   ar
     6    33    34    1
     7    28    27   ar
     8    28    30    1
     9    27     1    1
    10    14    13    1
    11    13     1    1
    12    13    12    1
    13     1     2    1
    14    11    12   ar
    15    11    10   ar
    16     3     2    1
    17     3     4    1
    18    12     7   ar
    19     2     6    1
    20    25    23    1
    21    10     9   ar
    22     7     6    1
    23     7     8   ar
    24     4     5    1
    25     6     5    1
    26    23    22   ar
    27    23    24   ar
    28    22    21   ar
    29    24    26   ar
    30     9     8   ar
    31     9    15    1
    32    21    20   ar
    33    26    20   ar
    34    16    15    2
    35    20    18    1
    36    15    18    1
    37    15    17    2
    38    18    19    1

@<TRIPOS>MOLECULE
ZINC03314334_replica-1.pdb
 25 27 0 0 0
SMALL
GASTEIGER

@<TRIPOS>ATOM
      1  C9        10.3510   35.5710   60.4790 C.ar    0  <0>0        0.0538
      2  C10        9.6140   36.7520   60.6000 C.ar    0  <0>0        0.0061
      3  C11        8.7100   37.1010   59.6210 C.ar    0  <0>0        0.0193
      4  C12        8.5230   36.2740   58.5190 C.ar    0  <0>0        0.0824
      5  C13        9.2500   35.0940   58.3990 C.ar    0  <0>0        0.0193
      6  C14       10.1600   34.7430   59.3720 C.ar    0  <0>0        0.0061
      7  C8        11.3250   35.1970   61.5240 C.2     0  <0>0        0.2495
      8  N1        12.0530   34.0700   61.3960 N.am    0  <0>0       -0.2800
      9  H7        11.8910   33.4710   60.6490 H       0  <0>0        0.1552
     10  O1        11.4700   35.9060   62.5010 O.2     0  <0>0       -0.2698
     11  C5        13.0370   33.7620   62.3400 C.ar    0  <0>0        0.0568
     12  C4        14.2050   34.5110   62.3980 C.ar    0  <0>0        0.0149
     13  C3        15.1750   34.2050   63.3320 C.ar    0  <0>0       -0.0030
     14  C2        14.9850   33.1540   64.2100 C.ar    0  <0>0       -0.0213
     15  C1        16.0450   32.8220   65.2270 C.3     0  <0>0        0.0310
     16  C7        13.8230   32.4050   64.1570 C.ar    0  <0>0        0.0037
     17  C6        12.8460   32.7100   63.2280 C.ar    0  <0>0        0.0477
     18 Br         11.2530   31.6920   63.1610 Br      0  <0>0       -0.0477
     19  N2         7.6000   36.6280   57.5300 N.ar    0  <0>0       -0.2340
     20  N3         6.4310   35.9280   57.2050 N.ar    0  <0>0       -0.1698
     21  C17        5.8290   36.5660   56.2330 C.ar    0  <0>0        0.0805
     22  C16        6.5940   37.6920   55.9040 C.ar    0  <0>0        0.0312
     23  C18        4.5350   36.1580   55.5780 C.3     0  <0>0        0.0540
     24  C15        7.6740   37.7140   56.7180 C.ar    0  <0>0        0.0621
     25  C19        8.7650   38.7540   56.7190 C.3     0  <0>0        0.0522
@<TRIPOS>BOND
     1    23    21    1
     2    22    21   ar
     3    22    24   ar
     4    21    20   ar
     5    24    25    1
     6    24    19   ar
     7    20    19   ar
     8    19     4    1
     9     5     4   ar
    10     5     6   ar
    11     4     3   ar
    12     6     1   ar
    13     3     2   ar
    14     1     2   ar
    15     1     7    1
    16     9     8    1
    17     8     7   am
    18     8    11    1
    19     7    10    2
    20    11    12   ar
    21    11    17   ar
    22    12    13   ar
    23    18    17    1
    24    17    16   ar
    25    13    14   ar
    26    16    14   ar
    27    14    15    1

@<TRIPOS>MOLECULE
ZINC41503507_replica-1.pdb
 30 33 0 0 0
SMALL
GASTEIGER

@<TRIPOS>ATOM
      1  C1        -1.5860   27.9060   59.4460 C.3     0  <0>0        0.0313
      2  C2        -1.2870   28.8740   58.3310 C.ar    0  <0>0       -0.0127
      3  C3        -1.7780   28.6460   57.0760 C.ar    0  <0>0        0.0330
      4  C4        -1.5020   29.5380   56.0440 C.ar    0  <0>0        0.1418
      5  C5        -0.7290   30.6640   56.2740 C.ar    0  <0>0        0.0744
      6  C6        -0.2210   30.9120   57.5430 C.ar    0  <0>0        0.1513
      7  C7        -0.5100   30.0070   58.5780 C.ar    0  <0>0        0.0728
      8  C8         0.1490   30.5340   59.7870 C.2     0  <0>0        0.2324
      9  O1         0.1520   30.0500   60.9050 O.2     0  <0>0       -0.2832
     10  C9         0.8010   31.7730   59.3410 C.2     0  <0>0        0.1841
     11  C10        1.5370   32.6150   60.1120 C.2     0  <0>0        0.0438
     12  O3         0.5450   31.9180   58.0190 O.3     0  <0>0       -0.4501
     13  O4        -1.9960   29.3030   54.8020 O.3     0  <0>0       -0.4705
     14  C18       -1.0830   29.4230   53.7080 C.3     0  <0>0        0.2328
     15  C19       -0.9940   28.1050   52.9820 C.ar    0  <0>0        0.0319
     16  C24       -0.1920   27.0940   53.4820 C.ar    0  <0>0        0.0594
     17  C23       -0.1140   25.8820   52.8190 C.ar    0  <0>0        0.0408
     18 Cl          0.7090   27.3430   54.9440 Cl      0  <0>0       -0.0824
     19  C22       -0.8300   25.6860   51.6510 C.ar    0  <0>0        0.1410
     20  C21       -1.6270   26.7010   51.1500 C.ar    0  <0>0        0.0295
     21  F1        -0.7510   24.5040   51.0010 F       0  <0>0       -0.2041
     22  C20       -1.7090   27.9080   51.8150 C.ar    0  <0>0        0.0025
     23  C11        2.2260   33.7560   59.5000 C.ar    0  <0>0        0.0371
     24  C16        3.5860   33.6610   59.1570 C.ar    0  <0>0        0.1387
     25  C15        4.2240   34.7430   58.5740 C.ar    0  <0>0        0.0369
     26  C14        3.5300   35.9150   58.3420 C.ar    0  <0>0        0.0031
     27  C13        2.1910   36.0170   58.6830 C.ar    0  <0>0        0.0002
     28  C12        1.5360   34.9500   59.2580 C.ar    0  <0>0        0.0031
     29  O2         4.2680   32.5110   59.3910 O.3     0  <0>0       -0.4714
     30  C17        4.5770   31.7000   58.2560 C.3     0  <0>0        0.2525
@<TRIPOS>BOND
     1    21    19    1
     2    20    19   ar
     3    20    22   ar
     4    19    17   ar
     5    22    15   ar
     6    17    16   ar
     7    15    16   ar
     8    15    14    1
     9    16    18    1
    10    14    13    1
    11    13     4    1
    12     4     5   ar
    13     4     3   ar
    14     5     6   ar
    15     3     2   ar
    16     6    12    1
    17     6     7   ar
    18    12    10    1
    19    30    29    1
    20     2     7   ar
    21     2     1    1
    22    26    25   ar
    23    26    27   ar
    24    25    24   ar
    25     7     8    1
    26    27    28   ar
    27    24    29    1
    28    24    23   ar
    29    28    23   ar
    30    10     8    1
    31    10    11    2
    32    23    11    1
    33     8     9    2

@<TRIPOS>MOLECULE
ZINC59249413_replica-1.pdb
 28 30 0 0 0
SMALL
GASTEIGER

@<TRIPOS>ATOM
      1  C11        1.4760   31.7950   56.8850 C.ar    0  <0>0        0.0814
      2  C12        0.9060   32.0220   55.6290 C.ar    0  <0>0        0.0204
      3  C13       -0.0400   31.1500   55.1370 C.ar    0  <0>0        0.0161
      4  C14       -0.4300   30.0460   55.8870 C.ar    0  <0>0        0.0484
      5  C15        0.1350   29.8170   57.1380 C.ar    0  <0>0        0.0161
      6  C16        1.0870   30.6810   57.6340 C.ar    0  <0>0        0.0204
      7  N1         2.4170   32.6570   57.3770 N.2     0  <0>0       -0.2438
      8  C10        2.9150   33.5850   56.6090 C.2     0  <0>0        0.0988
      9  C7         3.9270   34.5120   57.1390 C.ar    0  <0>0        0.0193
     10  C6         4.9150   35.0300   56.2940 C.ar    0  <0>0        0.0047
     11  C5         5.8600   35.8980   56.7950 C.ar    0  <0>0        0.0370
     12  C4         5.8330   36.2610   58.1360 C.ar    0  <0>0        0.1392
     13  C9         4.8570   35.7460   58.9800 C.ar    0  <0>0        0.0370
     14  C8         3.9040   34.8810   58.4890 C.ar    0  <0>0        0.0047
     15  O3         6.7660   37.1180   58.6240 O.3     0  <0>0       -0.4677
     16  C2         8.0280   37.1520   57.9550 C.3     0  <0>0        0.2677
     17  C1         8.4790   38.6050   57.7900 C.3     0  <0>0        0.0598
     18  C3         9.0490   36.3990   58.7690 C.2     0  <0>0        0.4040
     19  O1         9.4670   36.8740   59.8110 O.co2   0  <0>0       -0.2416
     20  O2         9.4540   35.3150   58.3870 O.co2   0  <0>0       -0.2416
     21  N2        -1.3900   29.1660   55.3850 N.pl3   0  <0>0       -0.3125
     22  H14       -2.2670   29.1200   55.7960 H       0  <0>0        0.1522
     23  C17       -1.0880   28.3530   54.2910 C.ar    0  <0>0        0.0483
     24  C22       -1.6190   28.6420   53.0400 C.ar    0  <0>0        0.0146
     25  C21       -1.3150   27.8380   51.9600 C.ar    0  <0>0        0.0013
     26  C20       -0.4910   26.7390   52.1240 C.ar    0  <0>0        0.0001
     27  C19        0.0350   26.4450   53.3680 C.ar    0  <0>0        0.0013
     28  C18       -0.2610   27.2480   54.4520 C.ar    0  <0>0        0.0146
@<TRIPOS>BOND
     1    25    26   ar
     2    25    24   ar
     3    26    27   ar
     4    24    23   ar
     5    27    28   ar
     6    23    28   ar
     7    23    21    1
     8     3     2   ar
     9     3     4   ar
    10    21    22    1
    11    21     4    1
    12     2     1   ar
    13     4     5   ar
    14    10    11   ar
    15    10     9   ar
    16     8     9    1
    17     8     7    2
    18    11    12   ar
    19     1     7    1
    20     1     6   ar
    21     5     6   ar
    22     9    14   ar
    23    17    16    1
    24    16    15    1
    25    16    18    1
    26    12    15    1
    27    12    13   ar
    28    20    18   ar
    29    14    13   ar
    30    18    19   ar

@<TRIPOS>MOLECULE
ZINC40066290_replica-1.pdb
 32 36 0 0 0
SMALL
GASTEIGER

@<TRIPOS>ATOM
      1  C1        -3.0940   28.2120   56.6620 C.3     0  <0>0        0.0308
      2  C2        -2.0110   28.9590   57.3970 C.ar    0  <0>0       -0.0229
      3  C3        -1.4630   28.4120   58.5500 C.ar    0  <0>0       -0.0043
      4  C4        -0.4810   29.0790   59.2290 C.ar    0  <0>0        0.0059
      5  C5        -0.0320   30.3130   58.7590 C.ar    0  <0>0        0.0730
      6  C6         1.0230   31.0580   59.4910 C.ar    0  <0>0        0.1995
      7  O1         1.6620   30.5780   60.4100 O.2     0  <0>0       -0.2866
      8  C7         1.2240   32.4250   59.0010 C.ar    0  <0>0        0.0780
      9  C8         0.6300   32.8550   57.8480 C.ar    0  <0>0        0.1994
     10  O2        -0.1570   32.0610   57.0970 O.2     0  <0>0       -0.4493
     11  C9        -0.5750   30.8730   57.5910 C.ar    0  <0>0        0.1442
     12  C10       -1.5730   30.1710   56.9150 C.ar    0  <0>0        0.0089
     13  C11       -2.1780   30.7450   55.6590 C.3     0  <0>0        0.0339
     14  C12        1.0120   34.2610   57.6280 C.2     0  <0>0        0.2843
     15  O3         0.6480   34.9410   56.6890 O.2     0  <0>0       -0.2665
     16  N1         1.8240   34.6820   58.6200 N.am    0  <0>0       -0.2633
     17  C13        2.0190   33.5620   59.5540 C.3     0  <0>0        0.1273
     18  C14        3.4790   33.1900   59.6230 C.ar    0  <0>0        0.0002
     19  C19        4.1910   33.4040   60.7880 C.ar    0  <0>0       -0.0018
     20  C18        5.5260   33.0600   60.8570 C.ar    0  <0>0        0.0059
     21  C17        6.1570   32.5080   59.7480 C.ar    0  <0>0        0.0252
     22  C16        5.4400   32.2990   58.5770 C.ar    0  <0>0        0.0059
     23  C15        4.1030   32.6420   58.5180 C.ar    0  <0>0       -0.0018
     24  S1         7.8620   32.0720   59.8290 S.3     0  <0>0       -0.1127
     25  C20        8.0360   30.7470   58.6010 C.3     0  <0>0        0.0742
     26  C21        2.4100   36.0190   58.7430 C.3     0  <0>0        0.1211
     27  C22        3.7800   36.0260   58.1160 C.ar    0  <0>0       -0.0023
     28  C27        4.8970   36.2510   58.8980 C.ar    0  <0>0       -0.0026
     29  C26        6.1540   36.2530   58.3220 C.ar    0  <0>0       -0.0003
     30  C25        6.2940   36.0390   56.9630 C.ar    0  <0>0       -0.0000
     31  C24        5.1750   35.8190   56.1810 C.ar    0  <0>0       -0.0003
     32  C23        3.9190   35.8120   56.7560 C.ar    0  <0>0       -0.0026
@<TRIPOS>BOND
     1    13    12    1
     2    31    32   ar
     3    31    30   ar
     4     1     2    1
     5    15    14    2
     6    32    27   ar
     7    12     2   ar
     8    12    11   ar
     9    30    29   ar
    10    10    11   ar
    11    10     9   ar
    12     2     3   ar
    13    11     5   ar
    14    14     9    1
    15    14    16   am
    16     9     8   ar
    17    27    26    1
    18    27    28   ar
    19    29    28   ar
    20    23    22   ar
    21    23    18   ar
    22     3     4   ar
    23    22    21   ar
    24    25    24    1
    25    16    26    1
    26    16    17    1
    27     5     4   ar
    28     5     6   ar
    29     8     6   ar
    30     8    17    1
    31     6     7    2
    32    17    18    1
    33    18    19   ar
    34    21    24    1
    35    21    20   ar
    36    19    20   ar

@<TRIPOS>MOLECULE
ZINC02459158_replica-1.pdb
 29 32 0 0 0
SMALL
GASTEIGER

@<TRIPOS>ATOM
      1  N1         7.3120   35.4180   57.6220 N.am    0  <0>0       -0.2524
      2  C8         7.4650   34.0340   57.7020 C.ar    0  <0>0        0.0529
      3  C9         6.9660   33.0130   56.8940 C.ar    0  <0>0        0.0147
      4  C10        7.2610   31.6970   57.1810 C.ar    0  <0>0        0.0013
      5  C11        8.0530   31.3780   58.2690 C.ar    0  <0>0       -0.0002
      6  C12        8.5530   32.3850   59.0760 C.ar    0  <0>0       -0.0003
      7  C13        8.2600   33.7000   58.7920 C.ar    0  <0>0        0.0242
      8  C14        8.6390   35.0040   59.4560 C.3     0  <0>0        0.1840
      9  C15        7.9640   36.0590   58.6060 C.2     0  <0>0        0.2581
     10  O1         8.0040   37.2590   58.7820 O.2     0  <0>0       -0.2716
     11  C16       10.1580   35.1910   59.4430 C.3     0  <0>0        0.1092
     12  C17       10.6410   35.4740   60.8420 C.2     0  <0>0        0.1762
     13  O2        10.4600   36.5670   61.3360 O.2     0  <0>0       -0.2912
     14  C18       11.3310   34.4260   61.6080 C.ar    0  <0>0        0.0348
     15  C23       10.6840   33.2170   61.8840 C.ar    0  <0>0        0.0033
     16  C22       11.3360   32.2380   62.6020 C.ar    0  <0>0        0.0068
     17  C21       12.6300   32.4500   63.0510 C.ar    0  <0>0        0.0346
     18  C20       13.2770   33.6440   62.7810 C.ar    0  <0>0        0.0068
     19 Br         13.5180   31.1010   64.0350 Br      0  <0>0       -0.0490
     20  C19       12.6400   34.6300   62.0590 C.ar    0  <0>0        0.0033
     21  O3         8.1420   35.0470   60.7950 O.3     0  <0>0       -0.3738
     22  H18        8.3090   35.8830   61.2500 H       0  <0>0        0.2113
     23  C7         6.5310   36.0950   56.5840 C.3     0  <0>0        0.1248
     24  C4         5.0690   36.0520   56.9480 C.ar    0  <0>0       -0.0020
     25  C3         4.1090   36.0150   55.9540 C.ar    0  <0>0       -0.0026
     26  C2         2.7680   35.9760   56.2880 C.ar    0  <0>0       -0.0003
     27  C1         2.3870   35.9720   57.6170 C.ar    0  <0>0       -0.0000
     28  C6         3.3460   36.0090   58.6110 C.ar    0  <0>0       -0.0003
     29  C5         4.6880   36.0440   58.2770 C.ar    0  <0>0       -0.0026
@<TRIPOS>BOND
     1    25    26   ar
     2    25    24   ar
     3    26    27   ar
     4    23    24    1
     5    23     1    1
     6     3     4   ar
     7     3     2   ar
     8    24    29   ar
     9     4     5   ar
    10    27    28   ar
    11     1     2    1
    12     1     9   am
    13     2     7   ar
    14     5     6   ar
    15    29    28   ar
    16     9    10    2
    17     9     8    1
    18     7     6   ar
    19     7     8    1
    20    11     8    1
    21    11    12    1
    22     8    21    1
    23    21    22    1
    24    12    13    2
    25    12    14    1
    26    14    15   ar
    27    14    20   ar
    28    15    16   ar
    29    20    18   ar
    30    16    17   ar
    31    18    17   ar
    32    17    19    1

@<TRIPOS>MOLECULE
ZINC08534279_replica-1.pdb
 29 31 0 0 0
SMALL
GASTEIGER

@<TRIPOS>ATOM
      1  C10        9.3280   35.9470   58.9380 C.ar    0  <0>0       -0.0066
      2  C11        9.2630   37.0290   59.7960 C.ar    0  <0>0       -0.0032
      3  C12        8.7450   38.2330   59.3570 C.ar    0  <0>0        0.0029
      4  C13        8.2820   38.3570   58.0600 C.ar    0  <0>0        0.0400
      5  C14        8.3400   37.2760   57.1970 C.ar    0  <0>0        0.1720
      6  C15        8.8650   36.0650   57.6370 C.ar    0  <0>0        0.1666
      7  C9         9.8980   34.6370   59.4180 C.3     0  <0>0       -0.0505
      8  N1        10.8500   34.8960   60.5150 N.4     0  <0>0        0.3903
      9  H24       11.8060   34.7420   60.1760 H       0  <0>0       -0.0835
     10  H25       10.7500   35.8700   60.8260 H       0  <0>0       -0.0835
     11  C2        10.5830   33.9930   61.6490 C.3     0  <0>0       -0.0381
     12  C1         9.7510   32.8030   61.1690 C.3     0  <0>0       -0.0189
     13  C3        11.8930   33.4980   62.2060 C.ar    0  <0>0       -0.0420
     14  C8        13.0330   34.2710   62.0840 C.ar    0  <0>0       -0.0063
     15  C7        14.2340   33.8170   62.5950 C.ar    0  <0>0       -0.0004
     16  C6        14.2960   32.5910   63.2300 C.ar    0  <0>0       -0.0000
     17  C5        13.1560   31.8180   63.3530 C.ar    0  <0>0       -0.0004
     18  C4        11.9530   32.2740   62.8460 C.ar    0  <0>0       -0.0063
     19  O1         8.9240   35.0000   56.7930 O.3     0  <0>0       -0.4680
     20  C16        7.6910   34.3500   56.4810 C.3     0  <0>0        0.2330
     21  C17        7.4430   33.2380   57.4670 C.ar    0  <0>0        0.0317
     22  C22        6.5010   33.3970   58.4670 C.ar    0  <0>0        0.0572
     23  C21        6.2740   32.3750   59.3720 C.ar    0  <0>0        0.0112
     24 Cl          5.6010   34.8760   58.5850 Cl      0  <0>0       -0.0825
     25  C20        6.9900   31.1970   59.2770 C.ar    0  <0>0        0.0008
     26  C19        7.9330   31.0390   58.2780 C.ar    0  <0>0       -0.0002
     27  C18        8.1560   32.0570   57.3700 C.ar    0  <0>0        0.0002
     28  O2         7.8840   37.3970   55.9210 O.3     0  <0>0       -0.4684
     29  C23        6.4970   37.7000   55.7530 C.3     0  <0>0        0.2526
@<TRIPOS>BOND
     1    29    28    1
     2    28     5    1
     3    20    19    1
     4    20    21    1
     5    19     6    1
     6     5     6   ar
     7     5     4   ar
     8    27    21   ar
     9    27    26   ar
    10    21    22   ar
    11     6     1   ar
    12     4     3   ar
    13    26    25   ar
    14    22    24    1
    15    22    23   ar
    16     1     7    1
    17     1     2   ar
    18    25    23   ar
    19     3     2   ar
    20     7     8    1
    21     9     8    1
    22     8    10    1
    23     8    11    1
    24    12    11    1
    25    11    13    1
    26    14    13   ar
    27    14    15   ar
    28    13    18   ar
    29    15    16   ar
    30    18    17   ar
    31    16    17   ar

@<TRIPOS>MOLECULE
ZINC41286681_replica-1.pdb
 29 32 0 0 0
SMALL
GASTEIGER

@<TRIPOS>ATOM
      1  C1         3.7440   35.5600   54.7780 C.3     0  <0>0        0.0313
      2  C2         3.8150   35.6710   56.2800 C.ar    0  <0>0       -0.0127
      3  C3         2.6670   35.6510   57.0220 C.ar    0  <0>0        0.0337
      4  C4         2.7300   35.7530   58.4080 C.ar    0  <0>0        0.1515
      5  C5         3.9510   35.8760   59.0520 C.ar    0  <0>0        0.0751
      6  C6         5.1260   35.8980   58.3120 C.ar    0  <0>0        0.1513
      7  C7         5.0510   35.7900   56.9140 C.ar    0  <0>0        0.0728
      8  C8         6.4390   35.8360   56.4180 C.2     0  <0>0        0.2324
      9  O1         6.8210   35.7780   55.2630 O.2     0  <0>0       -0.2832
     10  C9         7.2590   35.9710   57.6320 C.2     0  <0>0        0.1840
     11  C10        8.6130   36.0550   57.6790 C.2     0  <0>0        0.0408
     12  O2         6.4180   36.0090   58.6920 O.3     0  <0>0       -0.4501
     13  O3         1.5840   35.7330   59.1370 O.3     0  <0>0       -0.4209
     14  C17        0.7360   34.7020   58.9520 C.2     0  <0>0        0.3457
     15  O4         0.1920   34.5480   57.8770 O.2     0  <0>0       -0.2445
     16  C18        0.4650   33.7620   60.0580 C.ar    0  <0>0        0.0761
     17  C23       -0.0560   34.2300   61.2660 C.ar    0  <0>0        0.0070
     18  C22       -0.3130   33.3450   62.2920 C.ar    0  <0>0        0.0069
     19  C21       -0.0440   31.9970   62.1300 C.ar    0  <0>0        0.0346
     20  C20        0.4780   31.5270   60.9370 C.ar    0  <0>0        0.0069
     21 Br         -0.3920   30.7910   63.5450 Br      0  <0>0       -0.0490
     22  C19        0.7340   32.4000   59.9020 C.ar    0  <0>0        0.0070
     23  C11        9.3060   36.0290   58.9750 C.ar    0  <0>0        0.0033
     24  C16       10.0280   34.8940   59.3630 C.ar    0  <0>0        0.0024
     25  C15       10.6800   34.8800   60.5760 C.ar    0  <0>0        0.0296
     26  C14       10.6130   35.9810   61.4170 C.ar    0  <0>0        0.1401
     27  C13        9.8940   37.1060   61.0410 C.ar    0  <0>0        0.0296
     28  F1        11.2520   35.9580   62.6080 F       0  <0>0       -0.2042
     29  C12        9.2420   37.1370   59.8280 C.ar    0  <0>0        0.0024
@<TRIPOS>BOND
     1     1     2    1
     2     9     8    2
     3     2     7   ar
     4     2     3   ar
     5     8     7    1
     6     8    10    1
     7     7     6   ar
     8     3     4   ar
     9    10    11    2
    10    10    12    1
    11    11    23    1
    12    15    14    2
    13     6    12    1
    14     6     5   ar
    15     4     5   ar
    16     4    13    1
    17    14    13    1
    18    14    16    1
    19    23    24   ar
    20    23    29   ar
    21    24    25   ar
    22    29    27   ar
    23    22    16   ar
    24    22    20   ar
    25    16    17   ar
    26    25    26   ar
    27    20    19   ar
    28    27    26   ar
    29    17    18   ar
    30    26    28    1
    31    19    18   ar
    32    19    21    1

@<TRIPOS>MOLECULE
ZINC58846064_replica-1.pdb
 34 38 0 0 0
SMALL
GASTEIGER

@<TRIPOS>ATOM
      1  C9        -0.1630   29.6830   56.5190 C.ar    0  <0>0        0.1249
      2  C10       -0.2500   30.4340   55.3610 C.ar    0  <0>0        0.0214
      3  C11       -0.0650   31.8000   55.4160 C.ar    0  <0>0        0.0154
      4  C12        0.2040   32.4210   56.6310 C.ar    0  <0>0        0.0408
      5  C13        0.2790   31.6710   57.7950 C.ar    0  <0>0       -0.0080
      6  C14        0.0940   30.2980   57.7280 C.ar    0  <0>0        0.0171
      7  C15        0.5260   32.3050   59.1220 C.3     0  <0>0        0.0255
      8  C16        1.9400   32.0950   59.5970 C.3     0  <0>0        0.0045
      9  C17        2.3660   33.1550   60.2380 C.3     0  <0>0        0.0004
     10  C18        1.2990   34.2260   60.2770 C.3     0  <0>0        0.0023
     11  C19        0.3230   33.8190   59.1480 C.3     0  <0>0        0.0263
     12  C20        0.7570   34.5140   57.8750 C.3     0  <0>0        0.0943
     13  N2         0.4060   33.7960   56.6680 N.pl3   0  <0>0       -0.3308
     14  H21        0.3310   34.2940   55.8390 H       0  <0>0        0.1471
     15  S1        -0.3890   27.9370   56.4530 S.O2    0  <0>0        0.0736
     16  O1        -1.6870   27.7150   55.9180 O.2     0  <0>0       -0.1499
     17  O2         0.0100   27.4260   57.7170 O.2     0  <0>0       -0.1499
     18  N1         0.6880   27.3450   55.3430 N.pl3   0  <0>0       -0.2153
     19  H13        1.6420   27.4330   55.4980 H       0  <0>0        0.1737
     20  C8         0.2240   26.7180   54.1850 C.ar    0  <0>0        0.0608
     21  C3         0.2420   25.3330   54.0880 C.ar    0  <0>0       -0.0076
     22  C4        -0.2220   24.7170   52.9410 C.ar    0  <0>0       -0.0030
     23  C5        -0.6980   25.4770   51.8910 C.ar    0  <0>0       -0.0002
     24  C6        -0.7130   26.8570   51.9810 C.ar    0  <0>0        0.0013
     25  C7        -0.2500   27.4800   53.1240 C.ar    0  <0>0        0.0155
     26  C2         0.7620   24.5030   55.2320 C.3     0  <0>0        0.0277
     27  C1         0.6310   23.0180   54.8850 C.3     0  <0>0        0.0051
     28  C21        2.2490   34.7210   57.9260 C.ar    0  <0>0        0.0229
     29  C26        2.7720   35.8410   58.5470 C.ar    0  <0>0        0.1377
     30  C25        4.1430   36.0280   58.5980 C.ar    0  <0>0        0.0294
     31  F1         1.9450   36.7500   59.1100 F       0  <0>0       -0.2045
     32  C24        4.9870   35.1000   58.0190 C.ar    0  <0>0        0.0023
     33  C23        4.4640   33.9840   57.3920 C.ar    0  <0>0       -0.0001
     34  C22        3.0950   33.7940   57.3460 C.ar    0  <0>0       -0.0005
@<TRIPOS>BOND
     1    23    24   ar
     2    23    22   ar
     3    24    25   ar
     4    22    21   ar
     5    25    20   ar
     6    21    20   ar
     7    21    26    1
     8    20    18    1
     9    27    26    1
    10    18    19    1
    11    18    15    1
    12     2     3   ar
    13     2     1   ar
    14     3     4   ar
    15    14    13    1
    16    16    15    2
    17    15     1    1
    18    15    17    2
    19     1     6   ar
    20     4    13    1
    21     4     5   ar
    22    13    12    1
    23    34    33   ar
    24    34    28   ar
    25    33    32   ar
    26     6     5   ar
    27     5     7    1
    28    12    28    1
    29    12    11    1
    30    28    29   ar
    31    32    30   ar
    32    29    30   ar
    33    29    31    1
    34     7    11    1
    35     7     8    1
    36    11    10    1
    37     8     9    1
    38     9    10    1

@<TRIPOS>MOLECULE
ZINC12583314_replica-1.pdb
 31 33 0 0 0
SMALL
GASTEIGER

@<TRIPOS>ATOM
      1  C9         8.9950   36.7210   58.8170 C.ar    0  <0>0        0.1253
      2  C10        9.4600   35.4450   58.5520 C.ar    0  <0>0        0.0217
      3  C11       10.1890   34.7620   59.5040 C.ar    0  <0>0        0.0205
      4  C12       10.4480   35.3570   60.7400 C.ar    0  <0>0        0.0814
      5  C13        9.9710   36.6430   61.0030 C.ar    0  <0>0        0.0205
      6  C14        9.2480   37.3160   60.0400 C.ar    0  <0>0        0.0217
      7  S1         8.0710   37.5890   57.5940 S.O2    0  <0>0        0.0736
      8  O1         8.6150   37.2180   56.3340 O.2     0  <0>0       -0.1499
      9  O2         7.9990   38.9410   58.0240 O.2     0  <0>0       -0.1499
     10  N1         6.5250   36.9960   57.6350 N.pl3   0  <0>0       -0.2156
     11  H9         5.8440   37.3770   57.0600 H       0  <0>0        0.1737
     12  C5         6.2030   35.9470   58.4990 C.ar    0  <0>0        0.0568
     13  C4         5.8200   36.2160   59.8080 C.ar    0  <0>0       -0.0079
     14  C3         5.5030   35.1760   60.6600 C.ar    0  <0>0       -0.0073
     15  C22        5.7520   37.6390   60.2960 C.3     0  <0>0        0.0323
     16  C2         5.5650   33.8690   60.2120 C.ar    0  <0>0       -0.0224
     17  C1         5.2120   32.7370   61.1420 C.3     0  <0>0        0.0310
     18  C7         5.9460   33.5980   58.9100 C.ar    0  <0>0       -0.0073
     19  C6         6.2650   34.6330   58.0520 C.ar    0  <0>0       -0.0079
     20  C8         6.6790   34.3380   56.6340 C.3     0  <0>0        0.0323
     21  N2        11.1670   34.6830   61.6910 N.2     0  <0>0       -0.2437
     22  C15       12.4140   34.3760   61.4680 C.2     0  <0>0        0.1018
     23  C16       13.1860   33.6530   62.4900 C.ar    0  <0>0        0.0533
     24  C21       12.7540   32.3990   62.9450 C.ar    0  <0>0        0.1351
     25  C20       13.4930   31.7240   63.9050 C.ar    0  <0>0        0.0372
     26  C19       14.6440   32.2900   64.4170 C.ar    0  <0>0        0.0098
     27  C18       15.0730   33.5320   63.9750 C.ar    0  <0>0        0.0348
     28  C17       14.3540   34.2150   63.0180 C.ar    0  <0>0        0.0113
     29 Br         16.6510   34.2900   64.6880 Br      0  <0>0       -0.0490
     30  O3        11.6190   31.8460   62.4460 O.3     0  <0>0       -0.5055
     31  H18       10.9670   31.6110   63.1200 H       0  <0>0        0.2922
@<TRIPOS>BOND
     1     8     7    2
     2    20    19    1
     3    11    10    1
     4     7    10    1
     5     7     9    2
     6     7     1    1
     7    10    12    1
     8    19    12   ar
     9    19    18   ar
    10    12    13   ar
    11     2     1   ar
    12     2     3   ar
    13     1     6   ar
    14    18    16   ar
    15     3     4   ar
    16    13    15    1
    17    13    14   ar
    18     6     5   ar
    19    16    14   ar
    20    16    17    1
    21     4     5   ar
    22     4    21    1
    23    22    21    2
    24    22    23    1
    25    30    24    1
    26    30    31    1
    27    23    24   ar
    28    23    28   ar
    29    24    25   ar
    30    28    27   ar
    31    25    26   ar
    32    27    26   ar
    33    27    29    1

@<TRIPOS>MOLECULE
ZINC41433401_replica-1.pdb
 31 35 0 0 0
SMALL
GASTEIGER

@<TRIPOS>ATOM
      1  C9        -1.9380   29.5150   55.8060 C.ar    0  <0>0        0.1418
      2  C10       -2.3390   28.4910   56.6600 C.ar    0  <0>0        0.0330
      3  C11       -1.8840   28.4520   57.9470 C.ar    0  <0>0       -0.0127
      4  C12       -1.0150   29.4410   58.4070 C.ar    0  <0>0        0.0728
      5  C13       -0.6050   30.4790   57.5540 C.ar    0  <0>0        0.1513
      6  C14       -1.0720   30.5020   56.2470 C.ar    0  <0>0        0.0744
      7  O2         0.2260   31.2980   58.2340 O.3     0  <0>0       -0.4501
      8  C15        0.4060   30.8740   59.5070 C.2     0  <0>0        0.1841
      9  C16        1.1850   31.4810   60.4470 C.2     0  <0>0        0.0423
     10  C26       -0.3550   29.6900   59.7010 C.2     0  <0>0        0.2324
     11  O3        -0.4430   29.0240   60.7180 O.2     0  <0>0       -0.2832
     12  C27       -2.3190   27.3420   58.8690 C.3     0  <0>0        0.0313
     13  C17        1.9170   32.7010   60.1100 C.ar    0  <0>0        0.0217
     14  C20        3.3320   32.9950   60.4070 C.ar    0  <0>0        0.0173
     15  C19        3.5780   34.2770   59.8910 C.ar    0  <0>0        0.0600
     16  C21        4.3520   32.2890   61.0400 C.ar    0  <0>0        0.0015
     17  N1         2.4030   34.7360   59.3300 N.ar    0  <0>0       -0.3240
     18  C24        4.8470   34.8310   60.0180 C.ar    0  <0>0        0.0172
     19  C18        1.4210   33.8090   59.4570 C.ar    0  <0>0        0.0760
     20  C25        2.2400   36.0410   58.6870 C.3     0  <0>0        0.1305
     21  C23        5.8460   34.1260   60.6550 C.ar    0  <0>0        0.0015
     22  C22        5.6020   32.8570   61.1610 C.ar    0  <0>0        0.0001
     23  O1        -2.3970   29.5440   54.5280 O.3     0  <0>0       -0.4705
     24  C8        -1.4180   29.6370   53.4890 C.3     0  <0>0        0.2320
     25  C5        -1.1730   28.2680   52.9080 C.ar    0  <0>0        0.0211
     26  C4        -1.7410   27.9210   51.6970 C.ar    0  <0>0       -0.0010
     27  C3        -1.5150   26.6660   51.1620 C.ar    0  <0>0       -0.0045
     28  C2        -0.7210   25.7590   51.8390 C.ar    0  <0>0       -0.0219
     29  C1        -0.4750   24.3910   51.2570 C.3     0  <0>0        0.0310
     30  C7        -0.1580   26.1060   53.0540 C.ar    0  <0>0       -0.0045
     31  C6        -0.3800   27.3620   53.5860 C.ar    0  <0>0       -0.0010
@<TRIPOS>BOND
     1    27    26   ar
     2    27    28   ar
     3    29    28    1
     4    26    25   ar
     5    28    30   ar
     6    25    24    1
     7    25    31   ar
     8    30    31   ar
     9    24    23    1
    10    23     1    1
    11     1     6   ar
    12     1     2   ar
    13     6     5   ar
    14     2     3   ar
    15     5     7    1
    16     5     4   ar
    17     3     4   ar
    18     3    12    1
    19     7     8    1
    20     4    10    1
    21    20    17    1
    22    17    19   ar
    23    17    15   ar
    24    19    13   ar
    25     8    10    1
    26     8     9    2
    27    10    11    2
    28    15    18   ar
    29    15    14   ar
    30    18    21   ar
    31    13    14   ar
    32    13     9    1
    33    14    16   ar
    34    21    22   ar
    35    16    22   ar

@<TRIPOS>MOLECULE
ZINC03307576_replica-1.pdb
 32 35 0 0 0
SMALL
GASTEIGER

@<TRIPOS>ATOM
      1  C14        5.3830   36.1140   59.6290 C.ar    0  <0>0        0.0212
      2  C15        5.5190   34.7960   60.0310 C.ar    0  <0>0       -0.0005
      3  C16        4.9750   33.7800   59.2730 C.ar    0  <0>0        0.0044
      4  C17        4.2850   34.0830   58.0970 C.ar    0  <0>0        0.0550
      5  C18        4.1510   35.4140   57.6970 C.ar    0  <0>0        0.0044
      6  C19        4.7010   36.4200   58.4650 C.ar    0  <0>0       -0.0005
      7  C13        5.9790   37.2180   60.4630 C.3     0  <0>0        0.2320
      8  O1         7.1930   37.6690   59.8570 O.3     0  <0>0       -0.4706
      9  C12        8.3180   36.9550   60.1250 C.ar    0  <0>0        0.1390
     10  C7         8.9220   36.1950   59.1200 C.ar    0  <0>0        0.0340
     11  C8        10.0750   35.4660   59.4040 C.ar    0  <0>0        0.0030
     12  C9        10.6140   35.4980   60.6740 C.ar    0  <0>0        0.0002
     13  C10       10.0140   36.2520   61.6680 C.ar    0  <0>0        0.0031
     14  C11        8.8720   36.9820   61.3950 C.ar    0  <0>0        0.0369
     15  C4         8.3380   36.1630   57.7570 C.ar    0  <0>0        0.0029
     16  C3         7.9520   34.9490   57.1890 C.ar    0  <0>0        0.0001
     17  C2         7.4100   34.9260   55.9210 C.ar    0  <0>0        0.0000
     18  C1         7.2480   36.1030   55.2120 C.ar    0  <0>0        0.0000
     19  C6         7.6290   37.3100   55.7700 C.ar    0  <0>0        0.0000
     20  C5         8.1670   37.3460   57.0410 C.ar    0  <0>0        0.0001
     21  C20        3.7000   33.0000   57.2800 C.2     0  <0>0        0.2645
     22  O2         4.2990   31.9510   57.1430 O.2     0  <0>0       -0.2684
     23  N1         2.5020   33.1750   56.6880 N.am    0  <0>0       -0.2023
     24  H17        2.0250   34.0130   56.7970 H       0  <0>0        0.1776
     25  N2         1.9470   32.1480   55.9130 N.2     0  <0>0       -0.1758
     26  C21        0.6630   31.9380   55.9360 C.2     0  <0>0        0.1345
     27  C22        0.0820   30.8620   55.1250 C.ar    0  <0>0        0.0777
     28  N3         0.6560   29.6410   54.8630 N.ar    0  <0>0       -0.3507
     29  C25       -0.1910   28.9210   54.0770 C.ar    0  <0>0        0.0725
     30  H1         1.5210   29.3430   55.1850 H       0  <0>0        0.1660
     31  C24       -1.2950   29.6630   53.8340 C.ar    0  <0>0        0.0200
     32  C23       -1.1420   30.8910   54.4930 C.ar    0  <0>0        0.0201
@<TRIPOS>BOND
     1    31    29   ar
     2    31    32   ar
     3    29    28   ar
     4    32    27   ar
     5    28    27   ar
     6    28    30    1
     7    27    26    1
     8    18    19   ar
     9    18    17   ar
    10    19    20   ar
    11    25    26    2
    12    25    23    1
    13    17    16   ar
    14    23    24    1
    15    23    21   am
    16    20    15   ar
    17    22    21    2
    18    16    15   ar
    19    21     4    1
    20     5     4   ar
    21     5     6   ar
    22    15    10    1
    23     4     3   ar
    24     6     1   ar
    25    10    11   ar
    26    10     9   ar
    27     3     2   ar
    28    11    12   ar
    29     1     2   ar
    30     1     7    1
    31     8     9    1
    32     8     7    1
    33     9    14   ar
    34    12    13   ar
    35    14    13   ar

@<TRIPOS>MOLECULE
ZINC01630689_replica-1.pdb
 31 34 0 0 0
SMALL
GASTEIGER

@<TRIPOS>ATOM
      1  C4         0.4280   29.7580   57.2180 C.3     0  <0>0        0.1889
      2  C5         0.4380   30.5160   58.3970 C.2     0  <0>0       -0.0014
      3  C6         0.5270   31.9260   58.2790 C.ar    0  <0>0        0.0266
      4  C7         0.5430   32.7490   59.4130 C.ar    0  <0>0        0.0023
      5  C8         0.6290   34.1010   59.2640 C.ar    0  <0>0        0.0002
      6  C9         0.7040   34.6750   57.9970 C.ar    0  <0>0        0.0026
      7  C10        0.6930   33.9040   56.8750 C.ar    0  <0>0        0.0321
      8  C11        0.6030   32.5060   56.9890 C.ar    0  <0>0        0.1324
      9  N1         0.5960   31.7310   55.8970 N.2     0  <0>0       -0.3894
     10  C12        0.5080   30.4210   55.9720 C.2     0  <0>0        0.1868
     11  N2         0.5000   29.6760   54.8080 N.pl3   0  <0>0       -0.2429
     12  H10        1.3330   29.3450   54.4380 H       0  <0>0        0.1722
     13  N3        -0.7120   29.3980   54.1630 N.pl3   0  <0>0       -0.2637
     14  H11       -1.4840   29.9660   54.3150 H       0  <0>0        0.1700
     15  C13       -0.8090   28.3050   53.2990 C.ar    0  <0>0        0.0611
     16  C18       -1.5430   28.4090   52.1240 C.ar    0  <0>0        0.0158
     17  C17       -1.6360   27.3270   51.2710 C.ar    0  <0>0        0.0013
     18  C16       -1.0010   26.1400   51.5850 C.ar    0  <0>0        0.0001
     19  C15       -0.2690   26.0330   52.7540 C.ar    0  <0>0        0.0013
     20  C14       -0.1710   27.1110   53.6110 C.ar    0  <0>0        0.0158
     21  C3         0.3380   28.2920   57.2760 C.2     0  <0>0        0.3289
     22  O2         1.2690   27.6420   57.7090 O.2     0  <0>0       -0.2492
     23  O1        -0.7790   27.6680   56.8480 O.3     0  <0>0       -0.4480
     24  C2        -2.0060   27.9440   57.5720 C.3     0  <0>0        0.2086
     25  C1        -3.0130   28.6110   56.6330 C.3     0  <0>0        0.0513
     26  C19        0.3560   29.8660   59.7230 C.ar    0  <0>0       -0.0029
     27  C24       -0.8880   29.5710   60.2830 C.ar    0  <0>0       -0.0003
     28  C23       -0.9580   28.9650   61.5200 C.ar    0  <0>0       -0.0000
     29  C22        0.2020   28.6490   62.2050 C.ar    0  <0>0       -0.0000
     30  C21        1.4390   28.9400   61.6570 C.ar    0  <0>0       -0.0000
     31  C20        1.5220   29.5410   60.4180 C.ar    0  <0>0       -0.0003
@<TRIPOS>BOND
     1    17    18   ar
     2    17    16   ar
     3    18    19   ar
     4    16    15   ar
     5    19    20   ar
     6    15    20   ar
     7    15    13    1
     8    13    14    1
     9    13    11    1
    10    12    11    1
    11    11    10    1
    12     9    10    2
    13     9     8    2
    14    10     1    1
    15    25    24    1
    16    23    21    1
    17    23    24    1
    18     7     8   ar
    19     7     6   ar
    20     8     3   ar
    21     1    21    1
    22     1     2    1
    23    21    22    2
    24     6     5   ar
    25     3     2    2
    26     3     4   ar
    27     2    26    1
    28     5     4   ar
    29    26    27   ar
    30    26    31   ar
    31    27    28   ar
    32    31    30   ar
    33    28    29   ar
    34    30    29   ar

@<TRIPOS>MOLECULE
ZINC66323794_replica-1.pdb
 27 30 0 0 0
SMALL
GASTEIGER

@<TRIPOS>ATOM
      1  C7         7.6320   35.9960   56.2640 C.3     0  <0>0        0.2392
      2  C8         7.9620   35.2690   57.5900 C.3     0  <0>0        0.2190
      3  N1         8.6990   36.3060   58.3390 N.am    0  <0>0       -0.1987
      4  C9         8.4870   37.4860   57.7240 C.2     0  <0>0        0.4109
      5  O1         8.9830   38.5320   58.0880 O.2     0  <0>0       -0.2258
      6  O2         7.6680   37.3800   56.6620 O.3     0  <0>0       -0.4288
      7  C16        6.7010   34.8770   58.3150 C.ar    0  <0>0        0.0239
      8  C21        5.9870   35.8260   59.0220 C.ar    0  <0>0       -0.0002
      9  C20        4.8280   35.4670   59.6840 C.ar    0  <0>0       -0.0002
     10  C19        4.3880   34.1570   59.6470 C.ar    0  <0>0       -0.0000
     11  C18        5.1050   33.2070   58.9440 C.ar    0  <0>0       -0.0002
     12  C17        6.2620   33.5670   58.2790 C.ar    0  <0>0       -0.0002
     13  O3         8.7910   34.1300   57.3530 O.3     0  <0>0       -0.3637
     14  H16        9.4670   33.9870   58.0290 H       0  <0>0        0.2125
     15  C4         6.2610   35.6140   55.7680 C.ar    0  <0>0        0.0218
     16  C3         6.0660   34.3950   55.1480 C.ar    0  <0>0       -0.0007
     17  C2         4.8080   34.0450   54.6930 C.ar    0  <0>0       -0.0002
     18  C1         3.7460   34.9140   54.8600 C.ar    0  <0>0       -0.0000
     19  C6         3.9420   36.1330   55.4810 C.ar    0  <0>0       -0.0002
     20  C5         5.1990   36.4840   55.9340 C.ar    0  <0>0       -0.0007
     21  C10        9.4760   36.1010   59.4860 C.ar    0  <0>0        0.0595
     22  C15       10.2700   34.9670   59.5930 C.ar    0  <0>0        0.0174
     23  C14       11.0420   34.7700   60.7220 C.ar    0  <0>0        0.0309
     24  C13       11.0130   35.6950   61.7520 C.ar    0  <0>0        0.1402
     25  C12       10.2180   36.8240   61.6490 C.ar    0  <0>0        0.0309
     26  F1        11.7640   35.4980   62.8570 F       0  <0>0       -0.2042
     27  C11        9.4490   37.0280   60.5190 C.ar    0  <0>0        0.0174
@<TRIPOS>BOND
     1    17    18   ar
     2    17    16   ar
     3    18    19   ar
     4    16    15   ar
     5    19    20   ar
     6    15    20   ar
     7    15     1    1
     8     1     6    1
     9     1     2    1
    10     6     4    1
    11    13     2    1
    12    13    14    1
    13     2     7    1
    14     2     3    1
    15     4     5    2
    16     4     3   am
    17    12     7   ar
    18    12    11   ar
    19     7     8   ar
    20     3    21    1
    21    11    10   ar
    22     8     9   ar
    23    21    22   ar
    24    21    27   ar
    25    22    23   ar
    26    10     9   ar
    27    27    25   ar
    28    23    24   ar
    29    25    24   ar
    30    24    26    1

@<TRIPOS>MOLECULE
ZINC04733260_replica-1.pdb
 27 29 0 0 0
SMALL
GASTEIGER

@<TRIPOS>ATOM
      1  C9        10.7210   34.7720   61.3290 C.3     0  <0>0        0.2101
      2  N3         9.8280   34.1840   60.4920 N.3     0  <0>0       -0.0883
      3  N2         9.8830   34.4160   59.2240 N.pl3   0  <0>0       -0.1465
      4  C6         8.7330   34.5350   58.5010 C.ar    0  <0>0        0.0854
      5  C5         7.5310   34.0250   59.0050 C.ar    0  <0>0        0.0190
      6  C4         6.3720   34.1480   58.2730 C.ar    0  <0>0        0.0159
      7  C3         6.3940   34.7790   57.0330 C.ar    0  <0>0        0.0480
      8  C8         7.5880   35.2880   56.5280 C.ar    0  <0>0        0.0159
      9  C7         8.7490   35.1750   57.2560 C.ar    0  <0>0        0.0190
     10  N1         5.2190   34.9020   56.2940 N.pl3   0  <0>0       -0.3041
     11  C1         5.0560   34.1510   55.0460 C.3     0  <0>0        0.1122
     12  C2         4.1460   35.7810   56.7650 C.3     0  <0>0        0.1122
     13  N4        10.6590   36.0630   61.5540 N.3     0  <0>0       -0.1105
     14  N5         9.4370   36.6560   61.9010 N.pl3   0  <0>0       -0.2598
     15  H11        9.1660   36.6970   62.8310 H       0  <0>0        0.1680
     16  C10        8.6130   37.1850   60.9100 C.ar    0  <0>0        0.0595
     17  C15        9.1620   37.9130   59.8620 C.ar    0  <0>0        0.0156
     18  C14        8.3420   38.4360   58.8820 C.ar    0  <0>0        0.0013
     19  C13        6.9750   38.2350   58.9430 C.ar    0  <0>0        0.0001
     20  C12        6.4240   37.5110   59.9840 C.ar    0  <0>0        0.0013
     21  C11        7.2380   36.9850   60.9680 C.ar    0  <0>0        0.0156
     22  C16       11.7670   33.9540   61.9880 C.ar    0  <0>0        0.0134
     23  C21       13.0860   34.4050   62.0280 C.ar    0  <0>0       -0.0014
     24  C20       14.0550   33.6390   62.6440 C.ar    0  <0>0       -0.0002
     25  C19       13.7200   32.4260   63.2190 C.ar    0  <0>0       -0.0000
     26  C18       12.4130   31.9740   63.1830 C.ar    0  <0>0       -0.0002
     27  C17       11.4340   32.7340   62.5750 C.ar    0  <0>0       -0.0014
@<TRIPOS>BOND
     1    11    10    1
     2    10    12    1
     3    10     7    1
     4     8     7   ar
     5     8     9   ar
     6     7     6   ar
     7     9     4   ar
     8     6     5   ar
     9     4     5   ar
    10     4     3    1
    11    18    19   ar
    12    18    17   ar
    13    19    20   ar
    14     3     2    1
    15    17    16   ar
    16    20    21   ar
    17     2     1    1
    18    16    21   ar
    19    16    14    1
    20     1    13    1
    21     1    22    1
    22    13    14    1
    23    14    15    1
    24    22    23   ar
    25    22    27   ar
    26    23    24   ar
    27    27    26   ar
    28    24    25   ar
    29    26    25   ar

@<TRIPOS>MOLECULE
ZINC45939500_replica-1.pdb
 33 35 0 0 0
SMALL
GASTEIGER

@<TRIPOS>ATOM
      1  N1         6.2360   33.1500   58.5440 N.pl3   0  <0>0       -0.2438
      2  C8         5.5550   32.9820   59.7160 C.2     0  <0>0        0.3851
      3  N2         4.8320   34.0130   60.2380 N.pl3   0  <0>0       -0.2593
      4  N4         5.6000   31.8180   60.3470 N.am    0  <0>0        0.0006
      5  C15        6.4010   30.8430   59.8980 C.2     0  <0>0        0.3418
      6  O1         7.1270   31.0440   58.9410 O.2     0  <0>0       -0.2483
      7  H7         4.3660   33.9020   61.0810 H       0  <0>0        0.2589
      8  H14        6.0860   32.5390   57.8060 H       0  <0>0        0.2647
      9  C6         7.1490   34.2010   58.4090 C.ar    0  <0>0        0.1160
     10  C5         7.0180   35.1070   57.3650 C.ar    0  <0>0        0.0291
     11  C4         7.9220   36.1430   57.2350 C.ar    0  <0>0       -0.0194
     12  C3         8.9550   36.2800   58.1440 C.ar    0  <0>0       -0.0083
     13  C26        7.7800   37.1270   56.1030 C.3     0  <0>0        0.0311
     14  C2         9.0880   35.3800   59.1850 C.ar    0  <0>0       -0.0194
     15  C1        10.2160   35.5320   60.1720 C.3     0  <0>0        0.0311
     16  C7         8.1910   34.3380   59.3170 C.ar    0  <0>0        0.0291
     17  C9         4.7570   35.2910   59.5240 C.3     0  <0>0        0.2009
     18  C10        3.4450   35.3810   58.7890 C.ar    0  <0>0        0.0201
     19  C14        3.3800   35.9320   57.5180 C.ar    0  <0>0        0.0197
     20  C13        2.1600   35.9920   56.8710 C.ar    0  <0>0        0.0987
     21  N3         1.0650   35.5440   57.4540 N.ar    0  <0>0       -0.2423
     22  C12        1.0880   35.0200   58.6640 C.ar    0  <0>0        0.0987
     23  C11        2.2730   34.9210   59.3690 C.ar    0  <0>0        0.0197
     24  C16        6.4040   29.5210   60.5660 C.ar    0  <0>0        0.0727
     25  C21        7.0870   29.3470   61.7700 C.ar    0  <0>0        0.0058
     26  C20        7.0810   28.1140   62.3900 C.ar    0  <0>0       -0.0041
     27  C19        6.4110   27.0500   61.8140 C.ar    0  <0>0       -0.0228
     28  C18        5.7390   27.2140   60.6170 C.ar    0  <0>0       -0.0041
     29  C17        5.7310   28.4430   59.9900 C.ar    0  <0>0        0.0058
     30  C22        6.4150   25.7050   62.4940 C.3     0  <0>0        0.0189
     31  C23        6.0390   25.8770   63.9670 C.3     0  <0>0        0.0044
     32  C24        5.4000   24.7860   61.8130 C.3     0  <0>0        0.0044
     33  C25        7.8110   25.0860   62.3940 C.3     0  <0>0        0.0044
@<TRIPOS>BOND
     1    13    11    1
     2    20    21   ar
     3    20    19   ar
     4    11    10   ar
     5    11    12   ar
     6    10     9   ar
     7    21    22   ar
     8    19    18   ar
     9     8     1    1
    10    12    14   ar
    11     9     1    1
    12     9    16   ar
    13     1     2    1
    14    22    23   ar
    15    18    23   ar
    16    18    17    1
    17     6     5    2
    18    14    16   ar
    19    14    15    1
    20    17     3    1
    21     2     3    1
    22     2     4    2
    23     5     4    1
    24     5    24    1
    25    29    24   ar
    26    29    28   ar
    27     3     7    1
    28    24    25   ar
    29    28    27   ar
    30    25    26   ar
    31    32    30    1
    32    27    26   ar
    33    27    30    1
    34    33    30    1
    35    30    31    1

@<TRIPOS>MOLECULE
ZINC37639224_replica-1.pdb
 28 31 0 0 0
SMALL
GASTEIGER

@<TRIPOS>ATOM
      1  N1         8.1740   32.7940   60.1240 N.ar    0  <0>0       -0.2487
      2  C4         9.3310   33.0570   60.7560 C.ar    0  <0>0        0.2661
      3  O1        10.0630   32.1470   61.1040 O.2     0  <0>0       -0.2668
      4  C5         9.7060   34.4610   61.0240 C.ar    0  <0>0        0.0789
      5  C6        10.8940   34.9910   61.6850 C.ar    0  <0>0        0.0130
      6  C7        11.0210   36.3330   61.8170 C.ar    0  <0>0        0.0370
      7  S1         9.5370   36.9610   61.0520 S.2     0  <0>0       -0.0690
      8  C8         8.7950   35.4210   60.5820 C.ar    0  <0>0        0.0987
      9  N2         7.6370   35.0690   59.9460 N.ar    0  <0>0       -0.2715
     10  C9         7.3470   33.7720   59.7210 C.ar    0  <0>0        0.3344
     11  O2         6.3140   33.4830   59.1490 O.2     0  <0>0       -0.2462
     12  C10        6.7080   36.1090   59.4980 C.3     0  <0>0        0.1385
     13  C11        6.9130   36.3680   58.0280 C.ar    0  <0>0        0.0111
     14  C16        5.8470   36.2640   57.1530 C.ar    0  <0>0        0.0555
     15  C15        6.0350   36.5060   55.8030 C.ar    0  <0>0        0.0111
     16 Cl          4.2730   35.8370   57.7470 Cl      0  <0>0       -0.0825
     17  C14        7.2900   36.8410   55.3300 C.ar    0  <0>0        0.0008
     18  C13        8.3560   36.9390   56.2050 C.ar    0  <0>0       -0.0002
     19  C12        8.1670   36.7020   57.5540 C.ar    0  <0>0       -0.0016
     20  C3         7.8080   31.4000   59.8610 C.3     0  <0>0        0.1136
     21  C2         8.2440   31.0170   58.4450 C.3     0  <0>0        0.0247
     22  C1         7.2390   30.0290   57.8510 C.3     0  <0>0        0.0021
     23  C17       11.9420   34.0790   62.2030 C.ar    0  <0>0        0.0007
     24  C22       11.5870   32.9680   62.9660 C.ar    0  <0>0        0.0000
     25  C21       12.5670   32.1200   63.4410 C.ar    0  <0>0        0.0000
     26  C20       13.8990   32.3770   63.1700 C.ar    0  <0>0        0.0000
     27  C19       14.2570   33.4810   62.4180 C.ar    0  <0>0        0.0000
     28  C18       13.2860   34.3340   61.9330 C.ar    0  <0>0        0.0000
@<TRIPOS>BOND
     1    17    15   ar
     2    17    18   ar
     3    15    14   ar
     4    18    19   ar
     5    14    16    1
     6    14    13   ar
     7    19    13   ar
     8    22    21    1
     9    13    12    1
    10    21    20    1
    11    11    10    2
    12    12     9    1
    13    10     9   ar
    14    10     1   ar
    15    20     1    1
    16     9     8   ar
    17     1     2   ar
    18     8     4   ar
    19     8     7   ar
    20     2     4   ar
    21     2     3    2
    22     4     5   ar
    23     7     6   ar
    24     5     6   ar
    25     5    23    1
    26    28    23   ar
    27    28    27   ar
    28    23    24   ar
    29    27    26   ar
    30    24    25   ar
    31    26    25   ar

@<TRIPOS>MOLECULE
ZINC33300679_replica-1.pdb
 28 31 0 0 0
SMALL
GASTEIGER

@<TRIPOS>ATOM
      1  N1        -0.1760   28.6170   55.6190 N.ar    0  <0>0       -0.2295
      2  C8        -0.7600   28.3870   56.8410 C.ar    0  <0>0        0.0844
      3  C9        -1.5760   27.3880   57.3620 C.ar    0  <0>0        0.0192
      4  C10       -1.9980   27.4660   58.6700 C.ar    0  <0>0        0.0015
      5  C11       -1.6230   28.5330   59.4750 C.ar    0  <0>0        0.0001
      6  C12       -0.8170   29.5230   58.9850 C.ar    0  <0>0        0.0032
      7  C13       -0.3790   29.4630   57.6650 C.ar    0  <0>0        0.0415
      8  C14        0.4600   30.3050   56.8000 C.ar    0  <0>0        0.1561
      9  N2         0.5050   29.7060   55.6300 N.ar    0  <0>0       -0.1605
     10  C15        1.1210   31.5670   57.1710 C.2     0  <0>0        0.2691
     11  O1         2.2590   31.5550   57.6040 O.2     0  <0>0       -0.2681
     12  N3         0.4660   32.7370   57.0320 N.am    0  <0>0       -0.2773
     13  H12       -0.5330   32.7560   56.5730 H       0  <0>0        0.1553
     14  C16        1.0580   33.9270   57.4720 C.ar    0  <0>0        0.0806
     15  C21        0.8590   34.3640   58.7770 C.ar    0  <0>0        0.1536
     16  C20        1.4490   35.5370   59.2100 C.ar    0  <0>0        0.0332
     17  F1         0.0940   33.6400   59.6230 F       0  <0>0       -0.2029
     18  C19        2.2270   36.2820   58.3430 C.ar    0  <0>0        0.0320
     19  C18        2.4220   35.8530   57.0400 C.ar    0  <0>0        0.1415
     20  C17        1.8390   34.6770   56.6040 C.ar    0  <0>0        0.0466
     21  F2         3.1830   36.5840   56.1950 F       0  <0>0       -0.2041
     22  C5        -0.3050   27.7750   54.5100 C.ar    0  <0>0        0.0828
     23  C4        -0.9960   28.2070   53.3850 C.ar    0  <0>0        0.0188
     24  C3        -1.1220   27.3720   52.2920 C.ar    0  <0>0       -0.0027
     25  C2        -0.5610   26.1090   52.3160 C.ar    0  <0>0       -0.0218
     26  C1        -0.7000   25.2020   51.1200 C.3     0  <0>0        0.0310
     27  C7         0.1290   25.6760   53.4330 C.ar    0  <0>0       -0.0027
     28  C6         0.2620   26.5070   54.5280 C.ar    0  <0>0        0.0188
@<TRIPOS>BOND
     1    26    25    1
     2    24    25   ar
     3    24    23   ar
     4    25    27   ar
     5    23    22   ar
     6    27    28   ar
     7    22    28   ar
     8    22     1    1
     9     1     9   ar
    10     1     2   ar
    11     9     8   ar
    12    21    19    1
    13    13    12    1
    14    20    19   ar
    15    20    14   ar
    16     8    10    1
    17     8     7   ar
    18     2     3   ar
    19     2     7   ar
    20    12    10   am
    21    12    14    1
    22    19    18   ar
    23    10    11    2
    24     3     4   ar
    25    14    15   ar
    26     7     6   ar
    27    18    16   ar
    28     4     5   ar
    29    15    16   ar
    30    15    17    1
    31     6     5   ar

@<TRIPOS>MOLECULE
ZINC20753297_replica-1.pdb
 39 45 0 0 0
SMALL
GASTEIGER

@<TRIPOS>ATOM
      1  C7         2.4750   32.5330   58.4090 C.ar    0  <0>0        0.1249
      2  C8         2.4520   33.2250   59.6050 C.ar    0  <0>0        0.0214
      3  C9         3.6320   33.6190   60.2020 C.ar    0  <0>0        0.0154
      4  C10        4.8520   33.3200   59.6070 C.ar    0  <0>0        0.0408
      5  C11        4.8680   32.6120   58.4010 C.ar    0  <0>0       -0.0080
      6  C12        3.6830   32.2300   57.8090 C.ar    0  <0>0        0.0171
      7  C13        6.1880   32.2940   57.8120 C.3     0  <0>0        0.0255
      8  C14        6.3680   32.0870   56.3530 C.3     0  <0>0        0.0045
      9  C15        7.5880   32.4850   56.0140 C.3     0  <0>0        0.0004
     10  C16        8.3190   33.0300   57.2420 C.3     0  <0>0        0.0023
     11  C17        7.1480   33.4810   58.1240 C.3     0  <0>0        0.0262
     12  C18        7.3580   33.4470   59.6280 C.3     0  <0>0        0.0921
     13  N2         6.0360   33.7460   60.2210 N.pl3   0  <0>0       -0.3308
     14  H17        5.9710   34.3130   61.1620 H       0  <0>0        0.1471
     15  C19        8.3610   34.4950   60.0370 C.ar    0  <0>0       -0.0046
     16  C28        8.1880   35.8220   59.6440 C.ar    0  <0>0       -0.0024
     17  C27        9.1650   36.8410   60.0420 C.ar    0  <0>0       -0.0003
     18  C29        7.0800   36.2130   58.8630 C.ar    0  <0>0       -0.0003
     19  C26       10.2710   36.4900   60.8130 C.ar    0  <0>0       -0.0000
     20  C32        8.9590   38.1750   59.6270 C.ar    0  <0>0       -0.0000
     21  C25       10.4440   35.1630   61.2050 C.ar    0  <0>0       -0.0003
     22  C20        9.4640   34.1450   60.8120 C.ar    0  <0>0       -0.0024
     23  C24       11.5520   34.7730   61.9870 C.ar    0  <0>0       -0.0000
     24  C21        9.6730   32.8110   61.2230 C.ar    0  <0>0       -0.0003
     25  C22       10.7610   32.5020   61.9740 C.ar    0  <0>0       -0.0000
     26  C23       11.6900   33.4730   62.3510 C.ar    0  <0>0       -0.0000
     27  C31        7.8720   38.4830   58.8770 C.ar    0  <0>0       -0.0000
     28  C30        6.9430   37.5130   58.4980 C.ar    0  <0>0       -0.0000
     29  S1         0.9650   32.0390   57.6480 S.O2    0  <0>0        0.0736
     30  O1         0.3450   31.1170   58.5350 O.2     0  <0>0       -0.1499
     31  O2         0.3200   33.2280   57.2130 O.2     0  <0>0       -0.1499
     32  N1         1.3600   31.1890   56.2820 N.pl3   0  <0>0       -0.2150
     33  H9         2.4040   31.1580   55.9370 H       0  <0>0        0.1737
     34  C4         0.3680   30.5130   55.5680 C.ar    0  <0>0        0.0648
     35  C3        -0.4770   31.2160   54.7160 C.ar    0  <0>0        0.0159
     36  C2        -1.4570   30.5450   54.0110 C.ar    0  <0>0        0.0013
     37  C1        -1.5980   29.1760   54.1520 C.ar    0  <0>0        0.0001
     38  C6        -0.7600   28.4750   54.9990 C.ar    0  <0>0        0.0013
     39  C5         0.2260   29.1380   55.7020 C.ar    0  <0>0        0.0159
@<TRIPOS>BOND
     1    36    37   ar
     2    36    35   ar
     3    37    38   ar
     4    35    34   ar
     5    38    39   ar
     6    34    39   ar
     7    34    32    1
     8    33    32    1
     9     9     8    1
    10     9    10    1
    11    32    29    1
    12     8     7    1
    13    31    29    2
    14    10    11    1
    15    29     1    1
    16    29    30    2
    17     6     5   ar
    18     6     1   ar
    19     7    11    1
    20     7     5    1
    21    11    12    1
    22     5     4   ar
    23     1     2   ar
    24    28    18   ar
    25    28    27   ar
    26    18    16   ar
    27    27    20   ar
    28     2     3   ar
    29     4     3   ar
    30     4    13    1
    31    20    17   ar
    32    12    15    1
    33    12    13    1
    34    16    15   ar
    35    16    17   ar
    36    15    22   ar
    37    17    19   ar
    38    13    14    1
    39    22    21   ar
    40    22    24   ar
    41    19    21   ar
    42    21    23   ar
    43    24    25   ar
    44    25    26   ar
    45    23    26   ar

@<TRIPOS>MOLECULE
ZINC11954282_replica-1.pdb
 24 25 0 0 0
SMALL
GASTEIGER

@<TRIPOS>ATOM
      1  C10        0.6580   31.5630   56.2730 C.3     0  <0>0        0.2525
      2  C9         0.0480   31.1930   54.9190 C.3     0  <0>0        0.2525
      3  O1        -0.9430   30.1800   55.1040 O.3     0  <0>0       -0.4714
      4  C4        -0.8300   29.0610   54.3410 C.ar    0  <0>0        0.1382
      5  C3        -0.1430   27.9580   54.8230 C.ar    0  <0>0        0.0335
      6  C2        -0.0300   26.8210   54.0460 C.ar    0  <0>0       -0.0086
      7  C1         0.7180   25.6220   54.5710 C.3     0  <0>0        0.0320
      8  C7        -0.6030   26.7820   52.7880 C.ar    0  <0>0        0.0499
      9  C6        -1.2900   27.8820   52.3040 C.ar    0  <0>0       -0.0086
     10 Cl         -0.4590   25.3530   51.8140 Cl      0  <0>0       -0.0829
     11  C5        -1.4090   29.0190   53.0810 C.ar    0  <0>0        0.0335
     12  C8        -1.9140   27.8370   50.9330 C.3     0  <0>0        0.0320
     13  O2         0.3700   32.9310   56.5680 O.3     0  <0>0       -0.4714
     14  C11        0.5520   33.3360   57.8500 C.ar    0  <0>0        0.1403
     15  C16        0.9140   34.6630   58.1240 C.ar    0  <0>0        0.0535
     16  C15        1.0970   35.0680   59.4490 C.ar    0  <0>0        0.0048
     17  C14        0.9230   34.1650   60.4750 C.ar    0  <0>0        0.0003
     18  C13        0.5660   32.8550   60.1990 C.ar    0  <0>0        0.0031
     19  C12        0.3750   32.4420   58.8950 C.ar    0  <0>0        0.0370
     20  C17        1.0980   35.6230   57.0220 C.2     0  <0>0        0.0810
     21  S1         2.6760   36.0580   56.5200 S.2     0  <0>0       -0.0351
     22  N1         0.0250   36.1590   56.4090 N.am    0  <0>0       -0.3516
     23  H17       -0.8700   35.9130   56.6930 H       0  <0>0        0.1428
     24  H18        0.1460   36.7920   55.6840 H       0  <0>0        0.1428
@<TRIPOS>BOND
     1    12     9    1
     2    10     8    1
     3     9     8   ar
     4     9    11   ar
     5     8     6   ar
     6    11     4   ar
     7     6     7    1
     8     6     5   ar
     9     4     5   ar
    10     4     3    1
    11     2     3    1
    12     2     1    1
    13    24    22    1
    14     1    13    1
    15    22    23    1
    16    22    20    1
    17    21    20    2
    18    13    14    1
    19    20    15    1
    20    14    15   ar
    21    14    19   ar
    22    15    16   ar
    23    19    18   ar
    24    16    17   ar
    25    18    17   ar

@<TRIPOS>MOLECULE
ZINC38610386_replica-1.pdb
 35 39 0 0 0
SMALL
GASTEIGER

@<TRIPOS>ATOM
      1  C10        9.1480   35.2110   58.1440 C.3     0  <0>0        0.1242
      2  C11        9.3980   35.9620   59.4220 C.ar    0  <0>0        0.0408
      3  C12        9.8970   35.9340   60.7290 C.ar    0  <0>0        0.1030
      4  N1         9.7190   37.1340   61.2450 N.ar    0  <0>0       -0.1727
      5  N2         9.1550   37.9170   60.3950 N.ar    0  <0>0       -0.2716
      6  H2         8.9280   38.8450   60.5580 H       0  <0>0        0.1891
      7  C13        8.9240   37.2460   59.2280 C.ar    0  <0>0        0.1266
      8  C14        8.3820   37.3420   57.8680 C.2     0  <0>0        0.2666
      9  O1         7.8890   38.3440   57.3860 O.2     0  <0>0       -0.2683
     10  N3         8.5080   36.1640   57.2280 N.am    0  <0>0       -0.2647
     11  C7         8.2340   34.0410   58.3990 C.ar    0  <0>0       -0.0000
     12  C6         8.5600   32.7890   57.9110 C.ar    0  <0>0       -0.0027
     13  C5         7.7210   31.7160   58.1460 C.ar    0  <0>0       -0.0045
     14  C4         6.5560   31.8950   58.8680 C.ar    0  <0>0       -0.0225
     15  C9         6.2270   33.1470   59.3500 C.ar    0  <0>0       -0.0045
     16  C8         7.0680   34.2200   59.1190 C.ar    0  <0>0       -0.0027
     17  C2         5.6410   30.7250   59.1240 C.3     0  <0>0        0.0224
     18  C1         4.2360   31.0550   58.6150 C.3     0  <0>0        0.0047
     19  C3         6.1720   29.4920   58.3880 C.3     0  <0>0        0.0047
     20  C15        8.0800   35.8810   55.8560 C.3     0  <0>0        0.1210
     21  C16        6.6970   35.2830   55.8740 C.ar    0  <0>0       -0.0023
     22  C21        6.4960   33.9950   55.4150 C.ar    0  <0>0       -0.0017
     23  C20        5.2280   33.4440   55.4360 C.ar    0  <0>0        0.0111
     24  C19        4.1590   34.1850   55.9060 C.ar    0  <0>0        0.0577
     25  C18        4.3610   35.4770   56.3600 C.ar    0  <0>0        0.0111
     26 Cl          2.5660   33.4960   55.9270 Cl      0  <0>0       -0.0822
     27  C17        5.6300   36.0250   56.3440 C.ar    0  <0>0       -0.0017
     28  C22       10.5160   34.7690   61.4070 C.ar    0  <0>0        0.0528
     29  C27       11.6210   34.9500   62.2440 C.ar    0  <0>0        0.1351
     30  C26       12.1890   33.8570   62.8800 C.ar    0  <0>0        0.0367
     31  C25       11.6720   32.5920   62.6770 C.ar    0  <0>0        0.0031
     32  C24       10.5810   32.4090   61.8450 C.ar    0  <0>0        0.0002
     33  C23       10.0020   33.4900   61.2100 C.ar    0  <0>0        0.0046
     34  O2        12.1340   36.1930   62.4380 O.3     0  <0>0       -0.5055
     35  H24       12.5830   36.3060   63.2870 H       0  <0>0        0.2922
@<TRIPOS>BOND
     1    22    23   ar
     2    22    21   ar
     3    23    24   ar
     4    20    21    1
     5    20    10    1
     6    21    27   ar
     7    24    26    1
     8    24    25   ar
     9    27    25   ar
    10    10     8   am
    11    10     1    1
    12     9     8    2
    13     8     7    1
    14    12    13   ar
    15    12    11   ar
    16     1    11    1
    17     1     2    1
    18    13    14   ar
    19    19    17    1
    20    11    16   ar
    21    18    17    1
    22    14    17    1
    23    14    15   ar
    24    16    15   ar
    25     7     2   ar
    26     7     5   ar
    27     2     3   ar
    28     5     6    1
    29     5     4   ar
    30     3     4   ar
    31     3    28    1
    32    33    28   ar
    33    33    32   ar
    34    28    29   ar
    35    32    31   ar
    36    29    34    1
    37    29    30   ar
    38    34    35    1
    39    31    30   ar

@<TRIPOS>MOLECULE
ZINC40041923_replica-1.pdb
 27 30 0 0 0
SMALL
GASTEIGER

@<TRIPOS>ATOM
      1  N1         7.6520   36.5710   57.9880 N.am    0  <0>0       -0.2675
      2  C4         7.6740   35.1140   58.1930 C.3     0  <0>0        0.1270
      3  C5         8.7850   34.8540   59.1550 C.ar    0  <0>0        0.0780
      4  C6         9.2830   33.6060   59.7440 C.ar    0  <0>0        0.1995
      5  O1         8.9260   32.5030   59.3690 O.2     0  <0>0       -0.2866
      6  C7        10.2620   33.8150   60.8400 C.ar    0  <0>0        0.0730
      7  C8        10.6760   32.7430   61.6300 C.ar    0  <0>0        0.0020
      8  C9        11.5750   32.9530   62.6400 C.ar    0  <0>0       -0.0219
      9  C10       12.0740   34.2260   62.8780 C.ar    0  <0>0       -0.0011
     10  C11       11.6780   35.2950   62.1050 C.ar    0  <0>0        0.0373
     11  C12       10.7630   35.1060   61.0690 C.ar    0  <0>0        0.1485
     12  O2        10.3950   36.1690   60.3170 O.2     0  <0>0       -0.4489
     13  C13        9.3530   36.0560   59.4690 C.ar    0  <0>0        0.1994
     14  C14        8.6380   37.1130   58.7320 C.2     0  <0>0        0.2840
     15  O3         8.8970   38.2980   58.7890 O.2     0  <0>0       -0.2666
     16  C17        6.3620   34.6510   58.7720 C.ar    0  <0>0        0.0001
     17  C22        5.5050   33.8760   58.0130 C.ar    0  <0>0       -0.0018
     18  C21        4.3050   33.4480   58.5460 C.ar    0  <0>0        0.0064
     19  C20        3.9560   33.8020   59.8370 C.ar    0  <0>0        0.0345
     20  C19        4.8110   34.5820   60.5950 C.ar    0  <0>0        0.0064
     21 Br          2.3100   33.2210   60.5650 Br      0  <0>0       -0.0490
     22  C18        6.0140   35.0050   60.0620 C.ar    0  <0>0       -0.0018
     23  C3         6.7260   37.3050   57.1210 C.3     0  <0>0        0.0944
     24  C2         7.4360   37.6810   55.8180 C.3     0  <0>0        0.0215
     25  C1         7.5740   36.4380   54.9360 C.3     0  <0>0        0.0018
     26  C15       12.0250   31.7980   63.4960 C.3     0  <0>0        0.0264
     27  C16       13.5520   31.7080   63.4700 C.3     0  <0>0        0.0050
@<TRIPOS>BOND
     1    25    24    1
     2    24    23    1
     3    23     1    1
     4     1     2    1
     5     1    14   am
     6    17    18   ar
     7    17    16   ar
     8     2    16    1
     9     2     3    1
    10    18    19   ar
    11    14    15    2
    12    14    13    1
    13    16    22   ar
    14     3    13   ar
    15     3     4   ar
    16     5     4    2
    17    13    12   ar
    18     4     6   ar
    19    19    21    1
    20    19    20   ar
    21    22    20   ar
    22    12    11   ar
    23     6    11   ar
    24     6     7   ar
    25    11    10   ar
    26     7     8   ar
    27    10     9   ar
    28     8     9   ar
    29     8    26    1
    30    27    26    1

@<TRIPOS>MOLECULE
ZINC27799331_replica-1.pdb
 31 32 0 0 0
SMALL
GASTEIGER

@<TRIPOS>ATOM
      1  C9         7.8830   36.1220   58.2650 C.3     0  <0>0        0.1491
      2  N1         6.6910   35.2940   58.4670 N.am    0  <0>0       -0.2948
      3  C8         5.7340   35.6880   59.3310 C.2     0  <0>0        0.2458
      4  O1         5.8160   36.7720   59.8740 O.2     0  <0>0       -0.2701
      5  H9         6.5760   34.3500   57.9140 H       0  <0>0        0.1501
      6  C7         4.5860   34.8020   59.6180 C.ar    0  <0>0        0.0494
      7  C2         3.4060   34.9250   58.8830 C.ar    0  <0>0       -0.0175
      8  C1         3.2990   35.9610   57.7940 C.3     0  <0>0        0.0312
      9  C3         2.3380   34.0950   59.1560 C.ar    0  <0>0       -0.0041
     10  C4         2.4350   33.1430   60.1550 C.ar    0  <0>0       -0.0003
     11  C5         3.6030   33.0160   60.8880 C.ar    0  <0>0        0.0001
     12  C6         4.6790   33.8360   60.6210 C.ar    0  <0>0        0.0042
     13  C10        8.2910   36.0750   56.7910 C.3     0  <0>0        0.0290
     14  C11        8.1080   37.4610   56.1670 C.3     0  <0>0        0.0021
     15  C12        6.6440   37.6480   55.7640 C.3     0  <0>0        0.0001
     16  C13        8.4970   38.5340   57.1860 C.3     0  <0>0        0.0001
     17  C14        9.0090   35.5960   59.1170 C.2     0  <0>0        0.2440
     18  O2         9.9410   35.0170   58.6010 O.2     0  <0>0       -0.2730
     19  N2         8.9820   35.7720   60.4530 N.am    0  <0>0       -0.2826
     20  H19        8.1010   36.2270   60.9290 H       0  <0>0        0.1549
     21  C15       10.0740   35.3750   61.2350 C.ar    0  <0>0        0.0505
     22  C20       10.3810   34.0280   61.3670 C.ar    0  <0>0        0.0178
     23  C19       11.4580   33.6380   62.1380 C.ar    0  <0>0        0.0385
     24  C18       12.2340   34.5910   62.7810 C.ar    0  <0>0        0.1469
     25  C17       11.9270   35.9380   62.6500 C.ar    0  <0>0        0.0385
     26  C16       10.8540   36.3300   61.8740 C.ar    0  <0>0        0.0178
     27  O3        13.2940   34.2070   63.5400 O.3     0  <0>0       -0.4045
     28  C21       14.3970   33.6070   62.8580 C.3     0  <0>0        0.5753
     29  F1        15.5910   33.9860   63.4810 F       0  <0>0       -0.1328
     30  F2        14.2700   32.2150   62.9000 F       0  <0>0       -0.1328
     31  F3        14.4100   34.0340   61.5260 F       0  <0>0       -0.1328
@<TRIPOS>BOND
     1    15    14    1
     2    14    13    1
     3    14    16    1
     4    13     1    1
     5     8     7    1
     6     5     2    1
     7     1     2    1
     8     1    17    1
     9     2     3   am
    10    18    17    2
    11     7     9   ar
    12     7     6   ar
    13    17    19   am
    14     9    10   ar
    15     3     6    1
    16     3     4    2
    17     6    12   ar
    18    10    11   ar
    19    19    20    1
    20    19    21    1
    21    12    11   ar
    22    21    22   ar
    23    21    26   ar
    24    22    23   ar
    25    31    28    1
    26    26    25   ar
    27    23    24   ar
    28    25    24   ar
    29    24    27    1
    30    28    30    1
    31    28    29    1
    32    28    27    1

@<TRIPOS>MOLECULE
ZINC14477069_replica-1.pdb
 35 39 0 0 0
SMALL
GASTEIGER

@<TRIPOS>ATOM
      1  C8         1.7620   32.4810   58.6780 C.ar    0  <0>0        0.1249
      2  C9         2.3280   32.6660   57.4290 C.ar    0  <0>0        0.0214
      3  C10        1.8680   31.9430   56.3470 C.ar    0  <0>0        0.0154
      4  C11        0.8310   31.0320   56.5000 C.ar    0  <0>0        0.0408
      5  C12        0.2540   30.8610   57.7640 C.ar    0  <0>0       -0.0080
      6  C13        0.7240   31.5830   58.8400 C.ar    0  <0>0        0.0171
      7  C14       -0.8660   29.9020   57.8790 C.3     0  <0>0        0.0255
      8  C15       -1.1790   29.2110   59.1560 C.3     0  <0>0        0.0045
      9  C16       -1.6870   28.0170   58.8790 C.3     0  <0>0        0.0004
     10  C17       -1.7200   27.8010   57.3640 C.3     0  <0>0        0.0023
     11  C18       -0.5890   28.7250   56.8960 C.3     0  <0>0        0.0262
     12  C19       -0.7120   29.3220   55.5060 C.3     0  <0>0        0.0929
     13  N2         0.3950   30.2970   55.3910 N.pl3   0  <0>0       -0.3308
     14  H18        0.8260   30.4310   54.5320 H       0  <0>0        0.1471
     15  S1         2.3600   33.3960   60.0610 S.O2    0  <0>0        0.0736
     16  O1         1.3060   33.4290   61.0120 O.2     0  <0>0       -0.1499
     17  O2         2.9540   34.5780   59.5390 O.2     0  <0>0       -0.1499
     18  N1         3.5830   32.5110   60.7410 N.pl3   0  <0>0       -0.2156
     19  H10        3.9130   32.7380   61.6240 H       0  <0>0        0.1737
     20  C7         4.1400   31.4370   60.0410 C.ar    0  <0>0        0.0568
     21  C2         5.2130   31.6460   59.1850 C.ar    0  <0>0       -0.0075
     22  C1         5.7780   33.0320   59.0070 C.3     0  <0>0        0.0324
     23  C3         5.7620   30.5820   58.4960 C.ar    0  <0>0       -0.0030
     24  C4         5.2410   29.3120   58.6540 C.ar    0  <0>0       -0.0006
     25  C5         4.1770   29.0990   59.5110 C.ar    0  <0>0       -0.0030
     26  C6         3.6230   30.1580   60.2030 C.ar    0  <0>0       -0.0075
     27  C26        2.4590   29.9270   61.1310 C.3     0  <0>0        0.0324
     28  C20       -0.5700   28.2450   54.4610 C.ar    0  <0>0        0.0068
     29  C25       -1.2230   28.3670   53.2480 C.ar    0  <0>0        0.0658
     30  C24       -1.0870   27.3800   52.2870 C.ar    0  <0>0        0.0679
     31 Cl         -2.2060   29.7630   52.9270 Cl      0  <0>0       -0.0816
     32  C23       -0.3100   26.2660   52.5460 C.ar    0  <0>0        0.0122
     33 Cl         -1.8990   27.5370   50.7600 Cl      0  <0>0       -0.0814
     34  C22        0.3370   26.1430   53.7620 C.ar    0  <0>0        0.0006
     35  C21        0.2070   27.1310   54.7180 C.ar    0  <0>0       -0.0018
@<TRIPOS>BOND
     1    33    30    1
     2    30    32   ar
     3    30    29   ar
     4    32    34   ar
     5    31    29    1
     6    29    28   ar
     7    34    35   ar
     8    28    35   ar
     9    28    12    1
    10    14    13    1
    11    13    12    1
    12    13     4    1
    13    12    11    1
    14     3     4   ar
    15     3     2   ar
    16     4     5   ar
    17    11    10    1
    18    11     7    1
    19    10     9    1
    20     2     1   ar
    21     5     7    1
    22     5     6   ar
    23     7     8    1
    24    23    24   ar
    25    23    21   ar
    26    24    25   ar
    27     1     6   ar
    28     1    15    1
    29     9     8    1
    30    22    21    1
    31    21    20   ar
    32    25    26   ar
    33    17    15    2
    34    20    26   ar
    35    20    18    1
    36    15    18    1
    37    15    16    2
    38    26    27    1
    39    18    19    1

@<TRIPOS>MOLECULE
ZINC49924741_replica-1.pdb
 25 26 0 0 0
SMALL
GASTEIGER

@<TRIPOS>ATOM
      1  C10       -0.8170   29.7810   55.5430 C.3     0  <0>0        0.1338
      2  C9        -0.2410   31.0340   54.8790 C.3     0  <0>0        0.0549
      3  C8         0.6230   31.7940   55.8870 C.3     0  <0>0        0.0899
      4  N1        -0.2370   32.4160   56.8970 N.pl3   0  <0>0       -0.3331
      5  H8        -1.1860   32.5210   56.7270 H       0  <0>0        0.1468
      6  C7         0.3110   32.8570   58.1040 C.ar    0  <0>0        0.0365
      7  C2         0.6510   34.1940   58.2670 C.ar    0  <0>0       -0.0090
      8  C1         0.4310   35.1710   57.1410 C.3     0  <0>0        0.0323
      9  C3         1.1870   34.6270   59.4640 C.ar    0  <0>0       -0.0031
     10  C4         1.3900   33.7310   60.4970 C.ar    0  <0>0       -0.0006
     11  C5         1.0560   32.3990   60.3370 C.ar    0  <0>0       -0.0031
     12  C6         0.5210   31.9590   59.1430 C.ar    0  <0>0       -0.0090
     13  C21        0.1570   30.5060   58.9680 C.3     0  <0>0        0.0323
     14  C11       -0.6910   28.6110   54.6020 C.ar    0  <0>0       -0.0042
     15  C16       -1.2470   28.6760   53.3380 C.ar    0  <0>0       -0.0278
     16  C15       -1.1280   27.6030   52.4760 C.ar    0  <0>0       -0.0263
     17  C17       -1.9790   29.9180   52.9010 C.3     0  <0>0        0.0304
     18  C14       -0.4610   26.4620   52.8790 C.ar    0  <0>0       -0.0092
     19  C18       -1.7290   27.6760   51.0950 C.3     0  <0>0        0.0307
     20  C13        0.0910   26.3940   54.1440 C.ar    0  <0>0       -0.0263
     21  C12       -0.0240   27.4680   55.0060 C.ar    0  <0>0       -0.0278
     22  C19        0.8190   25.1500   54.5840 C.3     0  <0>0        0.0307
     23  C20        0.5780   27.3960   56.3860 C.3     0  <0>0        0.0304
     24  O1        -2.1950   29.9970   55.8540 O.3     0  <0>0       -0.3800
     25  H26       -2.3480   30.7210   56.4770 H       0  <0>0        0.2108
@<TRIPOS>BOND
     1    19    16    1
     2    16    18   ar
     3    16    15   ar
     4    18    20   ar
     5    17    15    1
     6    15    14   ar
     7    20    22    1
     8    20    21   ar
     9    14    21   ar
    10    14     1    1
    11     2     1    1
    12     2     3    1
    13    21    23    1
    14     1    24    1
    15    24    25    1
    16     3     4    1
    17     5     4    1
    18     4     6    1
    19     8     7    1
    20     6     7   ar
    21     6    12   ar
    22     7     9   ar
    23    13    12    1
    24    12    11   ar
    25     9    10   ar
    26    11    10   ar

@<TRIPOS>MOLECULE
ZINC41435432_replica-1.pdb
 31 35 0 0 0
SMALL
GASTEIGER

@<TRIPOS>ATOM
      1  C10        0.6120   31.8130   56.5490 C.ar    0  <0>0        0.1116
      2  C11        0.6420   33.1810   56.3280 C.ar    0  <0>0        0.0126
      3  C12        1.6530   33.9400   56.9700 C.ar    0  <0>0        0.0352
      4  C13        1.6130   35.3430   56.9450 C.ar    0  <0>0        0.0062
      5  C14        2.5680   36.0600   57.6020 C.ar    0  <0>0        0.0371
      6  C15        3.5910   35.4130   58.2920 C.ar    0  <0>0        0.1421
      7  C16        3.6590   34.0290   58.3120 C.ar    0  <0>0        0.0745
      8  C17        2.7010   33.2830   57.6440 C.ar    0  <0>0        0.1517
      9  O1         2.7800   31.9300   57.6190 O.2     0  <0>0       -0.4209
     10  C18        1.6160   31.2530   57.4720 C.ar    0  <0>0        0.3487
     11  O2         1.4060   30.2170   58.0750 O.2     0  <0>0       -0.2444
     12  C9        -0.3890   30.9520   55.8910 C.2     0  <0>0        0.1632
     13  S1        -2.1680   30.9540   56.0600 S.3     0  <0>0       -0.0746
     14  C8        -2.5020   29.6160   54.9220 C.3     0  <0>0        0.1233
     15  C7        -1.2290   29.2980   54.5240 C.2     0  <0>0        0.1208
     16  N1        -0.2070   29.9690   55.0220 N.2     0  <0>0       -0.3989
     17  C4        -1.0030   28.2030   53.5480 C.ar    0  <0>0        0.0263
     18  C3        -0.2840   27.0700   53.9230 C.ar    0  <0>0        0.0022
     19  C2        -0.0770   26.0550   53.0120 C.ar    0  <0>0        0.0001
     20  C1        -0.5800   26.1610   51.7270 C.ar    0  <0>0        0.0000
     21  C6        -1.2940   27.2830   51.3500 C.ar    0  <0>0        0.0001
     22  C5        -1.5070   28.3050   52.2530 C.ar    0  <0>0        0.0022
     23  O3         4.5280   36.1430   58.9500 O.3     0  <0>0       -0.4705
     24  C19        5.8660   35.6420   58.9380 C.3     0  <0>0        0.2342
     25  C20        6.7770   36.6560   58.2950 C.ar    0  <0>0        0.0486
     26  C25        7.1350   37.8020   58.9860 C.ar    0  <0>0        0.1396
     27  C24        7.9750   38.7310   58.3950 C.ar    0  <0>0        0.0294
     28  F1         6.6680   38.0100   60.2360 F       0  <0>0       -0.2044
     29  C23        8.4470   38.5180   57.1140 C.ar    0  <0>0        0.0023
     30  C22        8.0840   37.3770   56.4230 C.ar    0  <0>0       -0.0001
     31  C21        7.2500   36.4470   57.0130 C.ar    0  <0>0        0.0016
@<TRIPOS>BOND
     1    21    20   ar
     2    21    22   ar
     3    20    19   ar
     4    22    17   ar
     5    19    18   ar
     6    17    18   ar
     7    17    15    1
     8    15    14    1
     9    15    16    2
    10    14    13    1
    11    16    12    2
    12    12    13    1
    13    12     1    1
    14     2     1   ar
    15     2     3   ar
    16    30    31   ar
    17    30    29   ar
    18     1    10   ar
    19     4     3   ar
    20     4     5   ar
    21     3     8   ar
    22    31    25   ar
    23    29    27   ar
    24    10     9   ar
    25    10    11    2
    26     5     6   ar
    27     9     8   ar
    28     8     7   ar
    29     6     7   ar
    30     6    23    1
    31    25    24    1
    32    25    26   ar
    33    27    26   ar
    34    24    23    1
    35    26    28    1

@<TRIPOS>MOLECULE
ZINC40734952_replica-1.pdb
 30 32 0 0 0
SMALL
GASTEIGER

@<TRIPOS>ATOM
      1  C9         9.6920   35.8200   60.2660 C.ar    0  <0>0        0.1330
      2  C10        9.6400   37.1870   60.5580 C.ar    0  <0>0        0.0365
      3  C11        9.1200   38.0730   59.6660 C.ar    0  <0>0        0.0031
      4  C12        8.6260   37.6120   58.4340 C.ar    0  <0>0       -0.0002
      5  C13        8.0820   38.5000   57.4900 C.ar    0  <0>0       -0.0000
      6  C14        7.6120   38.0200   56.3060 C.ar    0  <0>0       -0.0000
      7  C15        7.6630   36.6580   56.0130 C.ar    0  <0>0       -0.0000
      8  C16        8.1830   35.7700   56.9030 C.ar    0  <0>0       -0.0003
      9  C17        8.6770   36.2270   58.1360 C.ar    0  <0>0       -0.0031
     10  C18        9.2250   35.3400   59.0760 C.ar    0  <0>0       -0.0097
     11  C19        9.2940   33.8650   58.7750 C.3     0  <0>0       -0.0512
     12  N1         8.3900   33.1390   59.6770 N.4     0  <0>0        0.3866
     13  H18        8.9270   32.6940   60.4050 H       0  <0>0       -0.0840
     14  H32        7.7350   33.7860   60.0900 H       0  <0>0       -0.0840
     15  C20        7.6560   32.1180   58.9160 C.3     0  <0>0       -0.0787
     16  C21        6.4890   32.7750   58.1760 C.3     0  <0>0        0.0088
     17  C22        5.5000   33.3510   59.1910 C.3     0  <0>0        0.1399
     18  O2         5.9510   34.6380   59.6170 O.3     0  <0>0       -0.3563
     19  C23        4.9710   35.6700   59.4840 C.3     0  <0>0        0.1154
     20  C24        5.5270   36.9780   60.0520 C.3     0  <0>0        0.0320
     21  C25        4.6290   35.8610   58.0050 C.3     0  <0>0        0.0320
     22  O1        10.2180   34.9600   61.1770 O.3     0  <0>0       -0.4710
     23  C8        11.3230   35.4300   61.9510 C.3     0  <0>0        0.2320
     24  C6        12.1730   34.2600   62.3750 C.ar    0  <0>0        0.0208
     25  C5        13.5510   34.3550   62.3310 C.ar    0  <0>0       -0.0007
     26  C4        14.3320   33.2820   62.7200 C.ar    0  <0>0       -0.0005
     27  C3        13.7330   32.1150   63.1540 C.ar    0  <0>0       -0.0043
     28  C2        12.3550   32.0190   63.2000 C.ar    0  <0>0       -0.0220
     29  C1        11.7020   30.7450   63.6720 C.3     0  <0>0        0.0310
     30  C7        11.5750   33.0910   62.8050 C.ar    0  <0>0       -0.0049
@<TRIPOS>BOND
     1     7     6   ar
     2     7     8   ar
     3     6     5   ar
     4     8     9   ar
     5     5     4   ar
     6    21    19    1
     7     9     4   ar
     8     9    10   ar
     9    16    15    1
    10    16    17    1
    11     4     3   ar
    12    11    10    1
    13    11    12    1
    14    15    12    1
    15    10     1   ar
    16    17    18    1
    17    19    18    1
    18    19    20    1
    19     3     2   ar
    20    12    14    1
    21    12    13    1
    22     1     2   ar
    23     1    22    1
    24    22    23    1
    25    23    24    1
    26    25    24   ar
    27    25    26   ar
    28    24    30   ar
    29    26    27   ar
    30    30    28   ar
    31    27    28   ar
    32    28    29    1

@<TRIPOS>MOLECULE
ZINC05849090_replica-1.pdb
 31 33 0 0 0
SMALL
GASTEIGER

@<TRIPOS>ATOM
      1  N2         0.1180   33.1300   55.9100 N.am    0  <0>0       -0.2302
      2  C12       -0.1070   31.9030   56.4200 C.2     0  <0>0        0.2614
      3  O3        -0.1690   31.7460   57.6230 O.2     0  <0>0       -0.2686
      4  H15        0.1680   33.2560   54.9500 H       0  <0>0        0.1731
      5  N1         0.2820   34.2250   56.7690 N.am    0  <0>0       -0.2306
      6  C11        1.4910   34.8080   56.8960 C.2     0  <0>0        0.2825
      7  O2         2.4380   34.3810   56.2690 O.2     0  <0>0       -0.2695
      8  H14       -0.4750   34.5640   57.2740 H       0  <0>0        0.1729
      9  C10        1.6680   35.9850   57.8190 C.3     0  <0>0        0.2909
     10  O1         2.4470   35.5920   58.9490 O.3     0  <0>0       -0.4656
     11  C7         1.9890   34.5410   59.6790 C.ar    0  <0>0        0.1393
     12  C6         0.7140   34.5790   60.2250 C.ar    0  <0>0        0.0366
     13  C5         0.2490   33.5110   60.9680 C.ar    0  <0>0       -0.0012
     14  C4         1.0540   32.4030   61.1660 C.ar    0  <0>0       -0.0223
     15  C9         2.3250   32.3640   60.6230 C.ar    0  <0>0       -0.0012
     16  C8         2.7910   33.4280   59.8760 C.ar    0  <0>0        0.0366
     17  C2         0.5440   31.2390   61.9760 C.3     0  <0>0        0.0224
     18  C1        -0.4310   31.7470   63.0410 C.3     0  <0>0        0.0047
     19  C3        -0.1770   30.2540   61.0530 C.3     0  <0>0        0.0047
     20  C13       -0.2790   30.7480   55.5140 C.ar    0  <0>0        0.0548
     21  C18        0.4010   29.5550   55.7660 C.ar    0  <0>0        0.0046
     22  C17        0.2400   28.4800   54.9220 C.ar    0  <0>0        0.0001
     23  C16       -0.6030   28.5810   53.8140 C.ar    0  <0>0        0.0000
     24  C15       -1.2840   29.7720   53.5630 C.ar    0  <0>0        0.0001
     25  C14       -1.1280   30.8480   54.4080 C.ar    0  <0>0        0.0046
     26  C19       -0.7760   27.4230   52.9060 C.ar    0  <0>0        0.0000
     27  C24       -1.5200   27.5580   51.7350 C.ar    0  <0>0        0.0000
     28  C23       -1.6780   26.4760   50.8920 C.ar    0  <0>0        0.0000
     29  C22       -1.0990   25.2600   51.2080 C.ar    0  <0>0        0.0000
     30  C21       -0.3600   25.1200   52.3690 C.ar    0  <0>0        0.0000
     31  C20       -0.1920   26.1960   53.2160 C.ar    0  <0>0        0.0000
@<TRIPOS>BOND
     1    28    29   ar
     2    28    27   ar
     3    29    30   ar
     4    27    26   ar
     5    30    31   ar
     6    26    31   ar
     7    26    23    1
     8    24    23   ar
     9    24    25   ar
    10    23    22   ar
    11    25    20   ar
    12    22    21   ar
    13     4     1    1
    14    20    21   ar
    15    20     2    1
    16     1     2   am
    17     1     5    1
    18     7     6    2
    19     2     3    2
    20     5     6   am
    21     5     8    1
    22     6     9    1
    23     9    10    1
    24    10    11    1
    25    11    16   ar
    26    11    12   ar
    27    16    15   ar
    28    12    13   ar
    29    15    14   ar
    30    13    14   ar
    31    19    17    1
    32    14    17    1
    33    17    18    1

@<TRIPOS>MOLECULE
ZINC38680124_replica-1.pdb
 33 36 0 0 0
SMALL
GASTEIGER

@<TRIPOS>ATOM
      1  C9         5.6610   36.5480   60.1300 C.ar    0  <0>0        0.1518
      2  C10        5.7030   35.3210   60.7770 C.ar    0  <0>0        0.0375
      3  C11        4.8250   34.3190   60.4150 C.ar    0  <0>0        0.0025
      4  C12        3.9010   34.5320   59.4070 C.ar    0  <0>0        0.0214
      5  C13        3.8540   35.7550   58.7580 C.ar    0  <0>0        0.1465
      6  C14        4.7330   36.7660   59.1250 C.ar    0  <0>0        0.0748
      7  O3         2.9550   35.9830   57.7690 O.3     0  <0>0       -0.4402
      8  C15        2.3710   34.9490   57.1430 C.2     0  <0>0        0.1989
      9  C16        2.3360   33.7090   57.6870 C.2     0  <0>0        0.1027
     10  C17        2.9520   33.4260   59.0270 C.3     0  <0>0        0.0868
     11  C24        1.6970   32.6460   56.9690 C.1     0  <0>0        0.1011
     12  N1         1.1920   31.8040   56.4010 N.1     0  <0>0       -0.1910
     13  N2         1.7910   35.1540   55.9150 N.pl3   0  <0>0       -0.3284
     14  H15        1.1170   35.8430   55.8060 H       0  <0>0        0.1451
     15  H16        2.0560   34.6110   55.1570 H       0  <0>0        0.1451
     16  C18        1.8640   33.3230   60.0650 C.ar    0  <0>0        0.0246
     17  C23        1.7430   32.1780   60.8290 C.ar    0  <0>0        0.0565
     18  C22        0.7470   32.0870   61.7860 C.ar    0  <0>0        0.0112
     19 Cl          2.8450   30.8570   60.5940 Cl      0  <0>0       -0.0825
     20  C21       -0.1340   33.1350   61.9700 C.ar    0  <0>0        0.0032
     21  C20       -0.0180   34.2790   61.2040 C.ar    0  <0>0        0.0294
     22  C19        0.9810   34.3750   60.2500 C.ar    0  <0>0        0.1376
     23  F1         1.0960   35.4930   59.5000 F       0  <0>0       -0.2045
     24  O2         6.5240   37.5360   60.4870 O.3     0  <0>0       -0.4209
     25  C8         7.6640   37.6630   59.7800 C.2     0  <0>0        0.3457
     26  O1         7.7670   38.5360   58.9430 O.2     0  <0>0       -0.2445
     27  C6         8.7910   36.7380   60.0250 C.ar    0  <0>0        0.0757
     28  C5         9.0500   35.6970   59.1320 C.ar    0  <0>0        0.0064
     29  C4        10.1040   34.8370   59.3660 C.ar    0  <0>0       -0.0001
     30  C3        10.9030   35.0070   60.4830 C.ar    0  <0>0       -0.0043
     31  C2        10.6510   36.0380   61.3730 C.ar    0  <0>0       -0.0216
     32  C1        11.5270   36.2130   62.5870 C.3     0  <0>0        0.0310
     33  C7         9.5970   36.9000   61.1540 C.ar    0  <0>0        0.0022
@<TRIPOS>BOND
     1    15    13    1
     2    14    13    1
     3    13     8    1
     4    12    11    3
     5    11     9    1
     6     8     9    2
     7     8     7    1
     8     9    10    1
     9     7     5    1
    10     5     6   ar
    11     5     4   ar
    12    26    25    2
    13    10     4    1
    14    10    16    1
    15     6     1   ar
    16    28    29   ar
    17    28    27   ar
    18    29    30   ar
    19     4     3   ar
    20    23    22    1
    21    25    27    1
    22    25    24    1
    23    27    33   ar
    24    16    22   ar
    25    16    17   ar
    26     1    24    1
    27     1     2   ar
    28    22    21   ar
    29     3     2   ar
    30    30    31   ar
    31    19    17    1
    32    17    18   ar
    33    33    31   ar
    34    21    20   ar
    35    31    32    1
    36    18    20   ar

@<TRIPOS>MOLECULE
ZINC12290998_replica-1.pdb
 28 32 0 0 0
SMALL
GASTEIGER

@<TRIPOS>ATOM
      1  S1         8.5510   36.9960   60.0260 S.3     0  <0>0        0.0506
      2  O1         8.3640   36.5700   61.3680 O.3     0  <0>0       -0.0570
      3  O2         8.8820   38.3370   59.6910 O.3     0  <0>0       -0.0570
      4  C7         7.0620   36.6150   59.1650 C.ar    0  <0>0        0.1203
      5  C5         7.0730   36.4660   57.7670 C.ar    0  <0>0        0.0190
      6  C4         5.8660   36.1550   57.0920 C.ar    0  <0>0        0.0075
      7  C6         8.2610   36.6030   57.0280 C.ar    0  <0>0        0.0013
      8  C3         5.8790   36.0000   55.6950 C.ar    0  <0>0        0.0005
      9  C10        4.6800   36.0130   57.8310 C.ar    0  <0>0        0.0346
     10  C2         7.0470   36.1430   55.0120 C.ar    0  <0>0        0.0000
     11  C1         8.2340   36.4440   55.6770 C.ar    0  <0>0        0.0000
     12  C9         4.7060   36.1700   59.1840 C.ar    0  <0>0        0.0081
     13 Br          3.0550   35.6050   56.9530 Br      0  <0>0       -0.0490
     14  C8         5.8940   36.4710   59.8480 C.ar    0  <0>0        0.0203
     15  O3         9.6470   36.1180   59.4400 O.3     0  <0>0       -0.3572
     16  C11        9.9490   35.0300   60.1980 C.ar    0  <0>0        0.1720
     17  C16       11.1670   34.9570   60.8480 C.ar    0  <0>0        0.0429
     18  C15       11.4680   33.8420   61.6230 C.ar    0  <0>0        0.0406
     19  C14       10.5450   32.7940   61.7460 C.ar    0  <0>0        0.1455
     20  C17       12.6360   33.4410   62.4310 C.ar    0  <0>0        0.0376
     21  C13        9.3250   32.8840   61.0860 C.ar    0  <0>0        0.0407
     22  O4        11.0820   31.8410   62.5400 O.2     0  <0>0       -0.4535
     23  C12        9.0320   33.9930   60.3200 C.ar    0  <0>0        0.0429
     24  C22       12.3140   32.1880   62.9700 C.ar    0  <0>0        0.1453
     25  C21       13.2350   31.5470   63.7900 C.ar    0  <0>0        0.0375
     26  C20       14.4480   32.1420   64.0640 C.ar    0  <0>0        0.0031
     27  C19       14.7650   33.3810   63.5290 C.ar    0  <0>0        0.0002
     28  C18       13.8630   34.0330   62.7140 C.ar    0  <0>0        0.0031
@<TRIPOS>BOND
     1    10    11   ar
     2    10     8   ar
     3    11     7   ar
     4     8     6   ar
     5    13     9    1
     6     7     5   ar
     7     6     5   ar
     8     6     9   ar
     9     5     4   ar
    10     9    12   ar
    11     4    14   ar
    12     4     1    1
    13    12    14   ar
    14    15     1    1
    15    15    16    1
    16     3     1    1
    17     1     2    1
    18    16    23   ar
    19    16    17   ar
    20    23    21   ar
    21    17    18   ar
    22    21    19   ar
    23    18    19   ar
    24    18    20   ar
    25    19    22   ar
    26    20    28   ar
    27    20    24   ar
    28    22    24   ar
    29    28    27   ar
    30    24    25   ar
    31    27    26   ar
    32    25    26   ar

@<TRIPOS>MOLECULE
ZINC12559557_replica-1.pdb
 32 35 0 0 0
SMALL
GASTEIGER

@<TRIPOS>ATOM
      1  C7        -1.2080   30.1830   56.6840 C.3     0  <0>0        0.1171
      2  C4        -1.6700   29.0490   57.5620 C.ar    0  <0>0       -0.0048
      3  C3        -1.0930   28.8590   58.8040 C.ar    0  <0>0       -0.0029
      4  C2        -1.5160   27.8180   59.6100 C.ar    0  <0>0       -0.0003
      5  C1        -2.5170   26.9700   59.1760 C.ar    0  <0>0       -0.0000
      6  C6        -3.0940   27.1610   57.9350 C.ar    0  <0>0       -0.0003
      7  C5        -2.6740   28.2040   57.1300 C.ar    0  <0>0       -0.0029
      8  C8        -1.4930   29.8420   55.2190 C.3     0  <0>0        0.1092
      9  N1        -0.2660   29.3500   54.5860 N.pl3   0  <0>0       -0.3313
     10  H9         0.4230   29.9750   54.3120 H       0  <0>0        0.1469
     11  C9        -0.0910   27.9840   54.3760 C.ar    0  <0>0        0.0446
     12  C14       -0.5700   27.3770   53.1950 C.ar    0  <0>0        0.0131
     13  C13       -0.3850   25.9860   53.0060 C.ar    0  <0>0        0.0012
     14  C15       -1.2310   28.1250   52.2090 C.ar    0  <0>0        0.0012
     15  C12        0.2820   25.2360   53.9900 C.ar    0  <0>0        0.0001
     16  C18       -0.8580   25.3820   51.8290 C.ar    0  <0>0        0.0000
     17  C11        0.7350   25.8470   55.1200 C.ar    0  <0>0        0.0013
     18  C10        0.5540   27.2120   55.3200 C.ar    0  <0>0        0.0143
     19  C17       -1.4940   26.1390   50.8920 C.ar    0  <0>0        0.0000
     20  C16       -1.6810   27.5060   51.0830 C.ar    0  <0>0        0.0000
     21  N2         0.2310   30.3880   56.8670 N.3     0  <0>0       -0.1749
     22  H17        0.8300   29.6250   56.8870 H       0  <0>0        0.1492
     23  S1         0.8350   31.9200   57.0410 S.O2    0  <0>0        0.0605
     24  O1         2.2340   31.8340   56.8100 O.2     0  <0>0       -0.1530
     25  O2        -0.0120   32.7760   56.2870 O.2     0  <0>0       -0.1530
     26  C19        0.6300   32.3720   58.7320 C.ar    0  <0>0        0.1220
     27  C24        0.4380   33.6970   59.0750 C.ar    0  <0>0        0.0208
     28  C23        0.2780   34.0520   60.4010 C.ar    0  <0>0        0.0128
     29  C22        0.3100   33.0810   61.3850 C.ar    0  <0>0        0.0578
     30  C21        0.5020   31.7550   61.0410 C.ar    0  <0>0        0.0128
     31 Cl          0.1080   33.5250   63.0510 Cl      0  <0>0       -0.0822
     32  C20        0.6580   31.4000   59.7150 C.ar    0  <0>0        0.0208
@<TRIPOS>BOND
     1    19    20   ar
     2    19    16   ar
     3    20    14   ar
     4    16    13   ar
     5    14    12   ar
     6    13    12   ar
     7    13    15   ar
     8    12    11   ar
     9    15    17   ar
    10    10     9    1
    11    11     9    1
    12    11    18   ar
    13     9     8    1
    14    17    18   ar
    15     8     1    1
    16    25    23    2
    17     1    21    1
    18     1     2    1
    19    24    23    2
    20    21    22    1
    21    21    23    1
    22    23    26    1
    23     7     2   ar
    24     7     6   ar
    25     2     3   ar
    26     6     5   ar
    27    26    27   ar
    28    26    32   ar
    29     3     4   ar
    30    27    28   ar
    31     5     4   ar
    32    32    30   ar
    33    28    29   ar
    34    30    29   ar
    35    29    31    1

@<TRIPOS>MOLECULE
ZINC59146511_replica-1.pdb
 32 35 0 0 0
SMALL
GASTEIGER

@<TRIPOS>ATOM
      1  N1        -1.7510   30.4480   56.0450 N.am    0  <0>0       -0.2574
      2  C10       -2.0130   29.3670   56.8800 C.ar    0  <0>0        0.0517
      3  C11       -3.0230   28.4110   56.8640 C.ar    0  <0>0        0.0146
      4  C12       -3.0570   27.4230   57.8270 C.ar    0  <0>0        0.0013
      5  C13       -2.0900   27.3690   58.8170 C.ar    0  <0>0       -0.0002
      6  C14       -1.0790   28.3090   58.8490 C.ar    0  <0>0       -0.0012
      7  C15       -1.0370   29.3090   57.8830 C.ar    0  <0>0        0.0177
      8  C16       -0.1150   30.4420   57.6360 C.3     0  <0>0        0.1934
      9  C24       -0.6480   31.1120   56.4340 C.2     0  <0>0        0.2513
     10  O1        -0.1760   32.0940   55.8930 O.2     0  <0>0       -0.2726
     11  N2         0.9470   30.7740   58.3290 N.3     0  <0>0       -0.1197
     12  N3         2.2130   30.7480   57.7300 N.am    0  <0>0       -0.2433
     13  H14        2.6190   29.9010   57.4920 H       0  <0>0        0.1696
     14  C17        2.8660   31.9010   57.4830 C.2     0  <0>0        0.1497
     15  S1         3.7470   32.6700   58.7330 S.2     0  <0>0       -0.0173
     16  N4         2.8240   32.4490   56.2520 N.am    0  <0>0       -0.2949
     17  H15        2.3760   31.9830   55.5290 H       0  <0>0        0.1539
     18  C18        3.4260   33.6890   56.0180 C.ar    0  <0>0        0.0496
     19  C23        2.7300   34.8610   56.2860 C.ar    0  <0>0        0.0146
     20  C22        3.3300   36.0860   56.0600 C.ar    0  <0>0        0.0013
     21  C21        4.6170   36.1440   55.5570 C.ar    0  <0>0        0.0001
     22  C20        5.3090   34.9790   55.2840 C.ar    0  <0>0        0.0013
     23  C19        4.7180   33.7530   55.5120 C.ar    0  <0>0        0.0146
     24  C9        -2.5680   30.8130   54.8860 C.3     0  <0>0        0.0986
     25  C8        -2.4740   29.7290   53.8440 C.3     0  <0>0        0.0266
     26  C7        -1.2990   29.4210   53.3120 C.3     0  <0>0        0.0281
     27  C4        -1.0290   28.0380   52.8670 C.ar    0  <0>0       -0.0221
     28  C3        -0.2720   27.1810   53.6670 C.ar    0  <0>0       -0.0043
     29  C2        -0.0230   25.8900   53.2460 C.ar    0  <0>0       -0.0003
     30  C1        -0.5240   25.4460   52.0350 C.ar    0  <0>0       -0.0000
     31  C6        -1.2760   26.2900   51.2390 C.ar    0  <0>0       -0.0003
     32  C5        -1.5310   27.5830   51.6480 C.ar    0  <0>0       -0.0043
@<TRIPOS>BOND
     1    31    32   ar
     2    31    30   ar
     3    32    27   ar
     4    30    29   ar
     5    27    26    1
     6    27    28   ar
     7    29    28   ar
     8    26    25    1
     9    25    24    1
    10    24     1    1
    11    22    23   ar
    12    22    21   ar
    13    23    18   ar
    14    17    16    1
    15    21    20   ar
    16    10     9    2
    17    18    16    1
    18    18    19   ar
    19     1     9   am
    20     1     2    1
    21    20    19   ar
    22    16    14    1
    23     9     8    1
    24     3     2   ar
    25     3     4   ar
    26     2     7   ar
    27    14    12    1
    28    14    15    2
    29    13    12    1
    30     8     7    1
    31     8    11    1
    32    12    11    1
    33     4     5   ar
    34     7     6   ar
    35     5     6   ar

@<TRIPOS>MOLECULE
ZINC04995038_replica-1.pdb
 27 29 0 0 0
SMALL
GASTEIGER

@<TRIPOS>ATOM
      1  C9         1.9120   33.6670   58.5240 C.ar    0  <0>0        0.0001
      2  C10        0.7810   33.8540   57.7250 C.ar    0  <0>0        0.0014
      3  C11        0.2980   32.8140   56.9620 C.ar    0  <0>0        0.0172
      4  C12        0.9360   31.5780   56.9850 C.ar    0  <0>0        0.0810
      5  C13        2.0600   31.3860   57.7820 C.ar    0  <0>0        0.0172
      6  C14        2.5510   32.4230   58.5450 C.ar    0  <0>0        0.0014
      7  N1         0.4440   30.5250   56.2090 N.am    0  <0>0       -0.1465
      8  C15       -0.4380   29.6540   56.7370 C.2     0  <0>0        0.2960
      9  O1        -0.7500   29.7390   57.9060 O.2     0  <0>0       -0.2684
     10  C16       -1.0390   28.5740   55.8750 C.3     0  <0>0        0.2920
     11  O2         0.0010   27.9020   55.1600 O.3     0  <0>0       -0.4655
     12  C17       -0.3280   27.3570   53.9600 C.ar    0  <0>0        0.1393
     13  C22       -1.0530   28.0970   53.0370 C.ar    0  <0>0        0.0369
     14  C21       -1.3850   27.5410   51.8160 C.ar    0  <0>0        0.0031
     15  C20       -0.9970   26.2500   51.5150 C.ar    0  <0>0        0.0002
     16  C19       -0.2740   25.5100   52.4330 C.ar    0  <0>0        0.0031
     17  C18        0.0660   26.0640   53.6520 C.ar    0  <0>0        0.0369
     18  O3         0.8730   30.3730   54.8690 O.3     0  <0>0       -0.2876
     19  H19        1.6030   30.9580   54.6200 H       0  <0>0        0.2421
     20  C8         2.4320   34.7760   59.3430 C.2     0  <0>0        0.0000
     21  C7         3.2740   35.6720   58.8030 C.2     0  <0>0        0.0000
     22  C4         3.8800   35.4120   57.4850 C.ar    0  <0>0        0.0000
     23  C3         3.2780   35.9080   56.3250 C.ar    0  <0>0        0.0000
     24  C2         3.8510   35.6610   55.0950 C.ar    0  <0>0        0.0000
     25  C1         5.0190   34.9240   55.0070 C.ar    0  <0>0        0.0000
     26  C6         5.6210   34.4300   56.1510 C.ar    0  <0>0        0.0000
     27  C5         5.0620   34.6730   57.3880 C.ar    0  <0>0        0.0000
@<TRIPOS>BOND
     1    15    14   ar
     2    15    16   ar
     3    14    13   ar
     4    16    17   ar
     5    13    12   ar
     6    17    12   ar
     7    12    11    1
     8    19    18    1
     9    18     7    1
    10    25    24   ar
    11    25    26   ar
    12    24    23   ar
    13    11    10    1
    14    10     8    1
    15    26    27   ar
    16     7     8   am
    17     7     4    1
    18    23    22   ar
    19     8     9    2
    20     3     4   ar
    21     3     2   ar
    22     4     5   ar
    23    27    22   ar
    24    22    21    1
    25     2     1   ar
    26     5     6   ar
    27     1     6   ar
    28     1    20    1
    29    21    20    2

@<TRIPOS>MOLECULE
ZINC23329183_replica-1.pdb
 28 30 0 0 0
SMALL
GASTEIGER

@<TRIPOS>ATOM
      1  C9        -0.2510   29.9910   56.5940 C.ar    0  <0>0        0.2094
      2  N1         0.0140   29.9800   57.8800 N.ar    0  <0>0       -0.1207
      3  N2         0.6910   31.0260   58.1950 N.ar    0  <0>0       -0.1274
      4  C10        0.8960   31.7600   57.1380 C.ar    0  <0>0        0.2042
      5  N3         0.3090   31.1240   56.0800 N.ar    0  <0>0       -0.2242
      6  C11        1.6470   33.0660   57.0900 C.3     0  <0>0        0.2719
      7  O1         2.5080   33.0790   55.9480 O.3     0  <0>0       -0.4672
      8  C12        3.4880   34.0200   55.9250 C.ar    0  <0>0        0.1392
      9  C17        3.1600   35.3650   55.8630 C.ar    0  <0>0        0.0366
     10  C16        4.1590   36.3190   55.8460 C.ar    0  <0>0       -0.0012
     11  C15        5.4860   35.9330   55.8790 C.ar    0  <0>0       -0.0223
     12  C14        5.8170   34.5910   55.9360 C.ar    0  <0>0       -0.0012
     13  C13        4.8210   33.6340   55.9600 C.ar    0  <0>0        0.0366
     14  C18        6.5740   36.9750   55.8540 C.3     0  <0>0        0.0224
     15  C19        7.1010   37.1950   57.2740 C.3     0  <0>0        0.0047
     16  C20        7.7150   36.5000   54.9530 C.3     0  <0>0        0.0047
     17  N4         0.2860   31.5380   54.7780 N.pl3   0  <0>0       -0.2947
     18  H10       -0.2160   30.8810   54.1990 H       0  <0>0        0.1627
     19  H11       -0.1080   32.4640   54.7000 H       0  <0>0        0.1627
     20  S1        -1.1520   28.7680   55.7000 S.3     0  <0>0       -0.0706
     21  C2         0.1370   27.7360   54.9470 C.3     0  <0>0        0.0770
     22  C1         0.4670   26.5700   55.8820 C.3     0  <0>0        0.0169
     23  C3        -0.3560   27.1990   53.6280 C.ar    0  <0>0       -0.0120
     24  C8        -0.0670   25.8990   53.2600 C.ar    0  <0>0       -0.0034
     25  C7        -0.5220   25.4050   52.0520 C.ar    0  <0>0       -0.0003
     26  C6        -1.2600   26.2150   51.2080 C.ar    0  <0>0       -0.0000
     27  C5        -1.5440   27.5180   51.5740 C.ar    0  <0>0       -0.0003
     28  C4        -1.0920   28.0100   52.7840 C.ar    0  <0>0       -0.0034
@<TRIPOS>BOND
     1    26    27   ar
     2    26    25   ar
     3    27    28   ar
     4    25    24   ar
     5    28    23   ar
     6    24    23   ar
     7    23    21    1
     8    18    17    1
     9    19    17    1
    10    17     5    1
    11    21    20    1
    12    21    22    1
    13    16    14    1
    14    20     1    1
    15    10     9   ar
    16    10    11   ar
    17    14    11    1
    18    14    15    1
    19     9     8   ar
    20    11    12   ar
    21     8     7    1
    22     8    13   ar
    23    12    13   ar
    24     7     6    1
    25     5     1   ar
    26     5     4   ar
    27     1     2   ar
    28     6     4    1
    29     4     3   ar
    30     2     3   ar

@<TRIPOS>MOLECULE
ZINC41506838_replica-1.pdb
 29 32 0 0 0
SMALL
GASTEIGER

@<TRIPOS>ATOM
      1  C1        -1.5770   27.8840   59.5450 C.3     0  <0>0        0.0313
      2  C2        -1.2570   28.8470   58.4310 C.ar    0  <0>0       -0.0127
      3  C3        -1.7030   28.6000   57.1640 C.ar    0  <0>0        0.0330
      4  C4        -1.4080   29.4890   56.1330 C.ar    0  <0>0        0.1418
      5  C5        -0.6630   30.6310   56.3790 C.ar    0  <0>0        0.0744
      6  C6        -0.2020   30.8970   57.6620 C.ar    0  <0>0        0.1513
      7  C7        -0.5090   29.9960   58.6940 C.ar    0  <0>0        0.0728
      8  C8         0.1010   30.5440   59.9190 C.2     0  <0>0        0.2324
      9  O1         0.0760   30.0690   61.0410 O.2     0  <0>0       -0.2832
     10  C9         0.7460   31.7920   59.4830 C.2     0  <0>0        0.1840
     11  C10        1.4420   32.6520   60.2690 C.2     0  <0>0        0.0413
     12  O2         0.5300   31.9210   58.1530 O.3     0  <0>0       -0.4501
     13  O3        -1.8560   29.2340   54.8770 O.3     0  <0>0       -0.4704
     14  C17       -0.9030   29.3350   53.8170 C.3     0  <0>0        0.2350
     15  C18       -0.9240   28.0670   53.0010 C.ar    0  <0>0        0.0551
     16  C23       -0.1600   26.9780   53.3910 C.ar    0  <0>0        0.1382
     17  C22       -0.1850   25.8110   52.6420 C.ar    0  <0>0        0.0367
     18  C21       -0.9630   25.7410   51.5010 C.ar    0  <0>0        0.0031
     19  C20       -1.7190   26.8300   51.1110 C.ar    0  <0>0       -0.0000
     20  C19       -1.7000   27.9920   51.8600 C.ar    0  <0>0        0.0023
     21  O4         0.6090   27.0510   54.5100 O.3     0  <0>0       -0.4716
     22  C24        0.3500   26.0940   55.5390 C.3     0  <0>0        0.2525
     23  C11        2.1360   33.7990   59.6690 C.ar    0  <0>0        0.0094
     24  C16        3.5270   33.7740   59.5050 C.ar    0  <0>0        0.0347
     25  C15        4.1690   34.8530   58.9330 C.ar    0  <0>0        0.0067
     26 Br          4.5190   32.2620   60.0580 Br      0  <0>0       -0.0490
     27  C14        3.4450   35.9620   58.5350 C.ar    0  <0>0        0.0005
     28  C13        2.0700   35.9970   58.6990 C.ar    0  <0>0        0.0000
     29  C12        1.4120   34.9260   59.2620 C.ar    0  <0>0        0.0006
@<TRIPOS>BOND
     1    19    18   ar
     2    19    20   ar
     3    18    17   ar
     4    20    15   ar
     5    17    16   ar
     6    15    16   ar
     7    15    14    1
     8    16    21    1
     9    14    13    1
    10    21    22    1
    11    13     4    1
    12     4     5   ar
    13     4     3   ar
    14     5     6   ar
    15     3     2   ar
    16     6    12    1
    17     6     7   ar
    18    12    10    1
    19     2     7   ar
    20     2     1    1
    21    27    28   ar
    22    27    25   ar
    23     7     8    1
    24    28    29   ar
    25    25    24   ar
    26    29    23   ar
    27    10     8    1
    28    10    11    2
    29    24    23   ar
    30    24    26    1
    31    23    11    1
    32     8     9    2

@<TRIPOS>MOLECULE
ZINC02281619_replica-1.pdb
 28 31 0 0 0
SMALL
GASTEIGER

@<TRIPOS>ATOM
      1  C10        0.1860   30.8610   55.4620 C.3     0  <0>0        0.1524
      2  C9        -0.4380   30.4940   54.1140 C.3     0  <0>0        0.1187
      3  N1        -1.2580   29.2900   54.2660 N.pl3   0  <0>0       -0.3309
      4  H11       -1.9720   29.2700   54.9220 H       0  <0>0        0.1469
      5  C8        -1.0120   28.1710   53.4660 C.ar    0  <0>0        0.0406
      6  C3        -0.2380   27.1260   53.9500 C.ar    0  <0>0       -0.0091
      7  C4         0.0030   26.0210   53.1560 C.ar    0  <0>0       -0.0031
      8  C5        -0.5270   25.9570   51.8810 C.ar    0  <0>0       -0.0002
      9  C6        -1.2990   26.9960   51.3950 C.ar    0  <0>0        0.0012
     10  C7        -1.5470   28.1020   52.1850 C.ar    0  <0>0        0.0140
     11  C2         0.3390   27.1950   55.3400 C.3     0  <0>0        0.0276
     12  C1         0.2600   25.8150   55.9950 C.3     0  <0>0        0.0051
     13  C11       -0.9200   31.2260   56.4530 C.3     0  <0>0        0.1369
     14  N2        -0.7870   30.4020   57.6570 N.ar    0  <0>0       -0.3246
     15  C19       -1.5050   29.2460   57.9090 C.ar    0  <0>0        0.0600
     16  C18       -1.1060   28.7400   59.1550 C.ar    0  <0>0        0.0172
     17  C20       -2.4770   28.5700   57.1790 C.ar    0  <0>0        0.0172
     18  C17       -0.0800   29.6640   59.6730 C.ar    0  <0>0        0.0172
     19  C23       -1.6810   27.5720   59.6500 C.ar    0  <0>0        0.0015
     20  C12        0.0750   30.6690   58.7060 C.ar    0  <0>0        0.0600
     21  C16        0.6790   29.6950   60.8400 C.ar    0  <0>0        0.0015
     22  C13        0.9940   31.6900   58.9280 C.ar    0  <0>0        0.0172
     23  C14        1.7350   31.7120   60.0900 C.ar    0  <0>0        0.0015
     24  C15        1.5810   30.7180   61.0430 C.ar    0  <0>0        0.0001
     25  C22       -2.6420   26.9160   58.9110 C.ar    0  <0>0        0.0001
     26  C21       -3.0370   27.4150   57.6790 C.ar    0  <0>0        0.0015
     27  O1         1.0620   31.9770   55.2930 O.3     0  <0>0       -0.3807
     28  H24        1.7260   32.0640   55.9900 H       0  <0>0        0.2105
@<TRIPOS>BOND
     1     9     8   ar
     2     9    10   ar
     3     8     7   ar
     4    10     5   ar
     5     7     6   ar
     6     5     6   ar
     7     5     3    1
     8     6    11    1
     9     2     3    1
    10     2     1    1
    11     3     4    1
    12    27     1    1
    13    27    28    1
    14    11    12    1
    15     1    13    1
    16    13    14    1
    17    17    26   ar
    18    17    15   ar
    19    14    15   ar
    20    14    20   ar
    21    26    25   ar
    22    15    16   ar
    23    20    22   ar
    24    20    18   ar
    25    25    19   ar
    26    22    23   ar
    27    16    19   ar
    28    16    18   ar
    29    18    21   ar
    30    23    24   ar
    31    21    24   ar

@<TRIPOS>MOLECULE
ZINC05615761_replica-1.pdb
 34 38 0 0 0
SMALL
GASTEIGER

@<TRIPOS>ATOM
      1  N1         7.8430   34.5440   58.3300 N.pl3   0  <0>0       -0.2977
      2  C8         7.2570   35.4010   57.4180 C.ar    0  <0>0        0.0497
      3  C9         8.0530   36.1550   56.5600 C.ar    0  <0>0        0.0146
      4  C10        7.4700   37.0070   55.6460 C.ar    0  <0>0        0.0013
      5  C11        6.0910   37.1190   55.5640 C.ar    0  <0>0        0.0001
      6  C12        5.2830   36.3790   56.4010 C.ar    0  <0>0        0.0025
      7  C13        5.8600   35.5140   57.3300 C.ar    0  <0>0        0.0283
      8  C14        5.0160   34.7090   58.2370 C.2     0  <0>0        0.0695
      9  N2         3.7020   34.7860   58.1940 N.pl3   0  <0>0       -0.2127
     10  C21        5.7000   33.8150   59.1940 C.2     0  <0>0        0.0151
     11  C22        7.1030   33.7680   59.2030 C.3     0  <0>0        0.1194
     12  C23        7.7480   32.9270   60.1040 C.2     0  <0>0       -0.0022
     13  C24        7.0110   32.1520   60.9740 C.2     0  <0>0       -0.0026
     14  C25        5.6260   32.2000   60.9640 C.2     0  <0>0       -0.0005
     15  C26        4.9670   33.0270   60.0790 C.2     0  <0>0       -0.0011
     16  C15        2.9410   33.7990   58.7530 C.ar    0  <0>0        0.0706
     17  C20        2.8230   32.5590   58.1200 C.ar    0  <0>0        0.0179
     18  C19        2.0520   31.5680   58.6910 C.ar    0  <0>0        0.0212
     19  C18        1.3950   31.8000   59.8870 C.ar    0  <0>0        0.1218
     20  C17        1.5060   33.0250   60.5190 C.ar    0  <0>0        0.0212
     21  C16        2.2790   34.0240   59.9640 C.ar    0  <0>0        0.0179
     22  S1         0.4120   30.5280   60.6070 S.O2    0  <0>0        0.0572
     23  O1        -0.2400   31.1050   61.7310 O.2     0  <0>0       -0.1532
     24  O2        -0.3040   29.9160   59.5430 O.2     0  <0>0       -0.1532
     25  N3         1.4510   29.3820   61.2000 N.3     0  <0>0       -0.2035
     26  H16        1.1080   28.5270   61.5020 H       0  <0>0        0.1442
     27  H17        2.4020   29.5670   61.2440 H       0  <0>0        0.1442
     28  C7         9.3050   34.4590   58.3790 C.3     0  <0>0        0.1181
     29  C4         9.8100   35.1890   59.5960 C.ar    0  <0>0       -0.0024
     30  C3         9.3530   36.4640   59.8770 C.ar    0  <0>0       -0.0026
     31  C2         9.8130   37.1310   60.9970 C.ar    0  <0>0       -0.0003
     32  C1        10.7310   36.5250   61.8340 C.ar    0  <0>0       -0.0000
     33  C6        11.1920   35.2520   61.5510 C.ar    0  <0>0       -0.0003
     34  C5        10.7330   34.5860   60.4310 C.ar    0  <0>0       -0.0026
@<TRIPOS>BOND
     1     5     4   ar
     2     5     6   ar
     3     4     3   ar
     4     6     7   ar
     5     3     2   ar
     6     7     2   ar
     7     7     8    1
     8     2     1    1
     9    17    18   ar
    10    17    16   ar
    11     9     8    1
    12     9    16    1
    13     8    10    2
    14     1    28    1
    15     1    11    1
    16    28    29    1
    17    18    19   ar
    18    16    21   ar
    19    10    11    1
    20    10    15    1
    21    11    12    1
    22    24    22    2
    23    29    30   ar
    24    29    34   ar
    25    30    31   ar
    26    19    20   ar
    27    19    22    1
    28    21    20   ar
    29    15    14    2
    30    12    13    2
    31    34    33   ar
    32    22    25    1
    33    22    23    2
    34    14    13    1
    35    31    32   ar
    36    25    27    1
    37    25    26    1
    38    33    32   ar

@<TRIPOS>MOLECULE
ZINC05673093_replica-1.pdb
 26 28 0 0 0
SMALL
GASTEIGER

@<TRIPOS>ATOM
      1  C10        8.3920   37.5540   58.8160 C.2     0  <0>0        0.3457
      2  O4         7.9470   38.5620   59.3280 O.2     0  <0>0       -0.2445
      3  O3         8.0850   37.2530   57.5380 O.3     0  <0>0       -0.4210
      4  C7         6.8280   36.8000   57.2980 C.ar    0  <0>0        0.1488
      5  C6         6.0400   36.3470   58.3510 C.ar    0  <0>0        0.0378
      6  C5         4.7650   35.8870   58.1100 C.ar    0  <0>0        0.0096
      7  C4         4.2630   35.8760   56.8070 C.ar    0  <0>0        0.0758
      8  C9         5.0580   36.3320   55.7510 C.ar    0  <0>0        0.0096
      9  C8         6.3290   36.7950   56.0000 C.ar    0  <0>0        0.0378
     10  C3         2.8970   35.3830   56.5450 C.2     0  <0>0        0.3412
     11  O2         2.7330   34.3400   55.9450 O.2     0  <0>0       -0.2449
     12  O1         1.8310   36.0900   56.9720 O.3     0  <0>0       -0.4454
     13  C2         0.7850   35.3540   57.6590 C.3     0  <0>0        0.2089
     14  C1         1.1780   35.1580   59.1240 C.3     0  <0>0        0.0513
     15  C11        9.2700   36.6580   59.5930 C.ar    0  <0>0        0.0760
     16  C16        9.7480   37.0590   60.8430 C.ar    0  <0>0        0.0065
     17  C15       10.5620   36.2200   61.5700 C.ar    0  <0>0        0.0002
     18  C14       10.9190   34.9740   61.0540 C.ar    0  <0>0        0.0000
     19  C13       10.4430   34.5720   59.8060 C.ar    0  <0>0        0.0002
     20  C12        9.6250   35.4080   59.0790 C.ar    0  <0>0        0.0065
     21  C17       11.8000   34.0730   61.8350 C.ar    0  <0>0        0.0000
     22  C22       11.2930   32.8900   62.3700 C.ar    0  <0>0        0.0000
     23  C21       12.1180   32.0550   63.0970 C.ar    0  <0>0        0.0000
     24  C20       13.4450   32.3910   63.2950 C.ar    0  <0>0        0.0000
     25  C19       13.9550   33.5610   62.7620 C.ar    0  <0>0        0.0000
     26  C18       13.1380   34.4070   62.0380 C.ar    0  <0>0        0.0000
@<TRIPOS>BOND
     1     8     9   ar
     2     8     7   ar
     3    11    10    2
     4     9     4   ar
     5    10     7    1
     6    10    12    1
     7     7     6   ar
     8    12    13    1
     9     4     3    1
    10     4     5   ar
    11     3     1    1
    12    13    14    1
    13     6     5   ar
    14     1     2    2
    15     1    15    1
    16    20    15   ar
    17    20    19   ar
    18    15    16   ar
    19    19    18   ar
    20    16    17   ar
    21    18    17   ar
    22    18    21    1
    23    21    26   ar
    24    21    22   ar
    25    26    25   ar
    26    22    23   ar
    27    25    24   ar
    28    23    24   ar

@<TRIPOS>MOLECULE
ZINC07709457_replica-1.pdb
 23 25 0 0 0
SMALL
GASTEIGER

@<TRIPOS>ATOM
      1  N2        -0.8360   29.6170   54.7850 N.pl3   0  <0>0       -0.2135
      2  H7        -0.4290   30.3630   54.3190 H       0  <0>0        0.1738
      3  C8        -0.4540   28.3110   54.4780 C.ar    0  <0>0        0.0823
      4  C7        -0.8400   27.7270   53.2520 C.ar    0  <0>0        0.0958
      5  C3        -0.4320   26.4010   52.9630 C.ar    0  <0>0        0.0190
      6  N1        -1.5640   28.4100   52.3610 N.ar    0  <0>0       -0.2426
      7  C2         0.3330   25.6890   53.9000 C.ar    0  <0>0        0.0016
      8  C4        -0.8130   25.8230   51.7370 C.ar    0  <0>0        0.0031
      9  C1         0.6850   26.2760   55.0770 C.ar    0  <0>0        0.0014
     10  C9         0.2970   27.5800   55.3720 C.ar    0  <0>0        0.0174
     11  C5        -1.5580   26.5730   50.8740 C.ar    0  <0>0        0.0207
     12  C6        -1.9200   27.8750   51.2180 C.ar    0  <0>0        0.0989
     13  S1        -1.9910   29.8910   55.9400 S.O2    0  <0>0        0.0745
     14  O1        -2.4710   31.2110   55.7290 O.2     0  <0>0       -0.1499
     15  O2        -2.8480   28.7580   55.9340 O.2     0  <0>0       -0.1499
     16  C10       -1.1740   29.8960   57.5010 C.ar    0  <0>0        0.1365
     17  C15       -0.2300   30.8660   57.7860 C.ar    0  <0>0        0.0870
     18  C14        0.4050   30.8720   59.0170 C.ar    0  <0>0        0.0695
     19 Cl          0.1510   32.0800   56.6060 Cl      0  <0>0       -0.0800
     20  C13        0.1050   29.9010   59.9540 C.ar    0  <0>0        0.0123
     21 Cl          1.5840   32.0940   59.3780 Cl      0  <0>0       -0.0813
     22  C12       -0.8340   28.9280   59.6660 C.ar    0  <0>0        0.0023
     23  C11       -1.4740   28.9250   58.4410 C.ar    0  <0>0        0.0211
@<TRIPOS>BOND
     1    11    12   ar
     2    11     8   ar
     3    12     6   ar
     4     8     5   ar
     5     6     4   ar
     6     5     4   ar
     7     5     7   ar
     8     4     3   ar
     9     7     9   ar
    10     2     1    1
    11     3     1    1
    12     3    10   ar
    13     1    13    1
    14     9    10   ar
    15    14    13    2
    16    15    13    2
    17    13    16    1
    18    19    17    1
    19    16    17   ar
    20    16    23   ar
    21    17    18   ar
    22    23    22   ar
    23    18    21    1
    24    18    20   ar
    25    22    20   ar

@<TRIPOS>MOLECULE
ZINC63654870_replica-1.pdb
 32 35 0 0 0
SMALL
GASTEIGER

@<TRIPOS>ATOM
      1  C8         0.3490   28.0490   55.1250 C.3     0  <0>0        0.1061
      2  C9        -0.4950   28.8610   54.1680 C.3     0  <0>0        0.0930
      3  C10       -0.8190   27.9970   53.1270 C.ar    0  <0>0        0.0026
      4  C11       -1.5770   28.1690   51.9480 C.ar    0  <0>0       -0.0022
      5  C12       -1.7310   27.1280   51.0890 C.ar    0  <0>0       -0.0002
      6  C13       -1.1570   25.8810   51.3410 C.ar    0  <0>0        0.0012
      7  C14       -0.4170   25.6460   52.4530 C.ar    0  <0>0        0.0140
      8  C15       -0.2110   26.6850   53.3970 C.ar    0  <0>0        0.0417
      9  N1         0.4570   26.7100   54.5360 N.pl3   0  <0>0       -0.3299
     10  H25        0.9410   25.9640   54.9220 H       0  <0>0        0.1471
     11  S1        -0.9430   30.4510   54.3290 S.3     0  <0>0       -0.1328
     12  C16        0.4160   31.1960   55.2710 C.3     0  <0>0        0.0791
     13  C17       -0.1560   32.0260   56.4210 C.3     0  <0>0        0.1010
     14  N2         0.2600   33.4230   56.2710 N.am    0  <0>0       -0.3032
     15  C18        0.3430   34.2220   57.3530 C.2     0  <0>0        0.2269
     16  O2         0.0730   33.7850   58.4510 O.2     0  <0>0       -0.2747
     17  H17        0.4760   33.7720   55.3920 H       0  <0>0        0.1495
     18  C19        0.7700   35.6590   57.1970 C.3     0  <0>0        0.1113
     19  C20        2.2610   35.7620   57.3790 C.ar    0  <0>0       -0.0131
     20  C25        3.0960   35.7400   56.2770 C.ar    0  <0>0       -0.0038
     21  C24        4.4650   35.8380   56.4430 C.ar    0  <0>0       -0.0003
     22  C23        5.0000   35.9510   57.7130 C.ar    0  <0>0       -0.0000
     23  C22        4.1660   35.9700   58.8160 C.ar    0  <0>0       -0.0003
     24  C21        2.7970   35.8750   58.6490 C.ar    0  <0>0       -0.0038
     25  C5        -0.3230   27.9700   56.4720 C.ar    0  <0>0       -0.0032
     26  C4        -1.7020   28.0230   56.5580 C.ar    0  <0>0        0.0005
     27  C3        -2.3210   27.9500   57.7920 C.ar    0  <0>0        0.0366
     28  C2        -1.5570   27.8240   58.9430 C.ar    0  <0>0        0.1387
     29  C7        -0.1740   27.7770   58.8540 C.ar    0  <0>0        0.0366
     30  C6         0.4400   27.8440   57.6180 C.ar    0  <0>0        0.0005
     31  O1        -2.1630   27.7530   60.1580 O.3     0  <0>0       -0.4714
     32  C1        -1.6040   28.5430   61.2090 C.3     0  <0>0        0.2525
@<TRIPOS>BOND
     1     5     6   ar
     2     5     4   ar
     3     6     7   ar
     4     4     3   ar
     5     7     8   ar
     6     3     8   ar
     7     3     2    1
     8     8     9    1
     9     2    11    1
    10     2     1    1
    11    11    12    1
    12     9    10    1
    13     9     1    1
    14     1    25    1
    15    12    13    1
    16    17    14    1
    17    14    13    1
    18    14    15   am
    19    20    21   ar
    20    20    19   ar
    21    21    22   ar
    22    25    26   ar
    23    25    30   ar
    24    26    27   ar
    25    18    15    1
    26    18    19    1
    27    15    16    2
    28    19    24   ar
    29    30    29   ar
    30    22    23   ar
    31    27    28   ar
    32    24    23   ar
    33    29    28   ar
    34    28    31    1
    35    31    32    1

@<TRIPOS>MOLECULE
ZINC07523616_replica-1.pdb
 29 32 0 0 0
SMALL
GASTEIGER

@<TRIPOS>ATOM
      1  C1        -1.8300   27.2330   50.8350 C.ar    0  <0>0       -0.0000
      2  C2        -2.0520   28.4790   51.4190 C.ar    0  <0>0       -0.0000
      3  C3        -1.5710   28.7670   52.6580 C.ar    0  <0>0       -0.0003
      4  C4        -0.8280   27.8010   53.3590 C.ar    0  <0>0       -0.0031
      5  C5        -0.5970   26.5360   52.7620 C.ar    0  <0>0       -0.0002
      6  C6        -1.1140   26.2730   51.4830 C.ar    0  <0>0       -0.0000
      7  C7         0.1480   25.5690   53.4610 C.ar    0  <0>0        0.0031
      8  C8         0.6350   25.8560   54.6970 C.ar    0  <0>0        0.0365
      9  C9         0.4080   27.1030   55.2870 C.ar    0  <0>0        0.1330
     10  C10       -0.3100   28.0660   54.6370 C.ar    0  <0>0       -0.0097
     11  C11       -0.5470   29.4040   55.2880 C.3     0  <0>0       -0.0506
     12  N1         0.7340   30.1310   55.3790 N.4     0  <0>0        0.3914
     13  H20        1.2830   29.9560   54.5290 H       0  <0>0       -0.0834
     14  H21        1.2550   29.7990   56.1980 H       0  <0>0       -0.0834
     15  C12        0.4910   31.5800   55.5100 C.3     0  <0>0       -0.0149
     16  C13        0.6020   31.9700   56.9620 C.ar    0  <0>0        0.1017
     17  O1         0.1920   33.1320   57.4970 O.2     0  <0>0       -0.4568
     18  C16        0.4440   33.1310   58.8160 C.ar    0  <0>0        0.1790
     19  C15        1.0300   31.9630   59.1350 C.ar    0  <0>0        0.0434
     20  C14        1.1320   31.2150   57.9400 C.ar    0  <0>0        0.0340
     21  O2         0.9080   27.3610   56.5250 O.3     0  <0>0       -0.4710
     22  C17        0.3880   26.5890   57.6090 C.3     0  <0>0        0.2328
     23  C18        0.1970   27.4780   58.8110 C.ar    0  <0>0        0.0317
     24  C23       -1.0320   28.0690   59.0450 C.ar    0  <0>0        0.0572
     25  C22       -1.2070   28.8840   60.1500 C.ar    0  <0>0        0.0112
     26 Cl         -2.3540   27.7870   57.9550 Cl      0  <0>0       -0.0825
     27  C21       -0.1550   29.1080   61.0170 C.ar    0  <0>0        0.0008
     28  C20        1.0730   28.5160   60.7820 C.ar    0  <0>0       -0.0002
     29  C19        1.2470   27.6970   59.6820 C.ar    0  <0>0        0.0002
@<TRIPOS>BOND
     1     1     2   ar
     2     1     6   ar
     3     2     3   ar
     4     6     5   ar
     5     3     4   ar
     6     5     4   ar
     7     5     7   ar
     8     4    10   ar
     9     7     8   ar
    10    13    12    1
    11    10     9   ar
    12    10    11    1
    13     8     9   ar
    14     9    21    1
    15    11    12    1
    16    12    15    1
    17    12    14    1
    18    15    16    1
    19    21    22    1
    20    16    17   ar
    21    16    20   ar
    22    17    18   ar
    23    22    23    1
    24    20    19   ar
    25    26    24    1
    26    23    24   ar
    27    23    29   ar
    28    18    19   ar
    29    24    25   ar
    30    29    28   ar
    31    25    27   ar
    32    28    27   ar

@<TRIPOS>MOLECULE
ZINC04807109_replica-1.pdb
 26 28 0 0 0
SMALL
GASTEIGER

@<TRIPOS>ATOM
      1  C5         0.2950   30.1050   55.6080 C.ar    0  <0>0        0.1374
      2  C6         0.0850   29.6850   54.3080 C.ar    0  <0>0        0.0446
      3  C7        -0.2540   28.3230   54.4080 C.ar    0  <0>0        0.1029
      4  N2        -0.2310   27.9990   55.6840 N.ar    0  <0>0       -0.1650
      5  N3         0.0880   29.0130   56.4050 N.ar    0  <0>0       -0.2252
      6  C8         0.2010   29.0030   57.8010 C.ar    0  <0>0        0.0839
      7  C13        1.4240   28.7290   58.3980 C.ar    0  <0>0        0.0314
      8  C12        1.5320   28.7190   59.7760 C.ar    0  <0>0        0.0697
      9  C11        0.4230   28.9840   60.5600 C.ar    0  <0>0        0.0683
     10 Cl          3.0610   28.3760   60.5240 Cl      0  <0>0       -0.0813
     11  C10       -0.7960   29.2630   59.9670 C.ar    0  <0>0        0.0138
     12 Cl          0.5620   28.9730   62.2910 Cl      0  <0>0       -0.0814
     13  C9        -0.9110   29.2680   58.5910 C.ar    0  <0>0        0.0201
     14  C4         0.6700   31.4600   56.0460 C.2     0  <0>0        0.2636
     15  N1         1.9570   31.8540   55.9910 N.am    0  <0>0       -0.3013
     16  H8         2.6250   31.2720   55.5950 H       0  <0>0        0.1497
     17  O1        -0.1830   32.2220   56.4590 O.2     0  <0>0       -0.2685
     18  C2         2.3470   33.1590   56.5290 C.3     0  <0>0        0.0720
     19  C1         2.9540   32.9760   57.9220 C.3     0  <0>0        0.0213
     20  C3         3.3800   33.8040   55.6040 C.3     0  <0>0        0.0213
     21  C14       -0.5790   27.4160   53.2790 C.ar    0  <0>0        0.0194
     22  C19       -1.3330   27.8800   52.2040 C.ar    0  <0>0        0.0016
     23  C18       -1.6320   27.0310   51.1570 C.ar    0  <0>0        0.0000
     24  C17       -1.1840   25.7230   51.1740 C.ar    0  <0>0        0.0000
     25  C16       -0.4340   25.2570   52.2380 C.ar    0  <0>0        0.0000
     26  C15       -0.1250   26.0990   53.2880 C.ar    0  <0>0        0.0016
@<TRIPOS>BOND
     1    23    24   ar
     2    23    22   ar
     3    24    25   ar
     4    22    21   ar
     5    25    26   ar
     6    21    26   ar
     7    21     3    1
     8     2     3   ar
     9     2     1   ar
    10     3     4   ar
    11    16    15    1
    12    20    18    1
    13     1    14    1
    14     1     5   ar
    15     4     5   ar
    16    15    14   am
    17    15    18    1
    18    14    17    2
    19     5     6    1
    20    18    19    1
    21     6     7   ar
    22     6    13   ar
    23     7     8   ar
    24    13    11   ar
    25     8    10    1
    26     8     9   ar
    27    11     9   ar
    28     9    12    1

@<TRIPOS>MOLECULE
ZINC11895704_replica-1.pdb
 25 27 0 0 0
SMALL
GASTEIGER

@<TRIPOS>ATOM
      1  C1        -1.2160   25.8280   51.1210 C.ar    0  <0>0        0.0000
      2  C2        -1.7650   27.1000   50.9700 C.ar    0  <0>0        0.0000
      3  C3        -1.5890   28.0560   51.9260 C.ar    0  <0>0        0.0001
      4  C4        -0.8490   27.7560   53.0760 C.ar    0  <0>0        0.0045
      5  C5        -0.2910   26.4650   53.2330 C.ar    0  <0>0        0.0002
      6  C6        -0.4910   25.5040   52.2270 C.ar    0  <0>0        0.0000
      7  C7         0.4520   26.1660   54.3890 C.ar    0  <0>0        0.0031
      8  C8         0.6400   27.1020   55.3560 C.ar    0  <0>0        0.0370
      9  C9         0.1090   28.3880   55.2470 C.ar    0  <0>0        0.1402
     10  C10       -0.6370   28.7510   54.1250 C.ar    0  <0>0        0.0564
     11  O2         0.3220   29.2900   56.2370 O.3     0  <0>0       -0.4714
     12  C12        0.0830   28.8540   57.5760 C.3     0  <0>0        0.2525
     13  C13       -0.5200   30.0030   58.3870 C.3     0  <0>0        0.2525
     14  O3         0.4690   30.5280   59.2760 O.3     0  <0>0       -0.4714
     15  C14        0.6740   31.8710   59.2460 C.ar    0  <0>0        0.1389
     16  C19        1.3230   32.4980   60.3000 C.ar    0  <0>0        0.0392
     17  C18        1.5360   33.8620   60.2670 C.ar    0  <0>0        0.0327
     18  C17        1.0910   34.6070   59.1870 C.ar    0  <0>0        0.1403
     19  C16        0.4380   33.9830   58.1380 C.ar    0  <0>0        0.0327
     20  F1         1.2940   35.9410   59.1580 F       0  <0>0       -0.2042
     21  C15        0.2300   32.6180   58.1650 C.ar    0  <0>0        0.0392
     22  C11       -1.1980   30.1050   54.0040 C.2     0  <0>0        0.1428
     23  N1        -2.2830   30.4150   54.6400 N.2     0  <0>0       -0.0846
     24  O1        -2.8500   29.5020   55.5630 O.2     0  <0>0       -0.4087
     25  H8        -2.3310   28.6960   55.6870 H       0  <0>0        0.3278
@<TRIPOS>BOND
     1     2     1   ar
     2     2     3   ar
     3     1     6   ar
     4     3     4   ar
     5     6     5   ar
     6     4     5   ar
     7     4    10   ar
     8     5     7   ar
     9    22    10    1
    10    22    23    2
    11    10     9   ar
    12     7     8   ar
    13    23    24    1
    14     9     8   ar
    15     9    11    1
    16    24    25    1
    17    11    12    1
    18    12    13    1
    19    19    21   ar
    20    19    18   ar
    21    21    15   ar
    22    13    14    1
    23    20    18    1
    24    18    17   ar
    25    15    14    1
    26    15    16   ar
    27    17    16   ar

@<TRIPOS>MOLECULE
ZINC13172554_replica-1.pdb
 29 31 0 0 0
SMALL
GASTEIGER

@<TRIPOS>ATOM
      1  C14        7.6030   37.0060   59.1720 C.2     0  <0>0        0.2271
      2  O1         6.6850   36.8180   59.9430 O.2     0  <0>0       -0.2747
      3  N1         7.4960   36.6100   57.8880 N.am    0  <0>0       -0.3013
      4  H13        8.1990   36.8230   57.2550 H       0  <0>0        0.1497
      5  C13        8.8620   37.6820   59.6490 C.3     0  <0>0        0.1113
      6  C10        9.7500   36.6710   60.3260 C.ar    0  <0>0       -0.0131
      7  C9         9.9990   35.4540   59.7160 C.ar    0  <0>0       -0.0038
      8  C8        10.8160   34.5260   60.3280 C.ar    0  <0>0       -0.0003
      9  C7        11.3840   34.8130   61.5680 C.ar    0  <0>0       -0.0000
     10  C12       11.1320   36.0400   62.1780 C.ar    0  <0>0       -0.0003
     11  C11       10.3170   36.9620   61.5530 C.ar    0  <0>0       -0.0038
     12  C4        12.2600   33.8170   62.2340 C.ar    0  <0>0       -0.0000
     13  C3        13.6210   34.0730   62.3860 C.ar    0  <0>0       -0.0000
     14  C2        14.4310   33.1440   63.0070 C.ar    0  <0>0        0.0000
     15  C1        13.8920   31.9600   63.4780 C.ar    0  <0>0        0.0000
     16  C6        12.5420   31.7000   63.3310 C.ar    0  <0>0        0.0000
     17  C5        11.7220   32.6250   62.7150 C.ar    0  <0>0       -0.0000
     18  C15        6.3170   35.8590   57.4490 C.3     0  <0>0        0.1061
     19  C16        5.9330   36.2940   56.0340 C.3     0  <0>0        0.1381
     20  C17        7.0490   37.1140   55.4400 C.2     0  <0>0        0.3669
     21  O2         7.8990   36.5800   54.7670 O.co2   0  <0>0       -0.2456
     22  O3         7.1000   38.4370   55.6580 O.co2   0  <0>0       -0.2456
     23  C18        6.6300   34.3850   57.4550 C.ar    0  <0>0        0.0066
     24  C23        5.6650   33.4740   57.8450 C.ar    0  <0>0        0.0552
     25  C22        5.9530   32.1210   57.8490 C.ar    0  <0>0        0.0111
     26 Cl          4.0920   34.0290   58.3280 Cl      0  <0>0       -0.0825
     27  C21        7.2050   31.6790   57.4650 C.ar    0  <0>0        0.0008
     28  C20        8.1690   32.5910   57.0740 C.ar    0  <0>0       -0.0002
     29  C19        7.8800   33.9420   57.0660 C.ar    0  <0>0       -0.0018
@<TRIPOS>BOND
     1    21    20   ar
     2    20    22   ar
     3    20    19    1
     4    19    18    1
     5    29    28   ar
     6    29    23   ar
     7    28    27   ar
     8     4     3    1
     9    18    23    1
    10    18     3    1
    11    23    24   ar
    12    27    25   ar
    13    24    25   ar
    14    24    26    1
    15     3     1   am
    16     1     5    1
    17     1     2    2
    18     5     6    1
    19     7     6   ar
    20     7     8   ar
    21     6    11   ar
    22     8     9   ar
    23    11    10   ar
    24     9    10   ar
    25     9    12    1
    26    12    13   ar
    27    12    17   ar
    28    13    14   ar
    29    17    16   ar
    30    14    15   ar
    31    16    15   ar

@<TRIPOS>MOLECULE
ZINC03370846_replica-1.pdb
 24 26 0 0 0
SMALL
GASTEIGER

@<TRIPOS>ATOM
      1  C1         1.6070   32.2130   56.4260 C.3     0  <0>0        0.0337
      2  C2         0.4020   31.8580   57.2990 C.3     0  <0>0        0.1474
      3  C3         0.2460   30.3550   57.4070 C.2     0  <0>0        0.2526
      4  O1         1.0420   29.5680   57.8750 O.2     0  <0>0       -0.2723
      5  N1        -0.9600   30.0740   56.8760 N.am    0  <0>0       -0.2084
      6  C4        -1.5790   31.1790   56.4450 C.2     0  <0>0        0.3105
      7  O2        -2.6760   31.1790   55.9250 O.2     0  <0>0       -0.2521
      8  N2        -0.8520   32.2910   56.6590 N.am    0  <0>0       -0.2806
      9  H4        -1.1020   33.2000   56.4300 H       0  <0>0        0.1516
     10  C12        0.5400   32.4770   58.6670 C.ar    0  <0>0        0.0126
     11  C17        0.5480   33.8530   58.8060 C.ar    0  <0>0        0.0556
     12  C16        0.6680   34.4200   60.0630 C.ar    0  <0>0        0.0111
     13 Cl          0.4000   34.8670   57.4050 Cl      0  <0>0       -0.0825
     14  C15        0.7920   33.6120   61.1760 C.ar    0  <0>0        0.0008
     15  C14        0.7900   32.2360   61.0360 C.ar    0  <0>0       -0.0002
     16  C13        0.6630   31.6690   59.7820 C.ar    0  <0>0       -0.0014
     17  C5        -1.5200   28.7250   56.7740 C.3     0  <0>0        0.1299
     18  C6        -0.9650   28.0410   55.5510 C.ar    0  <0>0        0.0087
     19  C11       -0.1250   26.9500   55.6900 C.ar    0  <0>0        0.0553
     20  C10        0.3840   26.3230   54.5670 C.ar    0  <0>0        0.0111
     21 Cl          0.2890   26.3690   57.2720 Cl      0  <0>0       -0.0825
     22  C9         0.0510   26.7830   53.3070 C.ar    0  <0>0        0.0008
     23  C8        -0.7840   27.8760   53.1700 C.ar    0  <0>0       -0.0002
     24  C7        -1.2940   28.5030   54.2910 C.ar    0  <0>0       -0.0018
@<TRIPOS>BOND
     1    23    22   ar
     2    23    24   ar
     3    22    20   ar
     4    24    18   ar
     5    20    19   ar
     6    18    19   ar
     7    18    17    1
     8    19    21    1
     9     7     6    2
    10     1     2    1
    11     9     8    1
    12     6     8   am
    13     6     5   am
    14     8     2    1
    15    17     5    1
    16     5     3   am
    17     2     3    1
    18     2    10    1
    19    13    11    1
    20     3     4    2
    21    10    11   ar
    22    10    16   ar
    23    11    12   ar
    24    16    15   ar
    25    12    14   ar
    26    15    14   ar

@<TRIPOS>MOLECULE
ZINC40055483_replica-1.pdb
 32 36 0 0 0
SMALL
GASTEIGER

@<TRIPOS>ATOM
      1  C8         9.8890   34.6750   60.4490 C.ar    0  <0>0        0.1029
      2  C9         9.1650   33.4310   60.7380 C.ar    0  <0>0        0.0417
      3  C10       10.0000   32.6720   61.5400 C.ar    0  <0>0        0.1020
      4  N1        11.1320   33.3740   61.7340 N.ar    0  <0>0       -0.2282
      5  N2        11.0510   34.5940   61.0560 N.ar    0  <0>0       -0.1651
      6  C17        7.8260   33.0650   60.2700 C.2     0  <0>0        0.0439
      7  C18        7.2850   31.8680   60.6250 C.2     0  <0>0        0.1841
      8  O2         7.8780   30.9300   61.4000 O.3     0  <0>0       -0.4502
      9  C19        6.0030   31.3870   60.2380 C.2     0  <0>0        0.2327
     10  C25        7.0810   29.8520   61.5710 C.ar    0  <0>0        0.1483
     11  C20        5.8840   30.0590   60.8690 C.ar    0  <0>0        0.0774
     12  C24        7.2560   28.6670   62.2760 C.ar    0  <0>0        0.0342
     13  C21        4.8850   29.0870   60.8790 C.ar    0  <0>0        0.0174
     14  C22        5.0790   27.9170   61.5840 C.ar    0  <0>0        0.0540
     15  C23        6.2620   27.7110   62.2790 C.ar    0  <0>0       -0.0082
     16 Cl          3.8410   26.7010   61.6020 Cl      0  <0>0       -0.0826
     17  C26        6.4630   26.4290   63.0460 C.3     0  <0>0        0.0320
     18  O1         5.1810   31.9500   59.5360 O.2     0  <0>0       -0.2832
     19  C5         9.4020   35.8070   59.6250 C.ar    0  <0>0        0.0216
     20  C4         9.2080   37.0610   60.2030 C.ar    0  <0>0        0.0014
     21  C3         8.7550   38.1110   59.4330 C.ar    0  <0>0       -0.0020
     22  C2         8.4950   37.9250   58.0870 C.ar    0  <0>0        0.0056
     23  C1         8.0000   39.0770   57.2510 C.3     0  <0>0        0.0334
     24  C7         8.6800   36.6800   57.5070 C.ar    0  <0>0        0.1362
     25  C6         9.1380   35.6220   58.2700 C.ar    0  <0>0        0.0309
     26  F1         8.4180   36.5020   56.1940 F       0  <0>0       -0.2045
     27  C11       12.2270   32.9450   62.4930 C.ar    0  <0>0        0.0828
     28  C16       13.3160   33.7840   62.6800 C.ar    0  <0>0        0.0191
     29  C15       14.3920   33.3600   63.4360 C.ar    0  <0>0        0.0015
     30  C14       14.3900   32.0950   63.9960 C.ar    0  <0>0        0.0001
     31  C13       13.3090   31.2540   63.8060 C.ar    0  <0>0        0.0015
     32  C12       12.2280   31.6750   63.0570 C.ar    0  <0>0        0.0191
@<TRIPOS>BOND
     1    26    24    1
     2    23    22    1
     3    24    22   ar
     4    24    25   ar
     5    22    21   ar
     6    25    19   ar
     7    21    20   ar
     8    18     9    2
     9    19    20   ar
    10    19     1    1
    11     9     7    1
    12     9    11    1
    13     6     7    2
    14     6     2    1
    15     1     2   ar
    16     1     5   ar
    17     7     8    1
    18     2     3   ar
    19    11    13   ar
    20    11    10   ar
    21    13    14   ar
    22     5     4   ar
    23     8    10    1
    24     3     4   ar
    25    10    12   ar
    26    14    16    1
    27    14    15   ar
    28     4    27    1
    29    12    15   ar
    30    15    17    1
    31    27    28   ar
    32    27    32   ar
    33    28    29   ar
    34    32    31   ar
    35    29    30   ar
    36    31    30   ar

@<TRIPOS>MOLECULE
ZINC59010519_replica-1.pdb
 26 28 0 0 0
SMALL
GASTEIGER

@<TRIPOS>ATOM
      1  C1         0.6280   26.9950   55.4710 C.3     0  <0>0        0.0338
      2  C2        -0.0280   28.1720   54.7450 C.3     0  <0>0        0.1488
      3  C3        -1.0820   28.8190   55.6210 C.2     0  <0>0        0.2527
      4  O1        -2.0870   28.3020   56.0600 O.2     0  <0>0       -0.2723
      5  N1        -0.6680   30.0870   55.8120 N.am    0  <0>0       -0.2084
      6  C4         0.4880   30.3300   55.1840 C.2     0  <0>0        0.3105
      7  O2         1.0580   31.4020   55.2080 O.2     0  <0>0       -0.2521
      8  N2         0.9480   29.2520   54.5220 N.am    0  <0>0       -0.2805
      9  H4         1.7650   29.1970   54.0000 H       0  <0>0        0.1516
     10  C12       -0.6250   27.7190   53.4380 C.ar    0  <0>0        0.0317
     11  C17       -1.4050   28.5880   52.6950 C.ar    0  <0>0        0.1382
     12  C16       -1.9500   28.1740   51.4910 C.ar    0  <0>0        0.0317
     13  F2        -1.6310   29.8430   53.1420 F       0  <0>0       -0.2044
     14  C15       -1.7230   26.8900   51.0360 C.ar    0  <0>0        0.0319
     15  C14       -0.9470   26.0180   51.7810 C.ar    0  <0>0        0.1400
     16  C13       -0.3980   26.4330   52.9820 C.ar    0  <0>0        0.0296
     17  F3        -0.7240   24.7610   51.3360 F       0  <0>0       -0.2042
     18  C5        -1.3970   31.0790   56.6070 C.3     0  <0>0        0.1291
     19  C6        -0.5640   31.4790   57.7970 C.ar    0  <0>0       -0.0012
     20  C11       -0.1680   32.7940   57.9520 C.ar    0  <0>0        0.0064
     21  C10        0.5940   33.1630   59.0470 C.ar    0  <0>0        0.0617
     22  C9         0.9670   32.2110   59.9820 C.ar    0  <0>0        0.1462
     23 Br          1.1300   34.9630   59.2630 Br      0  <0>0       -0.0467
     24  C8         0.5730   30.8940   59.8220 C.ar    0  <0>0        0.0299
     25  F1         1.7140   32.5690   61.0480 F       0  <0>0       -0.2037
     26  C7        -0.1920   30.5290   58.7300 C.ar    0  <0>0       -0.0003
@<TRIPOS>BOND
     1    14    12   ar
     2    14    15   ar
     3    17    15    1
     4    12    11   ar
     5    15    16   ar
     6    11    13    1
     7    11    10   ar
     8    16    10   ar
     9    10     2    1
    10     9     8    1
    11     8     2    1
    12     8     6   am
    13     2     1    1
    14     2     3    1
    15     6     7    2
    16     6     5   am
    17     3     5   am
    18     3     4    2
    19     5    18    1
    20    18    19    1
    21    19    20   ar
    22    19    26   ar
    23    20    21   ar
    24    26    24   ar
    25    21    23    1
    26    21    22   ar
    27    24    22   ar
    28    22    25    1

@<TRIPOS>MOLECULE
ZINC41506577_replica-1.pdb
 30 33 0 0 0
SMALL
GASTEIGER

@<TRIPOS>ATOM
      1  C1         5.8150   33.6330   59.2860 C.3     0  <0>0        0.0374
      2  C2         5.2120   34.5120   58.2210 C.ar    0  <0>0        0.0467
      3  C3         6.0320   35.1410   57.2970 C.ar    0  <0>0        0.1379
      4  C4         5.4880   35.9560   56.3070 C.ar    0  <0>0        0.0369
      5  C5         4.1360   36.1430   56.2380 C.ar    0  <0>0        0.0094
      6  C6         3.2990   35.5150   57.1610 C.ar    0  <0>0        0.0764
      7  C7         3.8360   34.6870   58.1610 C.ar    0  <0>0        0.1474
      8  O1         2.8380   34.1920   58.9250 O.3     0  <0>0       -0.4504
      9  C8         1.6240   34.6240   58.5110 C.2     0  <0>0        0.1841
     10  C9         0.4270   34.3080   59.0680 C.2     0  <0>0        0.0439
     11  C16        1.8380   35.5110   57.3570 C.2     0  <0>0        0.2327
     12  O2         0.9960   36.0980   56.7020 O.2     0  <0>0       -0.2832
     13  O3         7.3750   34.9610   57.3570 O.3     0  <0>0       -0.4707
     14  C17        8.1810   36.1340   57.4980 C.3     0  <0>0        0.2350
     15  C18        8.8930   36.0980   58.8250 C.ar    0  <0>0        0.0551
     16  C23        8.5570   37.0060   59.8190 C.ar    0  <0>0        0.1382
     17  C22        9.2100   36.9660   61.0420 C.ar    0  <0>0        0.0367
     18  C21       10.2000   36.0290   61.2650 C.ar    0  <0>0        0.0031
     19  C20       10.5370   35.1270   60.2710 C.ar    0  <0>0       -0.0000
     20  C19        9.8840   35.1620   59.0530 C.ar    0  <0>0        0.0023
     21  O4         7.5860   37.9310   59.5950 O.3     0  <0>0       -0.4716
     22  C24        6.2850   37.6420   60.1100 C.3     0  <0>0        0.2525
     23  C10        0.3720   33.4150   60.2320 C.ar    0  <0>0        0.0412
     24  C15        0.6280   32.0460   60.0820 C.ar    0  <0>0        0.0599
     25  C14        0.5790   31.2150   61.1830 C.ar    0  <0>0        0.0115
     26 Cl          1.0140   31.3980   58.5190 Cl      0  <0>0       -0.0822
     27  C13        0.2660   31.7270   62.4310 C.ar    0  <0>0        0.0032
     28  C12        0.0040   33.0770   62.5880 C.ar    0  <0>0        0.0297
     29  C11        0.0550   33.9260   61.4990 C.ar    0  <0>0        0.1410
     30  F1        -0.2000   35.2440   61.6550 F       0  <0>0       -0.2041
@<TRIPOS>BOND
     1     5     4   ar
     2     5     6   ar
     3     4     3   ar
     4    12    11    2
     5     6    11    1
     6     6     7   ar
     7     3    13    1
     8     3     2   ar
     9    11     9    1
    10    13    14    1
    11    14    15    1
    12     7     2   ar
    13     7     8    1
    14     2     1    1
    15     9     8    1
    16     9    10    2
    17    26    24    1
    18    15    20   ar
    19    15    16   ar
    20    20    19   ar
    21    10    23    1
    22    21    16    1
    23    21    22    1
    24    16    17   ar
    25    24    23   ar
    26    24    25   ar
    27    23    29   ar
    28    19    18   ar
    29    17    18   ar
    30    25    27   ar
    31    29    30    1
    32    29    28   ar
    33    27    28   ar

@<TRIPOS>MOLECULE
ZINC05174115_replica-1.pdb
 29 32 0 0 0
SMALL
GASTEIGER

@<TRIPOS>ATOM
      1  C8        11.9430   34.5910   62.3420 C.2     0  <0>0        0.0046
      2  C9        10.9220   34.7950   61.4350 C.2     0  <0>0        0.0555
      3  C10       10.1330   33.7740   60.7290 C.2     0  <0>0        0.0198
      4  C11        9.2460   34.4340   59.9500 C.2     0  <0>0        0.0586
      5  N1         9.4020   35.8030   60.0870 N.am    0  <0>0       -0.2309
      6  C12       10.3840   36.0850   60.9630 C.2     0  <0>0        0.2566
      7  O2        10.7590   37.1940   61.3000 O.2     0  <0>0       -0.2692
      8  C5        12.2320   33.2400   62.8250 C.ar    0  <0>0        0.0003
      9  C4        13.5570   32.8500   63.0750 C.ar    0  <0>0        0.0031
     10  C3        13.8220   31.5840   63.5270 C.ar    0  <0>0        0.0369
     11  C2        12.7820   30.6860   63.7370 C.ar    0  <0>0        0.1387
     12  C7        11.4660   31.0660   63.4910 C.ar    0  <0>0        0.0369
     13  C6        11.1870   32.3300   63.0450 C.ar    0  <0>0        0.0031
     14  O1        13.0510   29.4330   64.1850 O.3     0  <0>0       -0.4714
     15  C1        12.2990   28.9700   65.3090 C.3     0  <0>0        0.2525
     16  C13        8.6360   36.7640   59.4100 C.ar    0  <0>0        0.0919
     17  C18        7.6830   37.5090   60.0990 C.ar    0  <0>0        0.1475
     18  C17        6.9260   38.4540   59.4240 C.ar    0  <0>0        0.0379
     19  C16        7.1260   38.6620   58.0720 C.ar    0  <0>0        0.0032
     20  C15        8.0730   37.9220   57.3870 C.ar    0  <0>0        0.0015
     21  C14        8.8280   36.9740   58.0520 C.ar    0  <0>0        0.0183
     22  O3         7.4910   37.3070   61.4300 O.3     0  <0>0       -0.5042
     23  H14        7.9300   36.5180   61.7760 H       0  <0>0        0.2922
     24  C19        8.2510   33.7840   59.0730 C.ar    0  <0>0        0.0140
     25  C24        6.9270   33.6440   59.4970 C.ar    0  <0>0        0.0012
     26  C23        6.0040   33.0360   58.6720 C.ar    0  <0>0        0.0000
     27  C22        6.3860   32.5640   57.4280 C.ar    0  <0>0        0.0000
     28  C21        7.6960   32.7000   57.0030 C.ar    0  <0>0        0.0000
     29  C20        8.6290   33.3110   57.8140 C.ar    0  <0>0        0.0012
@<TRIPOS>BOND
     1    28    27   ar
     2    28    29   ar
     3    20    21   ar
     4    20    19   ar
     5    27    26   ar
     6    29    24   ar
     7    21    16   ar
     8    19    18   ar
     9    26    25   ar
    10    24    25   ar
    11    24     4    1
    12    16     5    1
    13    16    17   ar
    14    18    17   ar
    15     4     5    1
    16     4     3    2
    17     5     6   am
    18    17    22    1
    19     3     2    1
    20     6     7    2
    21     6     2    1
    22    22    23    1
    23     2     1    2
    24     1     8    1
    25     8    13   ar
    26     8     9   ar
    27    13    12   ar
    28     9    10   ar
    29    12    11   ar
    30    10    11   ar
    31    11    14    1
    32    14    15    1

@<TRIPOS>MOLECULE
ZINC41351256_replica-1.pdb
 30 33 0 0 0
SMALL
GASTEIGER

@<TRIPOS>ATOM
      1  C1         7.8650   37.9680   58.0780 C.3     0  <0>0        0.0313
      2  C2         8.2390   36.5080   58.0300 C.ar    0  <0>0       -0.0127
      3  C3         7.7720   35.7150   57.0200 C.ar    0  <0>0        0.0337
      4  C4         8.1140   34.3660   56.9740 C.ar    0  <0>0        0.1512
      5  C5         8.9300   33.8130   57.9480 C.ar    0  <0>0        0.0751
      6  C6         9.4140   34.6060   58.9810 C.ar    0  <0>0        0.1513
      7  C7         9.0660   35.9660   59.0140 C.ar    0  <0>0        0.0728
      8  C8         9.7250   36.5360   60.2030 C.2     0  <0>0        0.2324
      9  O1         9.6790   37.6860   60.6030 O.2     0  <0>0       -0.2832
     10  C9        10.4500   35.4030   60.8010 C.2     0  <0>0        0.1840
     11  C10       11.2110   35.4400   61.9230 C.2     0  <0>0        0.0409
     12  O2        10.2100   34.3140   60.0330 O.3     0  <0>0       -0.4501
     13  O3         7.6440   33.5860   55.9670 O.3     0  <0>0       -0.4229
     14  C17        6.6400   32.7380   56.2430 C.2     0  <0>0        0.3407
     15  O4         6.8810   31.6420   56.6920 O.2     0  <0>0       -0.2480
     16  C18        5.2130   33.1530   55.9910 C.3     0  <0>0        0.2007
     17 Cl          5.1120   34.0410   54.4260 Cl      0  <0>0       -0.0981
     18  C19        4.7460   34.0490   57.1090 C.ar    0  <0>0        0.0032
     19  C24        4.0950   35.2330   56.8210 C.ar    0  <0>0       -0.0025
     20  C23        3.6640   36.0530   57.8470 C.ar    0  <0>0       -0.0003
     21  C22        3.8920   35.6920   59.1610 C.ar    0  <0>0       -0.0000
     22  C21        4.5460   34.5100   59.4510 C.ar    0  <0>0       -0.0003
     23  C20        4.9750   33.6890   58.4250 C.ar    0  <0>0       -0.0025
     24  C11       12.0030   34.2660   62.3130 C.ar    0  <0>0        0.0054
     25  C16       13.4000   34.3340   62.3290 C.ar    0  <0>0        0.0297
     26  C15       14.1370   33.2280   62.7030 C.ar    0  <0>0        0.1401
     27  C14       13.4960   32.0490   63.0490 C.ar    0  <0>0        0.0296
     28  F1        15.4870   33.2930   62.7260 F       0  <0>0       -0.2042
     29  C13       12.1150   31.9720   63.0300 C.ar    0  <0>0        0.0023
     30  C12       11.3650   33.0700   62.6640 C.ar    0  <0>0        0.0002
@<TRIPOS>BOND
     1    17    16    1
     2    13    14    1
     3    13     4    1
     4    16    14    1
     5    16    18    1
     6    14    15    2
     7    19    18   ar
     8    19    20   ar
     9     4     3   ar
    10     4     5   ar
    11     3     2   ar
    12    18    23   ar
    13    20    21   ar
    14     5     6   ar
    15     2     1    1
    16     2     7   ar
    17    23    22   ar
    18     6     7   ar
    19     6    12    1
    20     7     8    1
    21    21    22   ar
    22    12    10    1
    23     8     9    2
    24     8    10    1
    25    10    11    2
    26    11    24    1
    27    24    25   ar
    28    24    30   ar
    29    25    26   ar
    30    30    29   ar
    31    26    28    1
    32    26    27   ar
    33    29    27   ar

@<TRIPOS>MOLECULE
ZINC07742393_replica-1.pdb
 29 31 0 0 0
SMALL
GASTEIGER

@<TRIPOS>ATOM
      1  C9        -1.0320   30.2300   54.7150 C.ar    0  <0>0        0.1865
      2  N2        -1.9110   30.4920   55.6630 N.ar    0  <0>0       -0.1249
      3  N3        -1.5800   31.3540   56.6830 N.ar    0  <0>0       -0.1331
      4  C10       -0.3890   31.9220   56.7020 C.ar    0  <0>0        0.1610
      5  S1         0.3520   31.2340   55.2290 S.2     0  <0>0       -0.0242
      6  S2         0.2890   33.0560   57.8690 S.3     0  <0>0       -0.0782
      7  C11        1.1250   34.2950   56.8420 C.3     0  <0>0        0.1299
      8  C12        0.8220   35.6940   57.3820 C.3     0  <0>0        0.0218
      9  C13        2.6120   34.0540   56.8750 C.2     0  <0>0        0.2328
     10  O1         3.2070   33.7950   55.8500 O.2     0  <0>0       -0.2742
     11  N4         3.2810   34.1270   58.0430 N.am    0  <0>0       -0.2997
     12  H15        2.8050   34.3340   58.8620 H       0  <0>0        0.1498
     13  C14        4.7270   33.8920   58.0750 C.3     0  <0>0        0.1163
     14  C15        5.4340   35.1650   58.4600 C.ar    0  <0>0       -0.0026
     15  C20        6.4910   35.6260   57.6970 C.ar    0  <0>0       -0.0026
     16  C19        7.1410   36.7940   58.0500 C.ar    0  <0>0       -0.0003
     17  C18        6.7340   37.5010   59.1660 C.ar    0  <0>0       -0.0000
     18  C17        5.6760   37.0400   59.9280 C.ar    0  <0>0       -0.0003
     19  C16        5.0230   35.8750   59.5730 C.ar    0  <0>0       -0.0026
     20  N1        -1.1520   29.3970   53.6080 N.pl3   0  <0>0       -0.2916
     21  H11       -1.5720   29.7240   52.7980 H       0  <0>0        0.1541
     22  C6        -0.6690   28.0870   53.6640 C.ar    0  <0>0        0.0454
     23  C5        -0.0030   27.6380   54.7980 C.ar    0  <0>0        0.0143
     24  C4         0.4730   26.3420   54.8490 C.ar    0  <0>0        0.0009
     25  C3         0.2860   25.4920   53.7750 C.ar    0  <0>0       -0.0045
     26  C2        -0.3760   25.9350   52.6450 C.ar    0  <0>0       -0.0246
     27  C1        -0.5770   25.0060   51.4760 C.3     0  <0>0        0.0307
     28  C7        -0.8540   27.2300   52.5860 C.ar    0  <0>0       -0.0123
     29  C8        -1.5770   27.7120   51.3540 C.3     0  <0>0        0.0320
@<TRIPOS>BOND
     1    29    28    1
     2    27    26    1
     3    28    26   ar
     4    28    22   ar
     5    26    25   ar
     6    21    20    1
     7    20    22    1
     8    20     1    1
     9    22    23   ar
    10    25    24   ar
    11     1     5   ar
    12     1     2   ar
    13    23    24   ar
    14     5     4   ar
    15     2     3   ar
    16    10     9    2
    17     3     4   ar
    18     4     6    1
    19     7     9    1
    20     7     8    1
    21     7     6    1
    22     9    11   am
    23    15    16   ar
    24    15    14   ar
    25    11    13    1
    26    11    12    1
    27    16    17   ar
    28    13    14    1
    29    14    19   ar
    30    17    18   ar
    31    19    18   ar

@<TRIPOS>MOLECULE
ZINC13183939_replica-1.pdb
 25 26 0 0 0
SMALL
GASTEIGER

@<TRIPOS>ATOM
      1  S2         0.9530   33.6850   57.0290 S.O2    0  <0>0        0.0602
      2  O1         0.7620   33.3170   58.3870 O.2     0  <0>0       -0.1530
      3  O2         0.6260   34.9770   56.5360 O.2     0  <0>0       -0.1530
      4  N1         0.0940   32.6010   56.1180 N.3     0  <0>0       -0.1785
      5  H12       -0.4950   32.9180   55.4160 H       0  <0>0        0.1488
      6  C9         0.2240   31.1640   56.3740 C.3     0  <0>0        0.1034
      7  C8        -1.0680   30.4550   55.9640 C.3     0  <0>0        0.0810
      8  S1        -1.3340   30.6660   54.1830 S.3     0  <0>0       -0.1122
      9  C5        -1.0690   29.0560   53.5170 C.ar    0  <0>0        0.0252
     10  C4        -1.6500   28.6980   52.3070 C.ar    0  <0>0        0.0058
     11  C3        -1.4400   27.4360   51.7890 C.ar    0  <0>0       -0.0038
     12  C2        -0.6510   26.5280   52.4730 C.ar    0  <0>0       -0.0218
     13  C1        -0.4240   25.1510   51.9040 C.3     0  <0>0        0.0310
     14  C7        -0.0720   26.8810   53.6780 C.ar    0  <0>0       -0.0038
     15  C6        -0.2730   28.1440   54.1990 C.ar    0  <0>0        0.0058
     16  C10        2.6600   33.4280   56.6730 C.ar    0  <0>0        0.1222
     17  C15        3.2790   34.1740   55.6940 C.ar    0  <0>0        0.0273
     18  C14        4.6300   33.9650   55.4080 C.ar    0  <0>0        0.0916
     19  C13        5.3480   33.0060   56.1280 C.ar    0  <0>0        0.0641
     20  C12        4.7160   32.2690   57.1090 C.ar    0  <0>0        0.0130
     21 Cl          7.0290   32.7420   55.7860 Cl      0  <0>0       -0.0820
     22  C11        3.3770   32.4780   57.3810 C.ar    0  <0>0        0.0208
     23  C16        5.2980   34.7580   54.3570 C.2     0  <0>0        0.3886
     24  O3         4.9680   34.6280   53.1960 O.co2   0  <0>0       -0.2405
     25  O4         6.2720   35.6280   54.6870 O.co2   0  <0>0       -0.2405
@<TRIPOS>BOND
     1    11    10   ar
     2    11    12   ar
     3    13    12    1
     4    10     9   ar
     5    12    14   ar
     6    24    23   ar
     7     9     8    1
     8     9    15   ar
     9    14    15   ar
    10     8     7    1
    11    23    25   ar
    12    23    18    1
    13    18    17   ar
    14    18    19   ar
    15     5     4    1
    16    17    16   ar
    17    21    19    1
    18     7     6    1
    19     4     6    1
    20     4     1    1
    21    19    20   ar
    22     3     1    2
    23    16     1    1
    24    16    22   ar
    25     1     2    2
    26    20    22   ar

@<TRIPOS>MOLECULE
ZINC08775406_replica-1.pdb
 32 35 0 0 0
SMALL
GASTEIGER

@<TRIPOS>ATOM
      1  C8         9.9480   34.7570   60.4640 C.ar    0  <0>0        0.0967
      2  C9         9.2850   33.5470   60.7520 C.ar    0  <0>0       -0.0052
      3  C10       10.1040   32.7970   61.5210 C.ar    0  <0>0        0.0955
      4  N1        11.2530   33.4970   61.7110 N.ar    0  <0>0       -0.2286
      5  N2        11.1310   34.7220   61.0430 N.ar    0  <0>0       -0.1655
      6  C17        7.9030   33.1620   60.2880 C.3     0  <0>0       -0.0505
      7  N3         7.9620   32.7710   58.8670 N.4     0  <0>0        0.3904
      8  H27        8.4750   31.8860   58.7790 H       0  <0>0       -0.0835
      9  H28        8.4490   33.5020   58.3350 H       0  <0>0       -0.0835
     10  C18        6.6010   32.6010   58.3260 C.3     0  <0>0       -0.0351
     11  C19        6.5390   31.3180   57.4950 C.3     0  <0>0       -0.0188
     12  C20        6.2630   33.7820   57.4530 C.ar    0  <0>0       -0.0080
     13  C25        5.5160   34.8320   57.9650 C.ar    0  <0>0        0.1327
     14  C24        5.2070   35.9190   57.1580 C.ar    0  <0>0        0.0365
     15  C23        5.6450   35.9520   55.8490 C.ar    0  <0>0        0.0031
     16  C22        6.3900   34.9030   55.3410 C.ar    0  <0>0       -0.0002
     17  C21        6.7030   33.8220   56.1440 C.ar    0  <0>0       -0.0033
     18  O1         5.0860   34.7980   59.2530 O.3     0  <0>0       -0.4718
     19  C26        5.4970   35.8700   60.1040 C.3     0  <0>0        0.2524
     20  C5         9.4080   35.8750   59.6530 C.ar    0  <0>0        0.0190
     21  C4         9.2350   35.7220   58.2780 C.ar    0  <0>0        0.0012
     22  C3         8.7310   36.7650   57.5280 C.ar    0  <0>0       -0.0042
     23  C2         8.3970   37.9610   58.1390 C.ar    0  <0>0       -0.0218
     24  C1         7.8480   39.0970   57.3140 C.3     0  <0>0        0.0310
     25  C7         8.5670   38.1190   59.5020 C.ar    0  <0>0       -0.0042
     26  C6         9.0650   37.0810   60.2630 C.ar    0  <0>0        0.0012
     27  C11       12.3630   33.0690   62.4510 C.ar    0  <0>0        0.0828
     28  C16       13.4750   33.8920   62.5730 C.ar    0  <0>0        0.0191
     29  C15       14.5680   33.4690   63.3030 C.ar    0  <0>0        0.0015
     30  C14       14.5570   32.2270   63.9120 C.ar    0  <0>0        0.0001
     31  C13       13.4510   31.4050   63.7920 C.ar    0  <0>0        0.0015
     32  C12       12.3520   31.8260   63.0680 C.ar    0  <0>0        0.0191
@<TRIPOS>BOND
     1    16    15   ar
     2    16    17   ar
     3    15    14   ar
     4    17    12   ar
     5    14    13   ar
     6    24    23    1
     7    12    13   ar
     8    12    10    1
     9    11    10    1
    10    22    23   ar
    11    22    21   ar
    12    13    18    1
    13    23    25   ar
    14    21    20   ar
    15    10     7    1
    16     9     7    1
    17     8     7    1
    18     7     6    1
    19    18    19    1
    20    25    26   ar
    21    20    26   ar
    22    20     1    1
    23     6     2    1
    24     1     2   ar
    25     1     5   ar
    26     2     3   ar
    27     5     4   ar
    28     3     4   ar
    29     4    27    1
    30    27    28   ar
    31    27    32   ar
    32    28    29   ar
    33    32    31   ar
    34    29    30   ar
    35    31    30   ar

@<TRIPOS>MOLECULE
ZINC05253221_replica-1.pdb
 29 33 0 0 0
SMALL
GASTEIGER

@<TRIPOS>ATOM
      1  C8         9.8420   34.2910   60.8280 C.2     0  <0>0        0.0783
      2  N1         9.0910   33.6060   60.0290 N.2     0  <0>0       -0.1831
      3  N2         8.1440   34.3700   59.3730 N.pl3   0  <0>0       -0.1912
      4  C9         8.1310   35.7280   59.9590 C.3     0  <0>0        0.1262
      5  C10        9.4050   35.7410   60.8150 C.3     0  <0>0        0.0735
      6  C11        8.2150   36.6930   58.8040 C.ar    0  <0>0        0.0318
      7  C12        8.5480   38.0110   59.0500 C.ar    0  <0>0        0.0004
      8  C13        8.6160   38.9190   58.0100 C.ar    0  <0>0       -0.0001
      9  C14        8.3490   38.5030   56.7190 C.ar    0  <0>0        0.0031
     10  C15        8.0220   37.1880   56.4700 C.ar    0  <0>0        0.0367
     11  C16        7.9570   36.2620   57.5120 C.ar    0  <0>0        0.1385
     12  O2         7.6550   34.9800   57.1880 O.3     0  <0>0       -0.4553
     13  C17        7.3030   34.0440   58.2130 C.3     0  <0>0        0.2834
     14  C6        10.9510   33.7430   61.6320 C.ar    0  <0>0        0.0181
     15  C5        12.1580   34.4410   61.7280 C.ar    0  <0>0        0.0014
     16  C4        13.1930   33.9250   62.4810 C.ar    0  <0>0        0.0032
     17  C3        13.0420   32.7170   63.1370 C.ar    0  <0>0        0.0369
     18  C2        11.8450   32.0200   63.0510 C.ar    0  <0>0        0.1388
     19  C7        10.7990   32.5270   62.2990 C.ar    0  <0>0        0.0381
     20  O1        11.7010   30.8350   63.7020 O.3     0  <0>0       -0.4714
     21  C1        12.8390   29.9710   63.7340 C.3     0  <0>0        0.2525
     22  C18        5.8470   34.1910   58.5720 C.ar    0  <0>0        0.0387
     23  C23        5.3510   33.5770   59.7080 C.ar    0  <0>0        0.0015
     24  C22        4.0180   33.7090   60.0410 C.ar    0  <0>0        0.0060
     25  C21        3.1730   34.4600   59.2330 C.ar    0  <0>0        0.0252
     26  C20        3.6740   35.0760   58.0920 C.ar    0  <0>0        0.0060
     27  C19        5.0100   34.9430   57.7680 C.ar    0  <0>0        0.0015
     28  S1         1.4700   34.6330   59.6540 S.3     0  <0>0       -0.1127
     29  C24        0.6470   34.8890   58.0580 C.3     0  <0>0        0.0742
@<TRIPOS>BOND
     1    10     9   ar
     2    10    11   ar
     3     9     8   ar
     4    12    11    1
     5    12    13    1
     6    11     6   ar
     7    27    26   ar
     8    27    22   ar
     9     8     7   ar
    10    29    28    1
    11    26    25   ar
    12    13    22    1
    13    13     3    1
    14    22    23   ar
    15     6     7   ar
    16     6     4    1
    17    25    28    1
    18    25    24   ar
    19     3     4    1
    20     3     2    1
    21    23    24   ar
    22     4     5    1
    23     2     1    2
    24     5     1    1
    25     1    14    1
    26    14    15   ar
    27    14    19   ar
    28    15    16   ar
    29    19    18   ar
    30    16    17   ar
    31    18    17   ar
    32    18    20    1
    33    20    21    1

@<TRIPOS>MOLECULE
ZINC04145554_replica-1.pdb
 28 31 0 0 0
SMALL
GASTEIGER

@<TRIPOS>ATOM
      1  N1         7.3140   34.9500   57.5430 N.ar    0  <0>0       -0.2693
      2  C8         8.2190   33.9610   57.8630 C.ar    0  <0>0        0.1707
      3  N2         8.2220   33.1050   56.8670 N.ar    0  <0>0       -0.1279
      4  N3         7.3950   33.4840   55.9600 N.ar    0  <0>0       -0.1218
      5  C9         6.8110   34.6060   56.3190 C.ar    0  <0>0        0.1973
      6  S1         5.6100   35.5030   55.3940 S.3     0  <0>0       -0.0704
      7  C10        4.1990   34.3780   55.5370 C.3     0  <0>0        0.0945
      8  C11        3.5800   34.5190   56.9040 C.ar    0  <0>0        0.0271
      9  C16        3.6760   33.4850   57.8170 C.ar    0  <0>0        0.0567
     10  C15        3.1120   33.6170   59.0740 C.ar    0  <0>0        0.0112
     11 Cl          4.5090   32.0240   57.3890 Cl      0  <0>0       -0.0825
     12  C14        2.4450   34.7790   59.4130 C.ar    0  <0>0        0.0032
     13  C13        2.3440   35.8120   58.5000 C.ar    0  <0>0        0.0294
     14  C12        2.9110   35.6830   57.2450 C.ar    0  <0>0        0.1378
     15  F1         2.8130   36.6920   56.3520 F       0  <0>0       -0.2044
     16  C7         6.9800   36.0730   58.3120 C.ar    0  <0>0        0.0633
     17  C2         7.5970   37.2930   58.0670 C.ar    0  <0>0       -0.0056
     18  C1         8.6280   37.4100   56.9730 C.3     0  <0>0        0.0326
     19  C3         7.2610   38.3990   58.8220 C.ar    0  <0>0       -0.0028
     20  C4         6.3190   38.2910   59.8280 C.ar    0  <0>0       -0.0002
     21  C5         5.7070   37.0770   60.0790 C.ar    0  <0>0        0.0015
     22  C6         6.0340   35.9680   59.3240 C.ar    0  <0>0        0.0173
     23  C17        9.0320   33.8790   59.0940 C.ar    0  <0>0        0.0394
     24  C21        8.8700   32.8190   59.9950 C.ar    0  <0>0        0.0237
     25  C20        9.6500   32.7830   61.1320 C.ar    0  <0>0        0.0990
     26  N4        10.5380   33.7280   61.3750 N.ar    0  <0>0       -0.2423
     27  C19       10.7210   34.7460   60.5530 C.ar    0  <0>0        0.0990
     28  C18        9.9900   34.8580   59.3910 C.ar    0  <0>0        0.0237
@<TRIPOS>BOND
     1     6     7    1
     2     6     5    1
     3     7     8    1
     4     4     5   ar
     5     4     3   ar
     6     5     1   ar
     7    15    14    1
     8     3     2   ar
     9     8    14   ar
    10     8     9   ar
    11    18    17    1
    12    14    13   ar
    13    11     9    1
    14     1     2   ar
    15     1    16    1
    16     9    10   ar
    17     2    23    1
    18    17    16   ar
    19    17    19   ar
    20    16    22   ar
    21    13    12   ar
    22    19    20   ar
    23    10    12   ar
    24    23    28   ar
    25    23    24   ar
    26    22    21   ar
    27    28    27   ar
    28    20    21   ar
    29    24    25   ar
    30    27    26   ar
    31    25    26   ar

@<TRIPOS>MOLECULE
ZINC32975121_replica-1.pdb
 31 35 0 0 0
SMALL
GASTEIGER

@<TRIPOS>ATOM
      1  C8        -0.0950   29.6600   59.3700 C.ar    0  <0>0        0.0638
      2  C9         0.0840   30.8550   58.7090 C.ar    0  <0>0        0.1378
      3  N1        -0.1940   31.0030   57.3390 N.ar    0  <0>0       -0.2774
      4  C10       -0.0200   32.1660   56.6940 C.ar    0  <0>0        0.2634
      5  O1        -0.2690   32.2630   55.5080 O.2     0  <0>0       -0.2669
      6  C11        0.4810   33.3240   57.4570 C.ar    0  <0>0        0.0724
      7  C12        0.6820   34.5610   56.8470 C.ar    0  <0>0        0.0062
      8  C13        1.1290   35.6240   57.6040 C.ar    0  <0>0        0.0003
      9  C14        1.4060   35.4590   58.9510 C.ar    0  <0>0        0.0015
     10  C15        1.2150   34.2360   59.5630 C.ar    0  <0>0        0.0177
     11  C16        0.7410   33.1630   58.8210 C.ar    0  <0>0        0.0708
     12  N2         0.5470   31.9140   59.4460 N.ar    0  <0>0       -0.2816
     13  C17        0.8100   31.7190   60.7750 C.ar    0  <0>0        0.1322
     14  S1         1.3960   32.8520   61.9170 S.2     0  <0>0       -0.0244
     15  S2         0.4110   30.0560   61.0280 S.2     0  <0>0       -0.0594
     16  C18       -0.6920   29.8460   56.5900 C.3     0  <0>0        0.1576
     17  C19        0.2400   29.5650   55.4080 C.3     0  <0>0        0.2299
     18  O2        -0.5380   29.3200   54.2350 O.3     0  <0>0       -0.4734
     19  C20       -0.4580   28.0790   53.6900 C.ar    0  <0>0        0.1386
     20  C25       -1.0330   27.8240   52.4530 C.ar    0  <0>0        0.0369
     21  C24       -0.9500   26.5600   51.9010 C.ar    0  <0>0        0.0031
     22  C23       -0.2940   25.5490   52.5790 C.ar    0  <0>0        0.0002
     23  C22        0.2800   25.8000   53.8110 C.ar    0  <0>0        0.0031
     24  C21        0.2040   27.0640   54.3650 C.ar    0  <0>0        0.0369
     25  C7        -0.5780   28.3720   58.8350 C.ar    0  <0>0        0.0050
     26  C2         0.3330   27.4150   58.3810 C.ar    0  <0>0       -0.0213
     27  C1         1.8120   27.6910   58.4420 C.3     0  <0>0        0.0310
     28  C3        -0.1260   26.2130   57.8830 C.ar    0  <0>0       -0.0042
     29  C4        -1.4860   25.9560   57.8300 C.ar    0  <0>0       -0.0003
     30  C5        -2.3930   26.9000   58.2790 C.ar    0  <0>0       -0.0000
     31  C6        -1.9480   28.1050   58.7790 C.ar    0  <0>0        0.0003
@<TRIPOS>BOND
     1    21    20   ar
     2    21    22   ar
     3    20    19   ar
     4    22    23   ar
     5    19    18    1
     6    19    24   ar
     7    23    24   ar
     8    18    17    1
     9    17    16    1
    10     5     4    2
    11    16     3    1
    12     4     3   ar
    13     4     6   ar
    14     7     6   ar
    15     7     8   ar
    16     3     2   ar
    17     6    11   ar
    18     8     9   ar
    19    29    28   ar
    20    29    30   ar
    21    28    26   ar
    22    30    31   ar
    23    26    27    1
    24    26    25   ar
    25     2     1   ar
    26     2    12   ar
    27    31    25   ar
    28    11    12   ar
    29    11    10   ar
    30    25     1    1
    31     9    10   ar
    32     1    15   ar
    33    12    13   ar
    34    13    15   ar
    35    13    14    2

@<TRIPOS>MOLECULE
ZINC66588452_replica-1.pdb
 27 28 0 0 0
SMALL
GASTEIGER

@<TRIPOS>ATOM
      1  S1         7.9200   35.8620   57.3720 S.O2    0  <0>0        0.0928
      2  O2         8.6020   36.6690   56.4220 O.2     0  <0>0       -0.1483
      3  O3         7.6920   34.4750   57.1680 O.2     0  <0>0       -0.1483
      4  C9         8.8080   36.0090   58.8870 C.ar    0  <0>0        0.1272
      5  C8         9.0120   37.2570   59.4490 C.ar    0  <0>0        0.0203
      6  C7         9.7070   37.3800   60.6390 C.ar    0  <0>0        0.0015
      7  C6        10.2020   36.2600   61.2730 C.ar    0  <0>0        0.0046
      8  C5         9.9990   34.9980   60.7120 C.ar    0  <0>0        0.0547
      9  C10        9.3010   34.8800   59.5090 C.ar    0  <0>0        0.0248
     10  C4        10.5250   33.7920   61.3850 C.2     0  <0>0        0.2461
     11  N1        11.5990   33.8870   62.1940 N.am    0  <0>0       -0.2969
     12  H6        12.0250   34.7460   62.3350 H       0  <0>0        0.1501
     13  O1         9.9900   32.7140   61.2090 O.2     0  <0>0       -0.2701
     14  C3        12.1210   32.6920   62.8620 C.3     0  <0>0        0.1163
     15  C2        13.6170   32.8100   63.0060 C.2     0  <0>0       -0.0049
     16  C1        14.2550   33.7980   62.4280 C.2     0  <0>0       -0.0032
     17  N2         6.4360   36.5570   57.6050 N.pl3   0  <0>0       -0.0965
     18  C11        5.2950   35.9700   57.0520 C.ar    0  <0>0        0.0915
     19  C16        4.4590   35.1950   57.8440 C.ar    0  <0>0        0.0244
     20  C15        3.3230   34.6180   57.2920 C.ar    0  <0>0        0.0316
     21  C14        3.0320   34.8100   55.9460 C.ar    0  <0>0        0.0064
     22  C13        3.8700   35.5780   55.1590 C.ar    0  <0>0        0.0019
     23  C12        4.9980   36.1570   55.7080 C.ar    0  <0>0        0.0181
     24  S2         2.2550   33.6380   58.2930 S.3     0  <0>0       -0.0441
     25  C17        1.0430   34.8240   58.9340 C.3     0  <0>0        0.3707
     26  F1         1.0140   34.7540   60.3320 F       0  <0>0       -0.1852
     27  F2         1.4030   36.1180   58.5410 F       0  <0>0       -0.1852
@<TRIPOS>BOND
     1    22    23   ar
     2    22    21   ar
     3    23    18   ar
     4    21    20   ar
     5     2     1    2
     6    18    17    1
     7    18    19   ar
     8     3     1    2
     9    20    19   ar
    10    20    24    1
    11     1    17    1
    12     1     4    1
    13    24    25    1
    14    27    25    1
    15     4     5   ar
    16     4     9   ar
    17    25    26    1
    18     5     6   ar
    19     9     8   ar
    20     6     7   ar
    21     8     7   ar
    22     8    10    1
    23    13    10    2
    24    10    11   am
    25    11    12    1
    26    11    14    1
    27    16    15    2
    28    14    15    1

@<TRIPOS>MOLECULE
ZINC05688730_replica-1.pdb
 30 33 0 0 0
SMALL
GASTEIGER

@<TRIPOS>ATOM
      1  C17        7.2220   32.4110   58.0240 C.2     0  <0>0        0.1073
      2  C18        8.0230   31.4890   58.6660 C.2     0  <0>0        0.0135
      3  C25        5.8340   32.1320   57.8190 C.1     0  <0>0        0.1037
      4  N2         4.7310   31.9120   57.6550 N.1     0  <0>0       -0.1907
      5  C16        7.7980   33.6810   57.5510 C.2     0  <0>0        0.2066
      6  O1         8.2430   33.7650   56.4200 O.2     0  <0>0       -0.2858
      7  C8         7.8340   34.8450   58.4410 C.ar    0  <0>0        0.0568
      8  C7         8.8900   35.1840   59.4110 C.ar    0  <0>0        0.0203
      9  C2         8.4880   36.3810   60.0260 C.ar    0  <0>0        0.0600
     10  C6        10.0900   34.5780   59.7780 C.ar    0  <0>0        0.0016
     11  N1         7.2760   36.7540   59.4800 N.ar    0  <0>0       -0.3251
     12  C3         9.3000   36.9510   61.0020 C.ar    0  <0>0        0.0172
     13  C1         6.5230   37.9530   59.8570 C.3     0  <0>0        0.1304
     14  C9         6.8770   35.8470   58.5420 C.ar    0  <0>0        0.0630
     15  C4        10.4840   36.3420   61.3540 C.ar    0  <0>0        0.0015
     16  C5        10.8800   35.1590   60.7460 C.ar    0  <0>0        0.0001
     17  C10        5.6290   35.9210   57.7580 C.ar    0  <0>0        0.0159
     18  C15        4.4060   35.6000   58.3530 C.ar    0  <0>0        0.0014
     19  C14        3.2430   35.6720   57.6140 C.ar    0  <0>0        0.0000
     20  C13        3.2860   36.0600   56.2870 C.ar    0  <0>0        0.0000
     21  C12        4.4940   36.3790   55.6910 C.ar    0  <0>0        0.0000
     22  C11        5.6640   36.3180   56.4190 C.ar    0  <0>0        0.0014
     23  C19        7.4260   30.2960   59.2690 C.ar    0  <0>0        0.0010
     24  C24        7.1530   30.2640   60.6440 C.ar    0  <0>0        0.0031
     25  C23        6.5960   29.1490   61.2020 C.ar    0  <0>0        0.0366
     26  C22        6.2970   28.0470   60.4070 C.ar    0  <0>0        0.1337
     27  C21        6.5640   28.0720   59.0420 C.ar    0  <0>0        0.0366
     28  C20        7.1180   29.1840   58.4730 C.ar    0  <0>0        0.0031
     29  O2         5.7430   26.9410   60.9670 O.3     0  <0>0       -0.5055
     30  H18        5.3280   26.3430   60.3300 H       0  <0>0        0.2922
@<TRIPOS>BOND
     1    21    20   ar
     2    21    22   ar
     3    20    19   ar
     4    22    17   ar
     5     6     5    2
     6     5     1    1
     7     5     7    1
     8    19    18   ar
     9     4     3    3
    10    17    18   ar
    11    17    14    1
    12     3     1    1
    13     1     2    2
    14     7    14   ar
    15     7     8   ar
    16    28    27   ar
    17    28    23   ar
    18    14    11   ar
    19     2    23    1
    20    27    26   ar
    21    23    24   ar
    22     8    10   ar
    23     8     9   ar
    24    11    13    1
    25    11     9   ar
    26    10    16   ar
    27     9    12   ar
    28    30    29    1
    29    26    29    1
    30    26    25   ar
    31    24    25   ar
    32    16    15   ar
    33    12    15   ar

@<TRIPOS>MOLECULE
ZINC06644290_replica-1.pdb
 30 33 0 0 0
SMALL
GASTEIGER

@<TRIPOS>ATOM
      1  C7         3.8610   34.5300   59.8560 C.2     0  <0>0        0.1781
      2  C8         3.9400   35.6950   59.1720 C.2     0  <0>0        0.0308
      3  C24        2.5820   33.9640   60.1620 C.1     0  <0>0        0.1194
      4  N2         1.5670   33.5150   60.4050 N.1     0  <0>0       -0.1895
      5  S1         5.3330   33.7100   60.3700 S.O2    0  <0>0        0.0365
      6  O1         6.2300   34.7220   60.8080 O.2     0  <0>0       -0.1636
      7  O2         4.9270   32.6360   61.2090 O.2     0  <0>0       -0.1636
      8  C4         6.0550   32.9840   58.9360 C.ar    0  <0>0        0.1110
      9  C3         7.4120   33.1070   58.7070 C.ar    0  <0>0        0.0188
     10  C2         7.9780   32.5370   57.5820 C.ar    0  <0>0        0.0013
     11  C1         7.1850   31.8460   56.6840 C.ar    0  <0>0        0.0001
     12  C6         5.8280   31.7220   56.9140 C.ar    0  <0>0        0.0013
     13  C5         5.2630   32.2880   58.0420 C.ar    0  <0>0        0.0188
     14  C9         5.2110   36.1100   58.5750 C.ar    0  <0>0        0.0206
     15  C12        5.6480   35.8880   57.1830 C.ar    0  <0>0        0.0173
     16  C11        6.9270   36.4590   57.0840 C.ar    0  <0>0        0.0602
     17  C13        5.0680   35.2760   56.0750 C.ar    0  <0>0        0.0015
     18  N1         7.2420   36.9870   58.3190 N.ar    0  <0>0       -0.3217
     19  C16        7.6050   36.4060   55.8700 C.ar    0  <0>0        0.0172
     20  C10        6.2290   36.7730   59.1970 C.ar    0  <0>0        0.0762
     21  C15        7.0200   35.7970   54.7820 C.ar    0  <0>0        0.0015
     22  C14        5.7560   35.2320   54.8820 C.ar    0  <0>0        0.0001
     23  C17        8.4960   37.6740   58.6390 C.3     0  <0>0        0.1350
     24  C18        9.2810   36.8530   59.6300 C.ar    0  <0>0        0.0279
     25  C23        9.8560   35.6560   59.2360 C.ar    0  <0>0        0.1380
     26  C22       10.5800   34.9060   60.1460 C.ar    0  <0>0        0.0294
     27  F1         9.7120   35.2240   57.9640 F       0  <0>0       -0.2044
     28  C21       10.7200   35.3460   61.4490 C.ar    0  <0>0        0.0023
     29  C20       10.1420   36.5390   61.8420 C.ar    0  <0>0       -0.0001
     30  C19        9.4230   37.2920   60.9330 C.ar    0  <0>0       -0.0002
@<TRIPOS>BOND
     1    21    22   ar
     2    21    19   ar
     3    22    17   ar
     4    19    16   ar
     5    17    15   ar
     6    11    12   ar
     7    11    10   ar
     8    12    13   ar
     9    16    15   ar
    10    16    18   ar
    11    15    14   ar
    12    10     9   ar
    13    27    25    1
    14    13     8   ar
    15    18    23    1
    16    18    20   ar
    17    14     2    1
    18    14    20   ar
    19    23    24    1
    20     9     8   ar
    21     8     5    1
    22     2     1    2
    23    25    24   ar
    24    25    26   ar
    25    24    30   ar
    26     1     3    1
    27     1     5    1
    28    26    28   ar
    29     3     4    3
    30     5     6    2
    31     5     7    2
    32    30    29   ar
    33    28    29   ar

@<TRIPOS>MOLECULE
ZINC01195455_replica-1.pdb
 32 37 0 0 0
SMALL
GASTEIGER

@<TRIPOS>ATOM
      1  N1         5.3480   35.3190   59.1350 N.am    0  <0>0       -0.2084
      2  C9         5.7550   36.3200   59.9250 C.2     0  <0>0        0.2358
      3  O1         5.2070   37.3960   60.0360 O.2     0  <0>0       -0.2741
      4  C10        7.0080   35.8950   60.6590 C.3     0  <0>0        0.0948
      5  C11        7.2580   34.4640   60.1510 C.3     0  <0>0        0.0964
      6  C12        6.1160   34.2240   59.1880 C.2     0  <0>0        0.2358
      7  O2         5.9280   33.2030   58.5610 O.2     0  <0>0       -0.2741
      8  C13        8.5980   34.3710   59.3910 C.3     0  <0>0        0.0727
      9  C14        8.5180   35.4240   58.2980 C.ar    0  <0>0       -0.0198
     10  C15        8.6470   35.1720   56.9610 C.ar    0  <0>0       -0.0042
     11  C16        8.5520   36.2320   56.0680 C.ar    0  <0>0       -0.0003
     12  C17        8.3300   37.5170   56.5270 C.ar    0  <0>0       -0.0003
     13  C18        8.2000   37.7660   57.8880 C.ar    0  <0>0       -0.0042
     14  C19        8.2940   36.7190   58.7600 C.ar    0  <0>0       -0.0215
     15  C20        8.1580   36.8470   60.2690 C.3     0  <0>0        0.0531
     16  C21        9.4230   36.1980   60.8090 C.ar    0  <0>0       -0.0215
     17  C22        9.6500   34.8850   60.3610 C.ar    0  <0>0       -0.0198
     18  C23       10.7410   34.1760   60.7750 C.ar    0  <0>0       -0.0042
     19  C24       11.6250   34.7680   61.6690 C.ar    0  <0>0       -0.0003
     20  C25       11.4000   36.0530   62.1270 C.ar    0  <0>0       -0.0003
     21  C26       10.2890   36.7890   61.6850 C.ar    0  <0>0       -0.0042
     22  C8         4.2080   35.4080   58.3240 C.ar    0  <0>0        0.0566
     23  C3         2.9980   34.8890   58.7640 C.ar    0  <0>0       -0.0081
     24  C4         1.8750   34.9840   57.9650 C.ar    0  <0>0       -0.0030
     25  C5         1.9570   35.5900   56.7250 C.ar    0  <0>0       -0.0002
     26  C6         3.1620   36.1030   56.2810 C.ar    0  <0>0        0.0013
     27  C7         4.2880   36.0110   57.0760 C.ar    0  <0>0        0.0150
     28  C2         2.9080   34.2290   60.1150 C.3     0  <0>0        0.0276
     29  C1         1.4570   33.8320   60.3940 C.3     0  <0>0        0.0051
     30  C27        8.8960   32.9630   58.8730 C.3     0  <0>0        0.1455
     31  O3         8.4040   31.9980   59.8070 O.3     0  <0>0       -0.3813
     32  H23        9.0860   31.4150   60.1670 H       0  <0>0        0.2105
@<TRIPOS>BOND
     1    11    12   ar
     2    11    10   ar
     3    26    25   ar
     4    26    27   ar
     5    12    13   ar
     6    25    24   ar
     7    10     9   ar
     8    27    22   ar
     9    13    14   ar
    10    24    23   ar
    11     9    14   ar
    12     9     8    1
    13    22    23   ar
    14    22     1    1
    15     7     6    2
    16    14    15    1
    17    23    28    1
    18    30     8    1
    19    30    31    1
    20     1     6   am
    21     1     2   am
    22     6     5    1
    23     8     5    1
    24     8    17    1
    25    31    32    1
    26     2     3    2
    27     2     4    1
    28    28    29    1
    29     5     4    1
    30    15     4    1
    31    15    16    1
    32    17    18   ar
    33    17    16   ar
    34    18    19   ar
    35    16    21   ar
    36    19    20   ar
    37    21    20   ar

@<TRIPOS>MOLECULE
ZINC06525403_replica-1.pdb
 28 30 0 0 0
SMALL
GASTEIGER

@<TRIPOS>ATOM
      1  C9        -1.3080   29.6690   56.2630 C.2     0  <0>0        0.1086
      2  C10       -1.3180   29.2440   57.5490 C.3     0  <0>0        0.0742
      3  N1        -1.5150   28.7580   55.2230 N.am    0  <0>0       -0.2784
      4  C8        -0.4800   28.3750   54.4480 C.2     0  <0>0        0.2491
      5  O1         0.6470   28.7440   54.7130 O.2     0  <0>0       -0.2698
      6  H8        -2.4010   28.4020   55.0600 H       0  <0>0        0.1551
      7  C7        -0.7180   27.5080   53.2750 C.ar    0  <0>0        0.0497
      8  C2        -0.2440   26.1950   53.2670 C.ar    0  <0>0       -0.0175
      9  C1         0.5130   25.6580   54.4540 C.3     0  <0>0        0.0312
     10  C3        -0.4750   25.3880   52.1720 C.ar    0  <0>0       -0.0041
     11  C4        -1.1700   25.8800   51.0810 C.ar    0  <0>0       -0.0003
     12  C5        -1.6380   27.1820   51.0810 C.ar    0  <0>0        0.0001
     13  C6        -1.4140   27.9990   52.1680 C.ar    0  <0>0        0.0042
     14  C17       -1.0810   31.0890   55.9630 C.2     0  <0>0        0.3515
     15  O2        -1.0320   31.4650   54.8070 O.2     0  <0>0       -0.2438
     16  O3        -0.9260   31.9750   56.9670 O.3     0  <0>0       -0.4364
     17  C18        0.2860   32.7320   56.9830 C.3     0  <0>0        0.2724
     18  C19        0.5310   33.2580   58.3740 C.ar    0  <0>0        0.1671
     19  O4         0.5820   34.5520   58.7270 O.2     0  <0>0       -0.4509
     20  C22        0.8140   34.6480   60.0470 C.ar    0  <0>0        0.1793
     21  C21        0.9240   33.4060   60.5500 C.ar    0  <0>0        0.0436
     22  C20        0.7410   32.5090   59.4730 C.ar    0  <0>0        0.0400
     23  C11       -1.3140   27.8030   57.8450 C.ar    0  <0>0       -0.0163
     24  C16       -2.5150   27.1350   58.1010 C.ar    0  <0>0       -0.0039
     25  C15       -2.5050   25.7830   58.3720 C.ar    0  <0>0       -0.0003
     26  C14       -1.3070   25.0900   58.4040 C.ar    0  <0>0       -0.0000
     27  C13       -0.1130   25.7450   58.1580 C.ar    0  <0>0       -0.0003
     28  C12       -0.1080   27.0950   57.8800 C.ar    0  <0>0       -0.0039
@<TRIPOS>BOND
     1    11    12   ar
     2    11    10   ar
     3    12    13   ar
     4    13     7   ar
     5    10     8   ar
     6     8     7   ar
     7     8     9    1
     8     7     4    1
     9     4     5    2
    10     4     3   am
    11    15    14    2
    12     6     3    1
    13     3     1    2
    14    14     1    1
    15    14    16    1
    16     1     2    1
    17    16    17    1
    18    17    18    1
    19     2    23    1
    20    23    28   ar
    21    23    24   ar
    22    28    27   ar
    23    24    25   ar
    24    27    26   ar
    25    25    26   ar
    26    18    19   ar
    27    18    22   ar
    28    19    20   ar
    29    22    21   ar
    30    20    21   ar

@<TRIPOS>MOLECULE
ZINC04839228_replica-1.pdb
 23 25 0 0 0
SMALL
GASTEIGER

@<TRIPOS>ATOM
      1  N1         5.1160   34.2900   57.6640 N.am    0  <0>0       -0.2224
      2  C8         6.3150   34.6980   58.0400 C.2     0  <0>0        0.2633
      3  O2         6.6940   34.5930   59.1920 O.2     0  <0>0       -0.2687
      4  C9         7.1710   35.2920   56.9910 C.2     0  <0>0        0.0853
      5  C10        8.4280   35.7930   57.0820 C.2     0  <0>0        0.0111
      6  S1         6.0960   35.1620   55.5690 S.3     0  <0>0       -0.0601
      7  C17        4.7020   34.4020   56.3850 C.2     0  <0>0        0.1250
      8  S2         3.2030   33.9280   55.7080 S.2     0  <0>0       -0.0269
      9  C5         4.2550   33.7200   58.6150 C.ar    0  <0>0        0.0595
     10  C4         3.3550   34.5220   59.3040 C.ar    0  <0>0        0.0184
     11  C3         2.5080   33.9610   60.2400 C.ar    0  <0>0        0.0382
     12  C2         2.5540   32.5970   60.4880 C.ar    0  <0>0        0.1388
     13  C7         3.4530   31.7970   59.7990 C.ar    0  <0>0        0.0382
     14  C6         4.2960   32.3550   58.8600 C.ar    0  <0>0        0.0184
     15  O1         1.7190   32.0460   61.4090 O.3     0  <0>0       -0.4714
     16  C1         0.7640   32.9170   62.0210 C.3     0  <0>0        0.2525
     17  C11        9.0620   35.9540   58.3990 C.ar    0  <0>0        0.0007
     18  C16        9.8750   34.9390   58.9160 C.ar    0  <0>0        0.0009
     19  C15       10.4650   35.0970   60.1520 C.ar    0  <0>0        0.0114
     20  C14       10.2560   36.2570   60.8800 C.ar    0  <0>0        0.0577
     21  C13        9.4530   37.2650   60.3740 C.ar    0  <0>0        0.0114
     22 Cl         11.0050   36.4460   62.4360 Cl      0  <0>0       -0.0822
     23  C12        8.8560   37.1230   59.1400 C.ar    0  <0>0        0.0009
@<TRIPOS>BOND
     1     6     7    1
     2     6     4    1
     3     8     7    2
     4     7     1    1
     5     4     5    2
     6     4     2    1
     7     5    17    1
     8     1     2   am
     9     1     9    1
    10     2     3    2
    11    17    18   ar
    12    17    23   ar
    13     9    14   ar
    14     9    10   ar
    15    14    13   ar
    16    18    19   ar
    17    23    21   ar
    18    10    11   ar
    19    13    12   ar
    20    19    20   ar
    21    11    12   ar
    22    21    20   ar
    23    12    15    1
    24    20    22    1
    25    15    16    1

@<TRIPOS>MOLECULE
ZINC28294294_replica-1.pdb
 29 32 0 0 0
SMALL
GASTEIGER

@<TRIPOS>ATOM
      1  C9         0.6600   29.4580   59.8060 C.3     0  <0>0        0.1359
      2  C10       -0.1200   29.8790   58.5700 C.2     0  <0>0        0.2450
      3  O1        -0.8050   30.8790   58.5510 O.2     0  <0>0       -0.2732
      4  N1        -0.0040   29.0860   57.5180 N.am    0  <0>0       -0.2151
      5  C11        0.7710   27.9440   57.5380 C.2     0  <0>0        0.1900
      6  N2         0.9630   27.0750   56.5660 N.2     0  <0>0       -0.1255
      7  S1         1.4530   27.9220   59.1880 S.3     0  <0>0       -0.0689
      8  C19       -0.6950   29.4140   56.3460 C.ar    0  <0>0        0.0600
      9  C24       -1.9850   28.9430   56.1430 C.ar    0  <0>0        0.0153
     10  C23       -2.6650   29.2690   54.9860 C.ar    0  <0>0        0.0013
     11  C22       -2.0610   30.0640   54.0280 C.ar    0  <0>0        0.0001
     12  C21       -0.7760   30.5330   54.2260 C.ar    0  <0>0        0.0013
     13  C20       -0.0940   30.2160   55.3850 C.ar    0  <0>0        0.0153
     14  N3         0.3150   27.1950   55.4570 N.2     0  <0>0       -0.1447
     15  C12        0.5730   26.3910   54.4610 C.2     0  <0>0        0.1222
     16  C13       -0.2090   26.4860   53.2180 C.ar    0  <0>0        0.0210
     17  C18       -0.4860   25.3350   52.4720 C.ar    0  <0>0        0.0016
     18  C17       -1.2200   25.4320   51.3090 C.ar    0  <0>0        0.0000
     19  C16       -1.6830   26.6640   50.8780 C.ar    0  <0>0        0.0000
     20  C15       -1.4120   27.8070   51.6100 C.ar    0  <0>0        0.0000
     21  C14       -0.6840   27.7250   52.7780 C.ar    0  <0>0        0.0016
     22  C8         1.7040   30.5080   60.1870 C.3     0  <0>0        0.0465
     23  C7         1.0390   31.6280   60.9440 C.ar    0  <0>0       -0.0248
     24  C2         1.1200   32.9240   60.4740 C.ar    0  <0>0       -0.0258
     25  C1         1.8740   33.2190   59.2030 C.3     0  <0>0        0.0307
     26  C3         0.5050   33.9510   61.1670 C.ar    0  <0>0       -0.0046
     27  C4        -0.1820   33.6810   62.3350 C.ar    0  <0>0       -0.0003
     28  C5        -0.2590   32.3850   62.8090 C.ar    0  <0>0       -0.0003
     29  C6         0.3520   31.3590   62.1140 C.ar    0  <0>0       -0.0045
@<TRIPOS>BOND
     1    19    18   ar
     2    19    20   ar
     3    18    17   ar
     4    20    21   ar
     5    17    16   ar
     6    21    16   ar
     7    16    15    1
     8    11    12   ar
     9    11    10   ar
    10    12    13   ar
    11    15    14    2
    12    10     9   ar
    13    13     8   ar
    14    14     6    1
    15     9     8   ar
    16     8     4    1
    17     6     5    2
    18     4     5    1
    19     4     2   am
    20     5     7    1
    21     3     2    2
    22     2     1    1
    23     7     1    1
    24    25    24    1
    25     1    22    1
    26    22    23    1
    27    24    23   ar
    28    24    26   ar
    29    23    29   ar
    30    26    27   ar
    31    29    28   ar
    32    27    28   ar

@<TRIPOS>MOLECULE
ZINC59824743_replica-1.pdb
 26 28 0 0 0
SMALL
GASTEIGER

@<TRIPOS>ATOM
      1  C13        0.9980   31.9090   58.4550 C.ar    0  <0>0        0.1228
      2  C14        1.0050   30.6450   59.0180 C.ar    0  <0>0        0.0206
      3  C15        0.6510   30.4720   60.3390 C.ar    0  <0>0        0.0125
      4  C16        0.2860   31.5770   61.1120 C.ar    0  <0>0        0.0791
      5  C17        0.2820   32.8510   60.5390 C.ar    0  <0>0        0.0686
      6  C18        0.6440   33.0090   59.2140 C.ar    0  <0>0        0.0320
      7 Cl         -0.1700   34.2320   61.4880 Cl      0  <0>0       -0.0815
      8  C19       -0.0820   31.4050   62.4840 C.1     0  <0>0        0.1013
      9  N2        -0.3760   31.2690   63.5740 N.1     0  <0>0       -0.1908
     10  S1         1.4530   32.1190   56.7660 S.O2    0  <0>0        0.0605
     11  O1         2.8710   32.2200   56.7370 O.2     0  <0>0       -0.1530
     12  O2         0.6070   33.1310   56.2400 O.2     0  <0>0       -0.1530
     13  N1         1.0630   30.7160   55.9760 N.3     0  <0>0       -0.1766
     14  H12        1.7040   29.9890   55.9340 H       0  <0>0        0.1491
     15  C2        -0.2490   30.5760   55.3400 C.3     0  <0>0        0.0977
     16  C1        -1.3380   30.5640   56.4150 C.3     0  <0>0        0.0237
     17  C3        -0.2950   29.2850   54.5640 C.ar    0  <0>0       -0.0064
     18  C12       -1.0400   29.2120   53.4270 C.ar    0  <0>0       -0.0029
     19  C11       -1.0800   28.0110   52.6970 C.ar    0  <0>0       -0.0003
     20  C6        -0.3520   26.8890   53.1650 C.ar    0  <0>0       -0.0000
     21  C10       -1.8340   27.9000   51.5170 C.ar    0  <0>0       -0.0000
     22  C5         0.4010   27.0010   54.3460 C.ar    0  <0>0       -0.0003
     23  C7        -0.3970   25.6870   52.4390 C.ar    0  <0>0       -0.0000
     24  C4         0.4210   28.1810   55.0240 C.ar    0  <0>0       -0.0029
     25  C8        -1.1380   25.6170   51.3000 C.ar    0  <0>0       -0.0000
     26  C9        -1.8540   26.7200   50.8390 C.ar    0  <0>0       -0.0000
@<TRIPOS>BOND
     1    26    25   ar
     2    26    21   ar
     3    25    23   ar
     4    21    19   ar
     5    23    20   ar
     6    19    20   ar
     7    19    18   ar
     8    20    22   ar
     9    18    17   ar
    10    22    24   ar
    11    17    24   ar
    12    17    15    1
    13    15    13    1
    14    15    16    1
    15    14    13    1
    16    13    10    1
    17    12    10    2
    18    11    10    2
    19    10     1    1
    20     1     2   ar
    21     1     6   ar
    22     2     3   ar
    23     6     5   ar
    24     3     4   ar
    25     5     4   ar
    26     5     7    1
    27     4     8    1
    28     8     9    3

@<TRIPOS>MOLECULE
ZINC12932212_replica-1.pdb
 30 32 0 0 0
SMALL
GASTEIGER

@<TRIPOS>ATOM
      1  C8        -0.3790   31.6710   57.3540 C.3     0  <0>0        0.1554
      2  C7         0.4000   30.7130   58.2580 C.3     0  <0>0        0.0554
      3  C4        -0.0880   29.3050   58.0390 C.ar    0  <0>0       -0.0200
      4  C3        -1.4210   28.9970   58.2370 C.ar    0  <0>0       -0.0042
      5  C2        -1.8690   27.7040   58.0360 C.ar    0  <0>0       -0.0003
      6  C1        -0.9840   26.7200   57.6370 C.ar    0  <0>0       -0.0000
      7  C6         0.3500   27.0280   57.4390 C.ar    0  <0>0       -0.0003
      8  C5         0.7960   28.3210   57.6350 C.ar    0  <0>0       -0.0042
      9  C9         0.0690   33.0850   57.6140 C.2     0  <0>0        0.2410
     10  O1         0.2060   33.4780   58.7530 O.2     0  <0>0       -0.2733
     11  N1         0.3200   33.9140   56.5810 N.am    0  <0>0       -0.2987
     12  H9         0.2110   33.5990   55.6700 H       0  <0>0        0.1498
     13  C10        0.7570   35.2890   56.8340 C.3     0  <0>0        0.1229
     14  C11        2.2620   35.3370   56.8820 C.ar    0  <0>0        0.0270
     15  S1         3.4450   34.7360   55.6880 S.2     0  <0>0       -0.0891
     16  C14        4.9360   35.2070   56.5490 C.ar    0  <0>0        0.0352
     17  C13        4.4400   35.7820   57.6720 C.ar    0  <0>0        0.0072
     18  C12        3.0700   35.8540   57.8410 C.ar    0  <0>0        0.0044
     19  N2        -0.1290   31.3290   55.9510 N.am    0  <0>0       -0.2637
     20  C15       -1.1580   31.0180   55.1390 C.2     0  <0>0        0.4023
     21  O2        -2.2940   31.0160   55.5710 O.2     0  <0>0       -0.2264
     22  H15        0.7780   31.3310   55.6060 H       0  <0>0        0.1532
     23  O3        -0.9280   30.7100   53.8480 O.3     0  <0>0       -0.4297
     24  C16       -1.9050   29.8620   53.1890 C.3     0  <0>0        0.2367
     25  C17       -1.3220   28.4870   52.9870 C.ar    0  <0>0        0.0213
     26  C22       -1.5280   27.8160   51.7960 C.ar    0  <0>0       -0.0007
     27  C21       -0.9930   26.5550   51.6110 C.ar    0  <0>0       -0.0002
     28  C20       -0.2520   25.9640   52.6180 C.ar    0  <0>0       -0.0000
     29  C19       -0.0450   26.6360   53.8090 C.ar    0  <0>0       -0.0002
     30  C18       -0.5760   27.8990   53.9920 C.ar    0  <0>0       -0.0007
@<TRIPOS>BOND
     1    27    26   ar
     2    27    28   ar
     3    26    25   ar
     4    28    29   ar
     5    25    24    1
     6    25    30   ar
     7    24    23    1
     8    29    30   ar
     9    23    20    1
    10    20    21    2
    11    20    19   am
    12    22    19    1
    13    12    11    1
    14    15    16   ar
    15    15    14   ar
    16    19     1    1
    17    16    17   ar
    18    11    13    1
    19    11     9   am
    20    13    14    1
    21    14    18   ar
    22     1     9    1
    23     1     2    1
    24     7     8   ar
    25     7     6   ar
    26     9    10    2
    27     8     3   ar
    28     6     5   ar
    29    17    18   ar
    30     5     4   ar
    31     3     4   ar
    32     3     2    1

@<TRIPOS>MOLECULE
ZINC04109646_replica-1.pdb
 28 30 0 0 0
SMALL
GASTEIGER

@<TRIPOS>ATOM
      1  C12        8.4740   36.5000   58.5840 C.2     0  <0>0        0.2615
      2  O1         8.6660   37.5310   57.9680 O.2     0  <0>0       -0.2686
      3  N1         7.2810   35.8780   58.5030 N.am    0  <0>0       -0.2303
      4  H16        7.1280   35.0560   58.9940 H       0  <0>0        0.1731
      5  N2         6.2610   36.4210   57.7100 N.am    0  <0>0       -0.2336
      6  C13        5.8580   35.7790   56.5960 C.2     0  <0>0        0.2378
      7  O2         6.3810   34.7310   56.2780 O.2     0  <0>0       -0.2736
      8  H17        5.8430   37.2590   57.9660 H       0  <0>0        0.1728
      9  C14        4.7610   36.3630   55.7450 C.3     0  <0>0        0.0823
     10  C16        3.3220   35.9540   56.0690 C.3     0  <0>0        0.0315
     11  C15        4.0070   35.4120   54.8130 C.3     0  <0>0        0.0143
     12  C17        3.1120   34.9980   57.2140 C.ar    0  <0>0       -0.0220
     13  C22        3.1390   33.6340   56.9900 C.ar    0  <0>0       -0.0043
     14  C21        2.9460   32.7570   58.0420 C.ar    0  <0>0       -0.0003
     15  C20        2.7260   33.2440   59.3160 C.ar    0  <0>0       -0.0000
     16  C19        2.7000   34.6070   59.5410 C.ar    0  <0>0       -0.0003
     17  C18        2.8980   35.4840   58.4910 C.ar    0  <0>0       -0.0043
     18  C11        9.5380   35.9360   59.4170 C.2     0  <0>0        0.0592
     19  C10        9.2580   34.9490   60.2920 C.2     0  <0>0        0.0047
     20  C7        10.3290   34.3820   61.1290 C.ar    0  <0>0        0.0001
     21  C6        11.4110   35.1770   61.5180 C.ar    0  <0>0       -0.0003
     22  C5        12.4100   34.6400   62.3020 C.ar    0  <0>0       -0.0043
     23  C4        12.3440   33.3170   62.7020 C.ar    0  <0>0       -0.0225
     24  C9        11.2770   32.5240   62.3210 C.ar    0  <0>0       -0.0043
     25  C8        10.2670   33.0480   61.5420 C.ar    0  <0>0       -0.0003
     26  C2        13.4410   32.7370   63.5580 C.3     0  <0>0        0.0224
     27  C1        13.3520   31.2100   63.5340 C.3     0  <0>0        0.0047
     28  C3        14.8000   33.1770   63.0130 C.3     0  <0>0        0.0047
@<TRIPOS>BOND
     1    11     9    1
     2    11    10    1
     3     9    10    1
     4     9     6    1
     5    10    12    1
     6     7     6    2
     7     6     5   am
     8    13    12   ar
     9    13    14   ar
    10    12    17   ar
    11     5     8    1
    12     5     3    1
    13     2     1    2
    14    14    15   ar
    15    17    16   ar
    16     3     1   am
    17     3     4    1
    18     1    18    1
    19    15    16   ar
    20    18    19    2
    21    19    20    1
    22    20    21   ar
    23    20    25   ar
    24    21    22   ar
    25    25    24   ar
    26    22    23   ar
    27    24    23   ar
    28    23    26    1
    29    28    26    1
    30    27    26    1

@<TRIPOS>MOLECULE
ZINC00809035_replica-1.pdb
 22 24 0 0 0
SMALL
GASTEIGER

@<TRIPOS>ATOM
      1  C9        -1.2450   30.7570   54.3200 C.2     0  <0>0        0.0064
      2  C10       -1.1520   29.5340   53.6950 C.2     0  <0>0        0.0778
      3  C11       -0.2730   28.4150   54.0810 C.2     0  <0>0        0.1987
      4  O1         0.5060   28.4020   55.0140 O.2     0  <0>0       -0.2865
      5  C12       -0.5120   27.3050   53.1260 C.ar    0  <0>0        0.0421
      6  C13        0.0430   26.0330   53.0360 C.ar    0  <0>0        0.0033
      7  C14       -0.3570   25.1730   52.0260 C.ar    0  <0>0        0.0001
      8  C15       -1.3080   25.5710   51.1050 C.ar    0  <0>0        0.0001
      9  C16       -1.8700   26.8340   51.1810 C.ar    0  <0>0        0.0033
     10  C17       -1.4790   27.7100   52.1900 C.ar    0  <0>0        0.0421
     11  C18       -1.9060   29.0950   52.5070 C.2     0  <0>0        0.1987
     12  O2        -2.7290   29.7490   51.8980 O.2     0  <0>0       -0.2865
     13  C6        -0.5570   30.9830   55.5930 C.ar    0  <0>0        0.0008
     14  C5        -1.1530   30.5770   56.7970 C.ar    0  <0>0        0.0013
     15  C4        -0.5090   30.7950   57.9810 C.ar    0  <0>0        0.0150
     16  C3         0.7410   31.4090   57.9950 C.ar    0  <0>0        0.0542
     17  C8         1.3400   31.8110   56.8010 C.ar    0  <0>0        0.0479
     18  C7         0.7030   31.6010   55.6120 C.ar    0  <0>0        0.0079
     19 Br          3.0380   32.6430   56.8290 Br      0  <0>0       -0.0477
     20  N1         1.3940   31.6230   59.2020 N.pl3   0  <0>0       -0.3037
     21  C1         0.7540   32.7050   59.9630 C.3     0  <0>0        0.1122
     22  C2         1.4550   30.3870   59.9940 C.3     0  <0>0        0.1122
@<TRIPOS>BOND
     1     8     9   ar
     2     8     7   ar
     3     9    10   ar
     4    12    11    2
     5     7     6   ar
     6    10    11    1
     7    10     5   ar
     8    11     2    1
     9     6     5   ar
    10     5     3    1
    11     2     3    1
    12     2     1    2
    13     3     4    2
    14     1    13    1
    15    13    18   ar
    16    13    14   ar
    17    18    17   ar
    18    14    15   ar
    19    17    19    1
    20    17    16   ar
    21    15    16   ar
    22    16    20    1
    23    20    21    1
    24    20    22    1

@<TRIPOS>MOLECULE
ZINC06534166_replica-1.pdb
 27 29 0 0 0
SMALL
GASTEIGER

@<TRIPOS>ATOM
      1  C9        10.0170   35.0090   60.8000 C.2     0  <0>0        0.0825
      2  N2         9.2900   35.9220   61.4150 N.2     0  <0>0       -0.2453
      3  C8         9.8770   34.8120   59.3590 C.2     0  <0>0        0.0349
      4  C7         8.8930   34.0260   58.8780 C.2     0  <0>0        0.0635
      5  N1         8.6760   33.9480   57.5250 N.pl3   0  <0>0       -0.3115
      6  H6         9.0570   33.2170   57.0140 H       0  <0>0        0.1523
      7  C4         7.9060   34.9210   56.8840 C.ar    0  <0>0        0.0483
      8  C3         8.4670   35.7060   55.8840 C.ar    0  <0>0        0.0146
      9  C2         7.7030   36.6670   55.2520 C.ar    0  <0>0        0.0013
     10  C1         6.3800   36.8470   55.6130 C.ar    0  <0>0        0.0001
     11  C6         5.8180   36.0680   56.6070 C.ar    0  <0>0        0.0013
     12  C5         6.5760   35.1050   57.2430 C.ar    0  <0>0        0.0146
     13  C16       10.9750   34.1840   61.5710 C.ar    0  <0>0        0.0178
     14  C21       10.6350   32.8850   61.9490 C.ar    0  <0>0        0.0032
     15  C20       11.5340   32.1180   62.6610 C.ar    0  <0>0        0.0241
     16  C19       12.7660   32.6400   63.0110 C.ar    0  <0>0        0.1429
     17  C18       13.1080   33.9300   62.6440 C.ar    0  <0>0        0.0241
     18  C17       12.2190   34.7040   61.9260 C.ar    0  <0>0        0.0032
     19  N3        13.7250   31.8150   63.7800 N.pl3   0  <0>0        0.0577
     20  O1        14.7750   32.2890   64.1450 O.2     0  <0>0       -0.1261
     21  O2        13.4560   30.6660   64.0460 O.2     0  <0>0       -0.1261
     22  C10        8.5300   36.7930   60.6880 C.ar    0  <0>0        0.0813
     23  C15        9.1420   37.7310   59.8530 C.ar    0  <0>0        0.0191
     24  C14        8.3680   38.6030   59.1170 C.ar    0  <0>0        0.0015
     25  C13        6.9880   38.5590   59.2140 C.ar    0  <0>0        0.0001
     26  C12        6.3750   37.6360   60.0440 C.ar    0  <0>0        0.0015
     27  C11        7.1350   36.7530   60.7800 C.ar    0  <0>0        0.0191
@<TRIPOS>BOND
     1     9    10   ar
     2     9     8   ar
     3    10    11   ar
     4     8     7   ar
     5    11    12   ar
     6     7    12   ar
     7     7     5    1
     8     6     5    1
     9     5     4    1
    10     4     3    2
    11    24    25   ar
    12    24    23   ar
    13    25    26   ar
    14     3     1    1
    15    23    22   ar
    16    26    27   ar
    17    22    27   ar
    18    22     2    1
    19     1     2    2
    20     1    13    1
    21    13    18   ar
    22    13    14   ar
    23    18    17   ar
    24    14    15   ar
    25    17    16   ar
    26    15    16   ar
    27    16    19    1
    28    19    21    2
    29    19    20    2

@<TRIPOS>MOLECULE
ZINC44544844_replica-1.pdb
 26 27 0 0 0
SMALL
GASTEIGER

@<TRIPOS>ATOM
      1  C9         1.5550   32.1080   56.8380 C.3     0  <0>0        0.0936
      2  N1         1.2770   31.3570   55.6120 N.am    0  <0>0       -0.2706
      3  C8         0.0040   31.1060   55.2490 C.2     0  <0>0        0.4020
      4  O2        -0.9140   31.5030   55.9390 O.2     0  <0>0       -0.2264
      5  H9         2.0110   31.0390   55.0620 H       0  <0>0        0.1527
      6  O1        -0.2510   30.4140   54.1220 O.3     0  <0>0       -0.4297
      7  C7        -1.4130   29.5810   54.1200 C.3     0  <0>0        0.2367
      8  C4        -1.1530   28.3600   53.2760 C.ar    0  <0>0        0.0213
      9  C3        -0.4100   27.3120   53.7850 C.ar    0  <0>0       -0.0007
     10  C2        -0.1730   26.1920   53.0110 C.ar    0  <0>0       -0.0002
     11  C1        -0.6810   26.1190   51.7270 C.ar    0  <0>0       -0.0000
     12  C6        -1.4250   27.1670   51.2180 C.ar    0  <0>0       -0.0002
     13  C5        -1.6610   28.2880   51.9910 C.ar    0  <0>0       -0.0007
     14  C10        2.4100   33.3320   56.5050 C.3     0  <0>0        0.0370
     15  C11        2.5720   34.1980   57.7570 C.3     0  <0>0        0.1273
     16  C12        3.8550   34.9810   57.6640 C.ar    0  <0>0       -0.0109
     17  C17        4.2780   35.7430   58.7370 C.ar    0  <0>0        0.0085
     18  C16        5.4600   36.4580   58.6540 C.ar    0  <0>0        0.0679
     19  C15        6.2120   36.4170   57.4930 C.ar    0  <0>0        0.0682
     20 Cl          5.9950   37.4100   60.0040 Cl      0  <0>0       -0.0814
     21  C14        5.7850   35.6580   56.4180 C.ar    0  <0>0        0.0119
     22 Cl          7.6920   37.3190   57.3840 Cl      0  <0>0       -0.0814
     23  C13        4.6070   34.9400   56.5040 C.ar    0  <0>0       -0.0028
     24  C18        1.4080   35.1500   57.8630 C.2     0  <0>0        0.3684
     25  O3         1.0940   35.8370   56.9060 O.co2   0  <0>0       -0.2453
     26  O4         0.7830   35.2350   58.9040 O.co2   0  <0>0       -0.2453
@<TRIPOS>BOND
     1    12    11   ar
     2    12    13   ar
     3    11    10   ar
     4    13     8   ar
     5    10     9   ar
     6     8     9   ar
     7     8     7    1
     8     7     6    1
     9     6     3    1
    10     5     2    1
    11     3     2   am
    12     3     4    2
    13     2     1    1
    14    21    23   ar
    15    21    19   ar
    16    23    16   ar
    17    14     1    1
    18    14    15    1
    19    25    24   ar
    20    22    19    1
    21    19    18   ar
    22    16    15    1
    23    16    17   ar
    24    15    24    1
    25    24    26   ar
    26    18    17   ar
    27    18    20    1

@<TRIPOS>MOLECULE
ZINC01079465_replica-1.pdb
 29 32 0 0 0
SMALL
GASTEIGER

@<TRIPOS>ATOM
      1  N1         7.0640   37.0760   58.4860 N.ar    0  <0>0       -0.2339
      2  C8         6.0210   36.7490   59.2810 C.ar    0  <0>0        0.1238
      3  C9         5.1030   36.0730   58.4950 C.ar    0  <0>0        0.0497
      4  C10        5.6360   36.0070   57.1930 C.ar    0  <0>0        0.1249
      5  N2         6.8000   36.5980   57.1970 N.ar    0  <0>0       -0.1686
      6  C11        4.9780   35.3590   56.0010 C.3     0  <0>0        0.2526
      7  O1         5.1770   33.9450   56.0590 O.3     0  <0>0       -0.4689
      8  C12        4.1240   33.1910   56.4720 C.ar    0  <0>0        0.1391
      9  C17        2.8510   33.4480   55.9850 C.ar    0  <0>0        0.0369
     10  C16        1.7830   32.6810   56.4060 C.ar    0  <0>0        0.0031
     11  C15        1.9810   31.6560   57.3130 C.ar    0  <0>0        0.0002
     12  C14        3.2490   31.3980   57.8000 C.ar    0  <0>0        0.0031
     13  C13        4.3210   32.1620   57.3820 C.ar    0  <0>0        0.0369
     14  C18        3.8000   35.5220   58.9420 C.ar    0  <0>0        0.0040
     15  C23        3.7630   34.4630   59.8470 C.ar    0  <0>0        0.0001
     16  C22        2.5470   33.9550   60.2590 C.ar    0  <0>0        0.0000
     17  C21        1.3690   34.4940   59.7750 C.ar    0  <0>0        0.0000
     18  C20        1.4010   35.5440   58.8750 C.ar    0  <0>0        0.0000
     19  C19        2.6090   36.0650   58.4620 C.ar    0  <0>0        0.0001
     20  N3         5.8940   37.0360   60.6330 N.pl3   0  <0>0       -0.3428
     21  H20        5.2470   36.5560   61.1720 H       0  <0>0        0.1437
     22  H21        6.4530   37.7170   61.0380 H       0  <0>0        0.1437
     23  C7         8.2660   37.8000   58.9020 C.3     0  <0>0        0.1552
     24  C4         9.1790   36.8680   59.6560 C.ar    0  <0>0        0.0022
     25  C3         9.6450   37.2190   60.9090 C.ar    0  <0>0       -0.0023
     26  C2        10.4840   36.3630   61.5990 C.ar    0  <0>0       -0.0003
     27  C1        10.8550   35.1570   61.0370 C.ar    0  <0>0       -0.0000
     28  C6        10.3880   34.8050   59.7850 C.ar    0  <0>0       -0.0003
     29  C5         9.5470   35.6590   59.0960 C.ar    0  <0>0       -0.0023
@<TRIPOS>BOND
     1     9    10   ar
     2     9     8   ar
     3     6     7    1
     4     6     4    1
     5     7     8    1
     6    10    11   ar
     7     8    13   ar
     8     4     5   ar
     9     4     3   ar
    10     5     1   ar
    11    11    12   ar
    12    13    12   ar
    13    19    18   ar
    14    19    14   ar
    15     1    23    1
    16     1     2   ar
    17     3    14    1
    18     3     2   ar
    19    18    17   ar
    20    23    24    1
    21    14    15   ar
    22    29    24   ar
    23    29    28   ar
    24     2    20    1
    25    24    25   ar
    26    17    16   ar
    27    28    27   ar
    28    15    16   ar
    29    20    22    1
    30    20    21    1
    31    25    26   ar
    32    27    26   ar

@<TRIPOS>MOLECULE
ZINC16617745_replica-1.pdb
 27 30 0 0 0
SMALL
GASTEIGER

@<TRIPOS>ATOM
      1  C1         1.7800   34.9110   56.6490 C.ar    0  <0>0       -0.0003
      2  C2         2.8330   35.6430   56.1320 C.ar    0  <0>0       -0.0003
      3  C3         3.9530   35.8800   56.9040 C.ar    0  <0>0       -0.0026
      4  C4         4.0280   35.3870   58.1980 C.ar    0  <0>0       -0.0019
      5  C5         2.9710   34.6580   58.7160 C.ar    0  <0>0       -0.0241
      6  C6         1.8510   34.4200   57.9380 C.ar    0  <0>0       -0.0045
      7  C7         3.2840   34.2420   60.1380 C.3     0  <0>0        0.0286
      8  C8         4.8110   34.4230   60.2870 C.3     0  <0>0        0.0359
      9  C9         5.1160   35.4940   59.2320 C.3     0  <0>0        0.1466
     10  C10        6.4800   35.2900   58.6250 C.2     0  <0>0        0.2526
     11  O1         6.8810   34.3160   58.0260 O.2     0  <0>0       -0.2723
     12  N1         7.1600   36.4260   58.8930 N.am    0  <0>0       -0.2084
     13  C11        6.4110   37.3000   59.5780 C.2     0  <0>0        0.3105
     14  O2         6.8040   38.3930   59.9340 O.2     0  <0>0       -0.2521
     15  N2         5.1720   36.8290   59.8270 N.am    0  <0>0       -0.2806
     16  H9         4.4600   37.2850   60.3040 H       0  <0>0        0.1516
     17  C12        8.5460   36.6710   58.4860 C.3     0  <0>0        0.1290
     18  C13        9.4800   36.1780   59.5620 C.ar    0  <0>0       -0.0019
     19  C18        9.7670   36.9820   60.6500 C.ar    0  <0>0       -0.0027
     20  C17       10.6210   36.5280   61.6380 C.ar    0  <0>0        0.0036
     21  C16       11.1940   35.2750   61.5350 C.ar    0  <0>0        0.0714
     22  C15       10.9120   34.4730   60.4440 C.ar    0  <0>0        0.0036
     23  C14       10.0550   34.9260   59.4580 C.ar    0  <0>0       -0.0027
     24  C19       12.1280   34.7820   62.6100 C.3     0  <0>0        0.4186
     25  F1        13.4080   34.6070   62.0720 F       0  <0>0       -0.1659
     26  F2        12.1810   35.7200   63.6470 F       0  <0>0       -0.1659
     27  F3        11.6610   33.5610   63.1090 F       0  <0>0       -0.1659
@<TRIPOS>BOND
     1     2     1   ar
     2     2     3   ar
     3     1     6   ar
     4     3     4   ar
     5     6     5   ar
     6    11    10    2
     7     4     5   ar
     8     4     9    1
     9    17    12    1
    10    17    18    1
    11    10    12   am
    12    10     9    1
    13     5     7    1
    14    12    13   am
    15     9    15    1
    16     9     8    1
    17    23    18   ar
    18    23    22   ar
    19    18    19   ar
    20    13    15   am
    21    13    14    2
    22    15    16    1
    23     7     8    1
    24    22    21   ar
    25    19    20   ar
    26    21    20   ar
    27    21    24    1
    28    25    24    1
    29    24    27    1
    30    24    26    1

@<TRIPOS>MOLECULE
ZINC04106873_replica-1.pdb
 26 29 0 0 0
SMALL
GASTEIGER

@<TRIPOS>ATOM
      1  C1        -1.6820   26.5970   50.8500 C.ar    0  <0>0        0.0000
      2  C2        -1.0430   25.4770   51.3450 C.ar    0  <0>0        0.0001
      3  C3        -0.3970   25.5260   52.5680 C.ar    0  <0>0        0.0032
      4  C4        -0.3890   26.7070   53.3010 C.ar    0  <0>0        0.0390
      5  C5        -1.0380   27.8460   52.7990 C.ar    0  <0>0        0.0032
      6  C6        -1.6820   27.7820   51.5700 C.ar    0  <0>0        0.0001
      7  C7        -0.8730   28.9540   53.7760 C.ar    0  <0>0        0.0044
      8  C8        -1.3120   30.2690   53.7660 C.ar    0  <0>0        0.0002
      9  C9        -1.0150   31.1130   54.8280 C.ar    0  <0>0        0.0013
     10  C10       -0.2830   30.6580   55.9010 C.ar    0  <0>0        0.0160
     11  C11        0.1700   29.3370   55.9320 C.ar    0  <0>0        0.0678
     12  C12       -0.1250   28.4800   54.8680 C.ar    0  <0>0        0.0535
     13  C13        0.1990   27.0620   54.6140 C.2     0  <0>0        0.1968
     14  O1         0.8350   26.3270   55.3430 O.2     0  <0>0       -0.2865
     15  N1         0.9070   28.8790   57.0140 N.pl3   0  <0>0       -0.2149
     16  H8         1.8760   28.8980   56.9830 H       0  <0>0        0.1737
     17  S1         0.1320   28.3000   58.3580 S.O2    0  <0>0        0.0736
     18  O2        -1.2240   28.0900   57.9860 O.2     0  <0>0       -0.1499
     19  O3         0.9470   27.2620   58.8820 O.2     0  <0>0       -0.1499
     20  C14        0.1310   29.5930   59.5550 C.ar    0  <0>0        0.1252
     21  C19       -0.4910   29.4040   60.7760 C.ar    0  <0>0        0.0207
     22  C18       -0.4910   30.4180   61.7160 C.ar    0  <0>0        0.0081
     23  C17        0.1300   31.6220   61.4350 C.ar    0  <0>0        0.0346
     24  C16        0.7520   31.8100   60.2130 C.ar    0  <0>0        0.0081
     25 Br          0.1290   33.0090   62.7190 Br      0  <0>0       -0.0490
     26  C15        0.7560   30.7940   59.2760 C.ar    0  <0>0        0.0207
@<TRIPOS>BOND
     1     1     2   ar
     2     1     6   ar
     3     2     3   ar
     4     6     5   ar
     5     3     4   ar
     6     5     4   ar
     7     5     7    1
     8     4    13    1
     9     8     7   ar
    10     8     9   ar
    11     7    12   ar
    12    13    12    1
    13    13    14    2
    14     9    10   ar
    15    12    11   ar
    16    10    11   ar
    17    11    15    1
    18    16    15    1
    19    15    17    1
    20    18    17    2
    21    17    19    2
    22    17    20    1
    23    26    20   ar
    24    26    24   ar
    25    20    21   ar
    26    24    23   ar
    27    21    22   ar
    28    23    22   ar
    29    23    25    1

@<TRIPOS>MOLECULE
ZINC27903638_replica-1.pdb
 26 28 0 0 0
SMALL
GASTEIGER

@<TRIPOS>ATOM
      1  C9        -0.3830   31.5380   55.9440 C.2     0  <0>0        0.1628
      2  S2        -0.6770   30.7990   57.4600 S.2     0  <0>0       -0.0164
      3  N3         0.6270   32.4210   55.8100 N.am    0  <0>0       -0.2621
      4  C10        1.4060   32.7200   56.8690 C.2     0  <0>0        0.2516
      5  O1         1.1970   32.1950   57.9440 O.2     0  <0>0       -0.2697
      6  H7         0.8170   32.8960   54.8370 H       0  <0>0        0.1569
      7  N2        -1.1620   31.2390   54.8860 N.am    0  <0>0       -0.1686
      8  C8        -1.0370   30.0100   54.2610 C.ar    0  <0>0        0.1629
      9  S1        -0.1270   28.5680   54.7950 S.2     0  <0>0       -0.0517
     10  C6        -0.5350   27.5240   53.4160 C.ar    0  <0>0        0.0473
     11  C5        -1.3520   28.3680   52.6310 C.ar    0  <0>0        0.0640
     12  C7        -0.2310   26.2370   53.0500 C.ar    0  <0>0        0.0037
     13  C4        -1.8510   27.8130   51.4300 C.ar    0  <0>0        0.0172
     14  N1        -1.5590   29.6080   53.1250 N.ar    0  <0>0       -0.3348
     15  C3        -1.5430   26.5260   51.0720 C.ar    0  <0>0       -0.0027
     16  C2        -0.7360   25.7260   51.8670 C.ar    0  <0>0       -0.0213
     17  C1        -0.4140   24.3150   51.4490 C.3     0  <0>0        0.0310
     18  H11       -2.1850   30.3230   52.5720 H       0  <0>0        0.1677
     19  C11        2.5130   33.6860   56.7210 C.ar    0  <0>0        0.0647
     20  C16        2.2550   35.0590   56.7580 C.ar    0  <0>0        0.0621
     21  C15        3.2950   35.9580   56.6190 C.ar    0  <0>0        0.0120
     22 Cl          0.6320   35.6350   56.9780 Cl      0  <0>0       -0.0821
     23  C14        4.5880   35.5010   56.4430 C.ar    0  <0>0        0.0067
     24  C13        4.8500   34.1420   56.4060 C.ar    0  <0>0        0.0303
     25  C12        3.8220   33.2340   56.5490 C.ar    0  <0>0        0.0111
     26  I1         6.8140   33.4640   56.1400 I       0  <0>0       -0.0425
@<TRIPOS>BOND
     1    15    13   ar
     2    15    16   ar
     3    13    11   ar
     4    17    16    1
     5    16    12   ar
     6    18    14    1
     7    11    14   ar
     8    11    10   ar
     9    12    10   ar
    10    14     8   ar
    11    10     9   ar
    12     8     9   ar
    13     8     7    2
    14     6     3    1
    15     7     1    1
    16     3     1    1
    17     3     4   am
    18     1     2    2
    19    26    24    1
    20    24    23   ar
    21    24    25   ar
    22    23    21   ar
    23    25    19   ar
    24    21    20   ar
    25    19    20   ar
    26    19     4    1
    27    20    22    1
    28     4     5    2

@<TRIPOS>MOLECULE
ZINC23329186_replica-1.pdb
 28 30 0 0 0
SMALL
GASTEIGER

@<TRIPOS>ATOM
      1  C9        -0.4920   29.9630   56.2080 C.ar    0  <0>0        0.2094
      2  N1         0.1910   29.3320   57.1360 N.ar    0  <0>0       -0.1207
      3  N2         1.1230   30.0950   57.5850 N.ar    0  <0>0       -0.1274
      4  C10        1.0910   31.2470   56.9760 C.ar    0  <0>0        0.2042
      5  N3         0.0640   31.2020   56.0740 N.ar    0  <0>0       -0.2242
      6  C11        2.0170   32.4110   57.2180 C.3     0  <0>0        0.2719
      7  O1         2.3510   33.0210   55.9700 O.3     0  <0>0       -0.4672
      8  C12        3.3350   33.9590   55.9850 C.ar    0  <0>0        0.1392
      9  C17        4.3820   33.8800   55.0790 C.ar    0  <0>0        0.0366
     10  C16        5.3790   34.8380   55.0930 C.ar    0  <0>0       -0.0012
     11  C15        5.3380   35.8670   56.0160 C.ar    0  <0>0       -0.0223
     12  C14        4.2980   35.9430   56.9240 C.ar    0  <0>0       -0.0012
     13  C13        3.2960   34.9920   56.9110 C.ar    0  <0>0        0.0366
     14  C18        6.4290   36.9050   56.0330 C.3     0  <0>0        0.0224
     15  C19        7.0380   36.9850   57.4350 C.3     0  <0>0        0.0047
     16  C20        7.5150   36.5200   55.0260 C.3     0  <0>0        0.0047
     17  N4        -0.3250   32.1930   55.2190 N.pl3   0  <0>0       -0.2947
     18  H10       -1.3270   32.1970   55.1010 H       0  <0>0        0.1627
     19  H11        0.0070   33.0920   55.5320 H       0  <0>0        0.1627
     20  S1        -1.8640   29.3260   55.3030 S.3     0  <0>0       -0.0706
     21  C2        -1.3470   29.4620   53.5700 C.3     0  <0>0        0.0770
     22  C1        -2.4690   30.1030   52.7510 C.3     0  <0>0        0.0169
     23  C3        -1.0500   28.0870   53.0260 C.ar    0  <0>0       -0.0120
     24  C8        -0.2750   27.2070   53.7580 C.ar    0  <0>0       -0.0034
     25  C7        -0.0070   25.9450   53.2610 C.ar    0  <0>0       -0.0003
     26  C6        -0.5050   25.5680   52.0280 C.ar    0  <0>0       -0.0000
     27  C5        -1.2750   26.4500   51.2950 C.ar    0  <0>0       -0.0003
     28  C4        -1.5470   27.7100   51.7930 C.ar    0  <0>0       -0.0034
@<TRIPOS>BOND
     1    27    28   ar
     2    27    26   ar
     3    28    23   ar
     4    26    25   ar
     5    22    21    1
     6    23    21    1
     7    23    24   ar
     8    25    24   ar
     9    21    20    1
    10    16    14    1
    11     9    10   ar
    12     9     8   ar
    13    10    11   ar
    14    18    17    1
    15    17    19    1
    16    17     5    1
    17    20     1    1
    18     7     8    1
    19     7     6    1
    20     8    13   ar
    21    11    14    1
    22    11    12   ar
    23    14    15    1
    24     5     1   ar
    25     5     4   ar
    26     1     2   ar
    27    13    12   ar
    28     4     6    1
    29     4     3   ar
    30     2     3   ar

@<TRIPOS>MOLECULE
ZINC13172567_replica-1.pdb
 28 29 0 0 0
SMALL
GASTEIGER

@<TRIPOS>ATOM
      1  N1         8.2700   34.9230   59.8750 N.am    0  <0>0       -0.2981
      2  C10        9.4390   35.4080   60.3380 C.2     0  <0>0        0.2462
      3  O2         9.6470   36.6080   60.3250 O.2     0  <0>0       -0.2701
      4  H8         8.1310   33.9650   59.8170 H       0  <0>0        0.1500
      5  C7         7.2070   35.8430   59.4600 C.3     0  <0>0        0.1064
      6  C5         7.4110   36.2270   58.0160 C.ar    0  <0>0        0.0066
      7  C4         7.5030   37.5600   57.6620 C.ar    0  <0>0        0.0552
      8  C3         7.6910   37.9130   56.3370 C.ar    0  <0>0        0.0111
      9 Cl          7.3850   38.7930   58.8790 Cl      0  <0>0       -0.0825
     10  C2         7.7870   36.9310   55.3690 C.ar    0  <0>0        0.0008
     11  C1         7.6950   35.5980   55.7230 C.ar    0  <0>0       -0.0002
     12  C6         7.5110   35.2460   57.0470 C.ar    0  <0>0       -0.0018
     13  C8         5.8490   35.1590   59.6190 C.3     0  <0>0        0.1381
     14  C9         6.0530   33.7380   60.0770 C.2     0  <0>0        0.3669
     15  O1         5.8640   33.4430   61.2330 O.co2   0  <0>0       -0.2456
     16  O3         6.4440   32.7990   59.2000 O.co2   0  <0>0       -0.2456
     17  C11       10.4570   34.4930   60.8560 C.2     0  <0>0        0.0577
     18  C12       11.3130   34.9090   61.8110 C.2     0  <0>0        0.0046
     19  C13       12.3370   33.9890   62.3330 C.ar    0  <0>0        0.0001
     20  C18       11.9670   32.7490   62.8590 C.ar    0  <0>0        0.0039
     21  C17       12.9330   31.8940   63.3460 C.ar    0  <0>0        0.0714
     22  C16       14.2680   32.2610   63.3140 C.ar    0  <0>0        0.0039
     23  C15       14.6410   33.4900   62.7980 C.ar    0  <0>0       -0.0001
     24  C14       13.6880   34.3540   62.3030 C.ar    0  <0>0       -0.0000
     25  C19       12.5350   30.5570   63.9150 C.3     0  <0>0        0.4186
     26  F1        13.0350   29.5350   63.1010 F       0  <0>0       -0.1659
     27  F2        13.0610   30.4230   65.2050 F       0  <0>0       -0.1659
     28  F3        11.1400   30.4690   63.9690 F       0  <0>0       -0.1659
@<TRIPOS>BOND
     1    10    11   ar
     2    10     8   ar
     3    11    12   ar
     4     8     7   ar
     5    12     6   ar
     6     7     6   ar
     7     7     9    1
     8     6     5    1
     9    16    14   ar
    10     5    13    1
    11     5     1    1
    12    13    14    1
    13     4     1    1
    14     1     2   am
    15    14    15   ar
    16     3     2    2
    17     2    17    1
    18    17    18    2
    19    18    19    1
    20    24    19   ar
    21    24    23   ar
    22    19    20   ar
    23    23    22   ar
    24    20    21   ar
    25    26    25    1
    26    22    21   ar
    27    21    25    1
    28    25    28    1
    29    25    27    1

@<TRIPOS>MOLECULE
ZINC21363340_replica-1.pdb
 31 34 0 0 0
SMALL
GASTEIGER

@<TRIPOS>ATOM
      1  C11        0.7410   32.4970   56.6460 C.ar    0  <0>0        0.0661
      2  C12        0.3110   33.2350   57.7510 C.ar    0  <0>0        0.0070
      3  C13        1.0360   34.3300   58.1700 C.ar    0  <0>0        0.0149
      4  C14        2.1930   34.6990   57.4940 C.ar    0  <0>0        0.0516
      5  C15        2.6210   33.9690   56.3910 C.ar    0  <0>0        0.0149
      6  C16        1.9040   32.8700   55.9700 C.ar    0  <0>0        0.0070
      7  N2         2.9240   35.8100   57.9220 N.am    0  <0>0       -0.2681
      8  C17        4.1300   35.6420   58.5000 C.2     0  <0>0        0.3082
      9  O2         4.5470   34.5220   58.7220 O.2     0  <0>0       -0.2522
     10  N3         4.8740   36.7160   58.8330 N.am    0  <0>0       -0.2681
     11  H14        4.4660   37.7290   58.7030 H       0  <0>0        0.1564
     12  H13        2.5160   36.8230   57.7850 H       0  <0>0        0.1564
     13  C18        6.1640   36.5410   59.3450 C.ar    0  <0>0        0.0516
     14  C23        6.3990   36.6890   60.7050 C.ar    0  <0>0        0.0152
     15  C22        7.6730   36.5160   61.2090 C.ar    0  <0>0        0.0080
     16  C21        8.7170   36.1950   60.3570 C.ar    0  <0>0        0.0346
     17  C20        8.4850   36.0470   59.0010 C.ar    0  <0>0        0.0080
     18 Br         10.4600   35.9590   61.0490 Br      0  <0>0       -0.0490
     19  C19        7.2110   36.2130   58.4940 C.ar    0  <0>0        0.0152
     20  C10       -0.0320   31.3210   56.1950 C.2     0  <0>0        0.2775
     21  O1        -1.2340   30.9480   56.6660 O.2     0  <0>0       -0.4439
     22  C9        -1.6100   29.8350   56.0080 C.3     0  <0>0        0.2664
     23  C8        -0.6200   29.5370   55.1300 C.2     0  <0>0        0.1563
     24  N1         0.3390   30.4760   55.2640 N.2     0  <0>0       -0.3684
     25  C5        -0.5990   28.3890   54.1880 C.ar    0  <0>0        0.0292
     26  C4        -1.2470   28.4820   52.9580 C.ar    0  <0>0        0.0020
     27  C3        -1.2230   27.4130   52.0850 C.ar    0  <0>0       -0.0042
     28  C2        -0.5580   26.2500   52.4310 C.ar    0  <0>0       -0.0218
     29  C1        -0.5370   25.0850   51.4750 C.3     0  <0>0        0.0310
     30  C7         0.0860   26.1520   53.6510 C.ar    0  <0>0       -0.0042
     31  C6         0.0740   27.2180   54.5290 C.ar    0  <0>0        0.0020
@<TRIPOS>BOND
     1    29    28    1
     2    27    28   ar
     3    27    26   ar
     4    28    30   ar
     5    26    25   ar
     6    30    31   ar
     7    25    31   ar
     8    25    23    1
     9    23    24    2
    10    23    22    1
    11    24    20    2
    12     6     5   ar
    13     6     1   ar
    14    22    21    1
    15    20     1    1
    16    20    21    1
    17     5     4   ar
    18     1     2   ar
    19     4     7    1
    20     4     3   ar
    21     2     3   ar
    22    12     7    1
    23     7     8   am
    24    19    17   ar
    25    19    13   ar
    26     8     9    2
    27     8    10   am
    28    11    10    1
    29    10    13    1
    30    17    16   ar
    31    13    14   ar
    32    16    18    1
    33    16    15   ar
    34    14    15   ar

@<TRIPOS>MOLECULE
ZINC67450030_replica-1.pdb
 26 28 0 0 0
SMALL
GASTEIGER

@<TRIPOS>ATOM
      1  C8        -0.7120   31.3930   55.5210 C.2     0  <0>0        0.3130
      2  N2        -0.7080   31.0290   54.2680 N.2     0  <0>0       -0.3149
      3  C9        -1.8600   30.4230   53.9620 C.1     0  <0>0        0.1081
      4  N3        -2.6160   30.3940   55.0210 N.2     0  <0>0       -0.0113
      5  O1        -1.8790   31.0210   56.0610 O.2     0  <0>0       -0.3141
      6  C7         0.4070   32.1040   56.2370 C.3     0  <0>0        0.1914
      7  N1        -0.1340   33.2480   56.9750 N.pl3   0  <0>0       -0.3218
      8  H5        -1.0900   33.3250   57.1150 H       0  <0>0        0.1474
      9  C5         0.7290   34.2280   57.4770 C.ar    0  <0>0        0.0796
     10  C4         0.8140   34.4480   58.8490 C.ar    0  <0>0        0.1572
     11  C3         1.6700   35.4190   59.3410 C.ar    0  <0>0        0.0384
     12  C2         2.4390   36.1690   58.4700 C.ar    0  <0>0        0.0032
     13  C1         2.3560   35.9520   57.1060 C.ar    0  <0>0        0.0015
     14  C6         1.5040   34.9840   56.6080 C.ar    0  <0>0        0.0174
     15  O2         0.0570   33.7090   59.7060 O.3     0  <0>0       -0.4224
     16  C17        0.3090   33.8760   61.1020 C.3     0  <0>0        0.5087
     17  F1        -0.6520   34.7310   61.6520 F       0  <0>0       -0.1550
     18  F2         0.2440   32.6310   61.7390 F       0  <0>0       -0.1550
     19  C10       -2.2250   29.8650   52.6100 C.3     0  <0>0        0.1416
     20  C11       -1.6270   28.4910   52.4550 C.ar    0  <0>0       -0.0053
     21  C16       -0.8400   27.9630   53.4610 C.ar    0  <0>0        0.0082
     22  C15       -0.2960   26.6980   53.3220 C.ar    0  <0>0        0.0574
     23  C14       -0.5310   25.9680   52.1700 C.ar    0  <0>0        0.0114
     24 Cl          0.6860   26.0310   54.5880 Cl      0  <0>0       -0.0823
     25  C13       -1.3120   26.5000   51.1620 C.ar    0  <0>0        0.0006
     26  C12       -1.8600   27.7610   51.3050 C.ar    0  <0>0       -0.0031
@<TRIPOS>BOND
     1    25    26   ar
     2    25    23   ar
     3    26    20   ar
     4    23    22   ar
     5    20    19    1
     6    20    21   ar
     7    19     3    1
     8    22    21   ar
     9    22    24    1
    10     3     2    2
    11     3     4    2
    12     2     1    2
    13     4     5    1
    14     1     5    1
    15     1     6    1
    16     6     7    1
    17    14    13   ar
    18    14     9   ar
    19     7     8    1
    20     7     9    1
    21    13    12   ar
    22     9    10   ar
    23    12    11   ar
    24    10    11   ar
    25    10    15    1
    26    15    16    1
    27    16    17    1
    28    16    18    1

@<TRIPOS>MOLECULE
ZINC01216277_replica-1.pdb
 29 31 0 0 0
SMALL
GASTEIGER

@<TRIPOS>ATOM
      1  C13       -0.7610   29.8200   55.2300 C.2     0  <0>0        0.1206
      2  N1         0.1170   30.7720   55.1300 N.2     0  <0>0       -0.1774
      3  N2        -0.2120   32.0750   55.5280 N.am    0  <0>0       -0.2044
      4  C14        0.3670   32.6120   56.6200 C.2     0  <0>0        0.2611
      5  O2         1.1720   31.9680   57.2590 O.2     0  <0>0       -0.2715
      6  H13       -0.8560   32.5890   55.0170 H       0  <0>0        0.1773
      7  C15        0.0130   34.0130   57.0480 C.3     0  <0>0        0.1754
      8  N3         0.8080   34.9730   56.2780 N.pl3   0  <0>0       -0.3252
      9  H16        0.4350   35.3870   55.4840 H       0  <0>0        0.1473
     10  C16        2.1040   35.2920   56.6880 C.ar    0  <0>0        0.0450
     11  C21        3.1530   35.2440   55.7780 C.ar    0  <0>0        0.0140
     12  C20        4.4350   35.5600   56.1860 C.ar    0  <0>0       -0.0030
     13  C19        4.6740   35.9250   57.4980 C.ar    0  <0>0       -0.0218
     14  C18        3.6310   35.9750   58.4050 C.ar    0  <0>0       -0.0030
     15  C22        6.0730   36.2700   57.9390 C.3     0  <0>0        0.0310
     16  C17        2.3470   35.6650   58.0030 C.ar    0  <0>0        0.0140
     17  C12       -0.4160   28.4540   54.8120 C.ar    0  <0>0        0.0546
     18  C3         0.2980   27.6090   55.6600 C.ar    0  <0>0        0.1400
     19  C4         0.6180   26.3120   55.2590 C.ar    0  <0>0        0.0369
     20  C5         0.2610   25.8310   54.0400 C.ar    0  <0>0        0.0031
     21  C6        -0.4550   26.6320   53.1330 C.ar    0  <0>0        0.0002
     22  C11       -0.8090   27.9540   53.4960 C.ar    0  <0>0        0.0045
     23  C7        -0.8300   26.1450   51.8680 C.ar    0  <0>0        0.0000
     24  C10       -1.5220   28.7530   52.5940 C.ar    0  <0>0        0.0001
     25  C9        -1.8690   28.2480   51.3760 C.ar    0  <0>0        0.0000
     26  C8        -1.5230   26.9490   51.0150 C.ar    0  <0>0        0.0000
     27  O1         0.6800   28.0490   56.8870 O.3     0  <0>0       -0.4754
     28  C2         0.1600   27.3490   58.0190 C.3     0  <0>0        0.2055
     29  C1        -1.1330   28.0220   58.4830 C.3     0  <0>0        0.0512
@<TRIPOS>BOND
     1    26    25   ar
     2    26    23   ar
     3    25    24   ar
     4    23    21   ar
     5    24    22   ar
     6    21    22   ar
     7    21    20   ar
     8    22    17   ar
     9    20    19   ar
    10    17     1    1
    11    17    18   ar
    12     6     3    1
    13     2     1    2
    14     2     3    1
    15    19    18   ar
    16     9     8    1
    17     3     4   am
    18    18    27    1
    19    11    12   ar
    20    11    10   ar
    21    12    13   ar
    22     8    10    1
    23     8     7    1
    24     4     7    1
    25     4     5    2
    26    10    16   ar
    27    27    28    1
    28    13    15    1
    29    13    14   ar
    30    16    14   ar
    31    28    29    1

@<TRIPOS>MOLECULE
ZINC13564472_replica-1.pdb
 27 28 0 0 0
SMALL
GASTEIGER

@<TRIPOS>ATOM
      1  N2         7.5350   33.9580   59.3080 N.pl3   0  <0>0       -0.2312
      2  C8         6.2940   34.4710   59.4900 C.1     0  <0>0        0.1724
      3  N3         5.2540   34.9000   59.6420 N.1     0  <0>0       -0.1739
      4  H5         7.9330   33.3960   59.9920 H       0  <0>0        0.1660
      5  C7         8.2320   34.2340   58.1520 C.2     0  <0>0        0.1679
      6  N1         9.2910   35.0100   58.1930 N.2     0  <0>0       -0.2242
      7  C5         9.7720   35.4470   59.3980 C.ar    0  <0>0        0.0832
      8  C4        10.6530   34.6500   60.1320 C.ar    0  <0>0        0.0230
      9  C3        11.1340   35.0960   61.3450 C.ar    0  <0>0        0.0729
     10  C2        10.7470   36.3300   61.8350 C.ar    0  <0>0        0.0039
     11  C1         9.8740   37.1260   61.1130 C.ar    0  <0>0        0.0015
     12  C6         9.3850   36.6920   59.8980 C.ar    0  <0>0        0.0191
     13  C17       12.0860   34.2370   62.1390 C.3     0  <0>0        0.4186
     14  F1        13.3390   34.2310   61.5150 F       0  <0>0       -0.1659
     15  F2        12.2110   34.7530   63.4330 F       0  <0>0       -0.1659
     16  F3        11.5910   32.9300   62.2020 F       0  <0>0       -0.1659
     17  S1         7.7030   33.5470   56.6190 S.3     0  <0>0       -0.0745
     18  C9         6.9220   34.9400   55.7580 C.3     0  <0>0        0.0911
     19  C10        5.4370   34.9180   56.0100 C.ar    0  <0>0       -0.0109
     20  C15        4.7760   33.7070   56.1270 C.ar    0  <0>0       -0.0032
     21  C14        3.4180   33.6790   56.3640 C.ar    0  <0>0        0.0063
     22  C13        2.7060   34.8760   56.4740 C.ar    0  <0>0        0.0798
     23  C12        3.3790   36.0950   56.3490 C.ar    0  <0>0        0.0063
     24  C11        4.7380   36.1070   56.1180 C.ar    0  <0>0       -0.0032
     25  C16        1.2530   34.8540   56.7210 C.2     0  <0>0        0.3878
     26  O1         0.6370   35.9030   56.8490 O.co2   0  <0>0       -0.2406
     27  O2         0.6610   33.7860   56.8000 O.co2   0  <0>0       -0.2406
@<TRIPOS>BOND
     1    18    19    1
     2    18    17    1
     3    19    24   ar
     4    19    20   ar
     5    24    23   ar
     6    20    21   ar
     7    23    22   ar
     8    21    22   ar
     9    22    25    1
    10    17     5    1
    11    25    27   ar
    12    25    26   ar
    13     5     6    2
    14     5     1    1
    15     6     7    1
    16     1     2    1
    17     1     4    1
    18     7    12   ar
    19     7     8   ar
    20     2     3    3
    21    12    11   ar
    22     8     9   ar
    23    11    10   ar
    24     9    10   ar
    25     9    13    1
    26    14    13    1
    27    13    16    1
    28    13    15    1

@<TRIPOS>MOLECULE
ZINC14475320_replica-1.pdb
 37 42 0 0 0
SMALL
GASTEIGER

@<TRIPOS>ATOM
      1  C8         3.4560   34.0210   58.0430 C.ar    0  <0>0        0.1249
      2  C9         3.2720   34.4230   56.7320 C.ar    0  <0>0        0.0214
      3  C10        2.5630   33.6480   55.9030 C.ar    0  <0>0        0.0154
      4  C11        2.0010   32.4550   56.3410 C.ar    0  <0>0        0.0408
      5  C12        2.1680   32.0320   57.6350 C.ar    0  <0>0       -0.0080
      6  C13        2.9090   32.8370   58.4910 C.ar    0  <0>0        0.0171
      7  C14        1.5970   30.7560   58.1650 C.3     0  <0>0        0.0255
      8  C15        0.3970   31.0100   59.0460 C.3     0  <0>0        0.0045
      9  C16       -0.5020   30.0740   58.8690 C.3     0  <0>0        0.0004
     10  C17       -0.0210   29.0620   57.8470 C.3     0  <0>0        0.0023
     11  C18        1.0570   29.8470   57.0440 C.3     0  <0>0        0.0262
     12  C19        0.3220   30.6890   55.9970 C.3     0  <0>0        0.0921
     13  N2         1.2520   31.6820   55.4480 N.pl3   0  <0>0       -0.3308
     14  H18        1.3450   31.7990   54.4900 H       0  <0>0        0.1471
     15  S1         4.3930   35.0280   59.1450 S.O2    0  <0>0        0.0736
     16  O1         3.9260   36.3590   58.9750 O.2     0  <0>0       -0.1499
     17  O2         4.3790   34.3710   60.4050 O.2     0  <0>0       -0.1499
     18  N1         5.9620   35.0040   58.6170 N.pl3   0  <0>0       -0.2156
     19  H10        6.4110   34.1580   58.4690 H       0  <0>0        0.1737
     20  C7         6.6380   36.2040   58.3820 C.ar    0  <0>0        0.0568
     21  C2         6.7700   36.6870   57.0870 C.ar    0  <0>0       -0.0075
     22  C1         6.1850   35.9170   55.9300 C.3     0  <0>0        0.0324
     23  C3         7.4350   37.8760   56.8590 C.ar    0  <0>0       -0.0030
     24  C4         7.9780   38.5800   57.9180 C.ar    0  <0>0       -0.0006
     25  C5         7.8520   38.1000   59.2090 C.ar    0  <0>0       -0.0030
     26  C6         7.1840   36.9140   59.4430 C.ar    0  <0>0       -0.0075
     27  C30        7.0470   36.3910   60.8510 C.3     0  <0>0        0.0324
     28  C20       -0.1750   29.7970   54.8890 C.ar    0  <0>0       -0.0046
     29  C29        0.2780   28.5160   54.8060 C.ar    0  <0>0       -0.0027
     30  C28       -0.1840   27.6810   53.7750 C.ar    0  <0>0       -0.0003
     31  C23       -1.1150   28.1870   52.8340 C.ar    0  <0>0       -0.0000
     32  C27        0.2600   26.3530   53.6570 C.ar    0  <0>0       -0.0000
     33  C22       -1.5600   29.5160   52.9520 C.ar    0  <0>0       -0.0003
     34  C24       -1.5770   27.3530   51.8030 C.ar    0  <0>0       -0.0000
     35  C21       -1.0950   30.2940   53.9670 C.ar    0  <0>0       -0.0027
     36  C25       -1.1260   26.0710   51.7200 C.ar    0  <0>0       -0.0000
     37  C26       -0.2100   25.5730   52.6450 C.ar    0  <0>0       -0.0000
@<TRIPOS>BOND
     1    36    34   ar
     2    36    37   ar
     3    34    31   ar
     4    37    32   ar
     5    31    33   ar
     6    31    30   ar
     7    33    35   ar
     8    32    30   ar
     9    30    29   ar
    10    35    28   ar
    11    14    13    1
    12    29    28   ar
    13    28    12    1
    14    13    12    1
    15    13     4    1
    16     3     4   ar
    17     3     2   ar
    18    22    21    1
    19    12    11    1
    20     4     5   ar
    21     2     1   ar
    22    23    21   ar
    23    23    24   ar
    24    11    10    1
    25    11     7    1
    26    21    20   ar
    27     5     7    1
    28     5     6   ar
    29    10     9    1
    30    24    25   ar
    31     1     6   ar
    32     1    15    1
    33     7     8    1
    34    20    18    1
    35    20    26   ar
    36    19    18    1
    37    18    15    1
    38     9     8    1
    39    16    15    2
    40    15    17    2
    41    25    26   ar
    42    26    27    1

@<TRIPOS>MOLECULE
ZINC00525230_replica-1.pdb
 26 28 0 0 0
SMALL
GASTEIGER

@<TRIPOS>ATOM
      1  C12       -0.8620   30.0270   54.1660 C.3     0  <0>0        0.1377
      2  C5        -0.4390   28.6240   54.2810 C.ar    0  <0>0       -0.0027
      3  C4         0.2280   28.1770   55.4160 C.ar    0  <0>0        0.0003
      4  C3         0.6280   26.8540   55.5260 C.ar    0  <0>0        0.0366
      5  C2         0.3760   25.9380   54.5290 C.ar    0  <0>0        0.1386
      6  C7        -0.2910   26.3300   53.3500 C.ar    0  <0>0        0.0337
      7  C6        -0.7130   27.6740   53.2040 C.ar    0  <0>0        0.0004
      8  C8        -0.5510   25.4130   52.3190 C.ar    0  <0>0        0.0030
      9  C11       -1.3820   28.0660   52.0380 C.ar    0  <0>0       -0.0002
     10  C10       -1.6180   27.1490   51.0560 C.ar    0  <0>0       -0.0000
     11  C9        -1.2040   25.8270   51.1970 C.ar    0  <0>0        0.0001
     12  O1         0.7800   24.6510   54.6780 O.3     0  <0>0       -0.4714
     13  C1         0.5400   24.0380   55.9460 C.3     0  <0>0        0.2525
     14  N1        -0.0750   30.9780   54.5740 N.3     0  <0>0       -0.1274
     15  N2        -0.5500   31.9420   55.4740 N.am    0  <0>0       -0.2437
     16  H11       -1.4990   32.1330   55.5240 H       0  <0>0        0.1696
     17  C13        0.3130   32.6050   56.2670 C.2     0  <0>0        0.1497
     18  S1         1.3170   31.7390   57.3510 S.2     0  <0>0       -0.0173
     19  N3         0.3890   33.9490   56.2080 N.am    0  <0>0       -0.2949
     20  H12       -0.2370   34.4460   55.6580 H       0  <0>0        0.1539
     21  C14        1.3690   34.6280   56.9390 C.ar    0  <0>0        0.0496
     22  C19        2.6300   34.8280   56.3940 C.ar    0  <0>0        0.0146
     23  C18        3.5960   35.4970   57.1200 C.ar    0  <0>0        0.0013
     24  C17        3.3080   35.9710   58.3870 C.ar    0  <0>0        0.0001
     25  C16        2.0520   35.7730   58.9320 C.ar    0  <0>0        0.0013
     26  C15        1.0810   35.1090   58.2100 C.ar    0  <0>0        0.0146
@<TRIPOS>BOND
     1    10    11   ar
     2    10     9   ar
     3    11     8   ar
     4     9     7   ar
     5     8     6   ar
     6     7     6   ar
     7     7     2   ar
     8     6     5   ar
     9     1     2    1
    10     1    14    1
    11     2     3   ar
    12     5    12    1
    13     5     4   ar
    14    14    15    1
    15    12    13    1
    16     3     4   ar
    17    15    16    1
    18    15    17    1
    19    20    19    1
    20    19    17    1
    21    19    21    1
    22    17    18    2
    23    22    21   ar
    24    22    23   ar
    25    21    26   ar
    26    23    24   ar
    27    26    25   ar
    28    24    25   ar

@<TRIPOS>MOLECULE
ZINC41494829_replica-1.pdb
 24 27 0 0 0
SMALL
GASTEIGER

@<TRIPOS>ATOM
      1  C1         7.5990   37.9430   55.8550 C.ar    0  <0>0        0.0208
      2  C2         8.0600   37.9900   57.1520 C.ar    0  <0>0        0.0048
      3  C3         8.4560   36.7900   57.7820 C.ar    0  <0>0        0.0383
      4  C4         8.9760   36.6190   59.1530 C.2     0  <0>0        0.0819
      5  C5         9.2940   35.3090   59.5280 C.3     0  <0>0        0.1980
      6  C6         9.7920   35.0290   60.7940 C.2     0  <0>0        0.3141
      7  N1         9.9580   36.0420   61.6450 N.2     0  <0>0       -0.0395
      8  C7         9.6520   37.2720   61.2750 C.3     0  <0>0        0.3912
      9  N2         9.1820   37.5710   60.0910 N.2     0  <0>0       -0.2215
     10  S1         8.9160   34.3290   58.1010 S.3     0  <0>0       -0.0775
     11  C14        8.3440   35.6150   57.0170 C.ar    0  <0>0        0.1086
     12  N4         7.8970   35.6160   55.7790 N.ar    0  <0>0       -0.2376
     13  C15        7.5260   36.7330   55.1840 C.ar    0  <0>0        0.0994
     14  N3        10.1070   33.7310   61.1640 N.pl3   0  <0>0       -0.2000
     15  H4         9.4890   33.0080   60.9700 H       0  <0>0        0.2983
     16  C8        11.3160   33.4630   61.8180 C.ar    0  <0>0        0.1655
     17  C13       11.4180   32.3700   62.6710 C.ar    0  <0>0        0.2061
     18  C12       12.6160   32.1030   63.3110 C.ar    0  <0>0        0.1980
     19  F1        10.3510   31.5650   62.8710 F       0  <0>0       -0.1981
     20  C11       13.7080   32.9340   63.1110 C.ar    0  <0>0        0.1699
     21  F2        12.7200   31.0380   64.1360 F       0  <0>0       -0.1993
     22  C10       13.6040   34.0260   62.2650 C.ar    0  <0>0        0.0356
     23  F3        14.8760   32.6770   63.7410 F       0  <0>0       -0.2017
     24  C9        12.4120   34.2910   61.6200 C.ar    0  <0>0        0.0449
@<TRIPOS>BOND
     1    13    12   ar
     2    13     1   ar
     3    12    11   ar
     4     1     2   ar
     5    11     3   ar
     6    11    10    1
     7     2     3   ar
     8     3     4    1
     9    10     5    1
    10     4     5    1
    11     4     9    2
    12     5     6    1
    13     9     8    1
    14     6    14    1
    15     6     7    2
    16    15    14    1
    17    14    16    1
    18     8     7    1
    19    24    16   ar
    20    24    22   ar
    21    16    17   ar
    22    22    20   ar
    23    17    19    1
    24    17    18   ar
    25    20    18   ar
    26    20    23    1
    27    18    21    1

@<TRIPOS>MOLECULE
ZINC59261032_replica-1.pdb
 34 38 0 0 0
SMALL
GASTEIGER

@<TRIPOS>ATOM
      1  C17       -0.5720   30.8200   56.5050 C.2     0  <0>0        0.1176
      2  N1         0.3120   31.7390   56.3840 N.2     0  <0>0       -0.1776
      3  C9        -0.2460   29.4320   56.1400 C.ar    0  <0>0        0.0207
      4  C8         0.4710   28.5610   57.0900 C.ar    0  <0>0        0.0016
      5  C7         0.7660   27.3190   56.7700 C.ar    0  <0>0        0.0000
      6  C6         0.3780   26.7820   55.4500 C.ar    0  <0>0        0.0000
      7  C5         0.7060   25.3940   55.0940 C.ar    0  <0>0        0.0000
      8  C11       -0.2600   27.5650   54.6130 C.ar    0  <0>0        0.0000
      9  C4         0.3830   24.8690   53.9310 C.ar    0  <0>0        0.0000
     10  C3        -0.3350   25.6790   52.9330 C.ar    0  <0>0        0.0000
     11  C2        -0.6810   25.2060   51.7600 C.ar    0  <0>0        0.0000
     12  C12       -0.6670   27.0720   53.2860 C.ar    0  <0>0        0.0000
     13  C1        -1.3970   26.0760   50.8090 C.ar    0  <0>0        0.0000
     14  C14       -1.6910   27.3180   51.1290 C.ar    0  <0>0        0.0000
     15  C13       -1.3040   27.8550   52.4490 C.ar    0  <0>0        0.0000
     16  C15       -1.6320   29.2430   52.8050 C.ar    0  <0>0        0.0000
     17  C16       -1.3090   29.7680   53.9670 C.ar    0  <0>0        0.0000
     18  C10       -0.5920   28.9580   54.9670 C.ar    0  <0>0        0.0015
     19  N2         0.0030   33.0600   56.7320 N.am    0  <0>0       -0.2058
     20  C18        0.9650   34.0030   56.7180 C.2     0  <0>0        0.2411
     21  O1         2.1000   33.7080   56.4060 O.2     0  <0>0       -0.2734
     22  H11       -0.9040   33.2960   56.9820 H       0  <0>0        0.1773
     23  C19        0.6320   35.4240   57.0920 C.3     0  <0>0        0.0885
     24  C20        1.7630   36.0070   57.9430 C.3     0  <0>0        0.0308
     25  C21        1.9810   35.1260   59.1740 C.3     0  <0>0        0.0875
     26  N3         0.7510   35.0790   59.9670 N.pl3   0  <0>0       -0.3326
     27  H18        0.1190   35.8150   59.9270 H       0  <0>0        0.1468
     28  C22        0.4860   33.9750   60.7820 C.ar    0  <0>0        0.0447
     29  C27       -0.1860   34.1440   61.9850 C.ar    0  <0>0        0.0152
     30  C26       -0.4510   33.0510   62.7870 C.ar    0  <0>0        0.0127
     31  C25       -0.0400   31.7890   62.3950 C.ar    0  <0>0        0.0578
     32  C24        0.6350   31.6180   61.1990 C.ar    0  <0>0        0.0127
     33 Cl         -0.3700   30.4180   63.4070 Cl      0  <0>0       -0.0822
     34  C23        0.8980   32.7080   60.3920 C.ar    0  <0>0        0.0152
@<TRIPOS>BOND
     1    13    14   ar
     2    13    11   ar
     3    14    15   ar
     4    11    10   ar
     5    15    16   ar
     6    15    12   ar
     7    16    17   ar
     8    10    12   ar
     9    10     9   ar
    10    12     8   ar
    11     9     7   ar
    12    17    18   ar
    13     8    18   ar
    14     8     6   ar
    15    18     3   ar
    16     7     6   ar
    17     6     5   ar
    18     3     1    1
    19     3     4   ar
    20     2     1    2
    21     2    19    1
    22    21    20    2
    23    20    19   am
    24    20    23    1
    25    19    22    1
    26     5     4   ar
    27    23    24    1
    28    24    25    1
    29    25    26    1
    30    27    26    1
    31    26    28    1
    32    34    28   ar
    33    34    32   ar
    34    28    29   ar
    35    32    31   ar
    36    29    30   ar
    37    31    30   ar
    38    31    33    1

@<TRIPOS>MOLECULE
ZINC60451652_replica-1.pdb
 28 29 0 0 0
SMALL
GASTEIGER

@<TRIPOS>ATOM
      1  N2         2.0070   32.6430   55.9120 N.pl3   0  <0>0       -0.3303
      2  H10        2.5800   32.5740   55.1320 H       0  <0>0        0.1469
      3  C9         1.0930   31.5480   56.2480 C.3     0  <0>0        0.1086
      4  C8         0.0130   31.4350   55.1690 C.3     0  <0>0        0.1109
      5  N1         0.1780   30.1730   54.4440 N.am    0  <0>0       -0.2991
      6  C7        -0.8210   29.2680   54.4330 C.2     0  <0>0        0.2481
      7  O1        -1.8580   29.4990   55.0240 O.2     0  <0>0       -0.2701
      8  H5         1.0050   29.9880   53.9720 H       0  <0>0        0.1498
      9  C5        -0.6550   27.9950   53.7020 C.ar    0  <0>0        0.0808
     10  C4        -1.1880   27.8480   52.4170 C.ar    0  <0>0        0.1444
     11  C3        -1.0280   26.6530   51.7390 C.ar    0  <0>0        0.0298
     12  F4        -1.8570   28.8700   51.8410 F       0  <0>0       -0.2040
     13  C2        -0.3420   25.6080   52.3300 C.ar    0  <0>0        0.0023
     14  C1         0.1880   25.7480   53.6010 C.ar    0  <0>0        0.0003
     15  C6         0.0370   26.9330   54.2890 C.ar    0  <0>0        0.0068
     16  C10        2.0520   33.7850   56.7130 C.ar    0  <0>0        0.0623
     17  C15        3.1660   34.6150   56.6800 C.ar    0  <0>0        0.1272
     18  C14        3.2050   35.7480   57.4690 C.ar    0  <0>0        0.0199
     19  C13        2.1420   36.0490   58.3010 C.ar    0  <0>0        0.0014
     20  C12        1.0340   35.2240   58.3400 C.ar    0  <0>0        0.0013
     21  C11        0.9860   34.0930   57.5490 C.ar    0  <0>0        0.0156
     22  S1         4.5250   34.2260   55.6280 S.O2    0  <0>0        0.0932
     23  O2         4.9950   32.9690   56.0940 O.2     0  <0>0       -0.1611
     24  O3         4.0140   34.3640   54.3090 O.2     0  <0>0       -0.1611
     25  C16        5.7560   35.5160   55.9610 C.3     0  <0>0        0.5262
     26  F1         6.2020   35.4060   57.2820 F       0  <0>0       -0.1500
     27  F2         6.8390   35.3630   55.0890 F       0  <0>0       -0.1500
     28  F3         5.1770   36.7750   55.7670 F       0  <0>0       -0.1500
@<TRIPOS>BOND
     1    11    13   ar
     2    11    10   ar
     3    12    10    1
     4    13    14   ar
     5    10     9   ar
     6    14    15   ar
     7     9    15   ar
     8     9     6    1
     9     8     5    1
    10    24    22    2
    11     6     5   am
    12     6     7    2
    13     5     4    1
    14    27    25    1
    15     2     1    1
    16     4     3    1
    17    22    25    1
    18    22    23    2
    19    22    17    1
    20    28    25    1
    21     1     3    1
    22     1    16    1
    23    25    26    1
    24    17    16   ar
    25    17    18   ar
    26    16    21   ar
    27    18    19   ar
    28    21    20   ar
    29    19    20   ar

@<TRIPOS>MOLECULE
ZINC58847378_replica-1.pdb
 33 37 0 0 0
SMALL
GASTEIGER

@<TRIPOS>ATOM
      1  C7         0.5710   28.8090   55.3800 C.3     0  <0>0        0.0921
      2  C8        -0.1110   28.1890   56.5630 C.3     0  <0>0        0.0262
      3  C9        -1.6430   28.3690   56.5170 C.3     0  <0>0        0.0023
      4  C10       -2.0510   28.3540   57.9740 C.3     0  <0>0        0.0004
      5  C11       -1.0220   28.5740   58.7510 C.3     0  <0>0        0.0045
      6  C12        0.2190   28.7980   57.9230 C.3     0  <0>0        0.0255
      7  C13        0.4750   30.2770   57.8600 C.ar    0  <0>0       -0.0080
      8  C14        0.4820   30.9940   59.0480 C.ar    0  <0>0        0.0171
      9  C15        0.7020   32.3570   59.0420 C.ar    0  <0>0        0.1249
     10  C16        0.9160   33.0210   57.8470 C.ar    0  <0>0        0.0214
     11  C17        0.9140   32.3150   56.6600 C.ar    0  <0>0        0.0154
     12  C18        0.6990   30.9390   56.6660 C.ar    0  <0>0        0.0408
     13  N1         0.7490   30.2430   55.4740 N.pl3   0  <0>0       -0.3308
     14  H15        0.8840   30.7490   54.6570 H       0  <0>0        0.1471
     15  S1         0.7080   33.2540   60.5580 S.O2    0  <0>0        0.0736
     16  O1         0.4480   34.6120   60.2290 O.2     0  <0>0       -0.1499
     17  O2        -0.1020   32.5210   61.4670 O.2     0  <0>0       -0.1499
     18  N2         2.2540   33.2000   61.1520 N.pl3   0  <0>0       -0.2150
     19  H16        2.4040   33.1440   62.1090 H       0  <0>0        0.1737
     20  C19        3.3400   33.2340   60.2760 C.ar    0  <0>0        0.0656
     21  C24        3.7460   34.4390   59.7190 C.ar    0  <0>0        0.0272
     22  C23        4.8250   34.4700   58.8550 C.ar    0  <0>0        0.0589
     23  C22        5.4940   33.3010   58.5400 C.ar    0  <0>0        0.0115
     24 Cl          5.3390   35.9780   58.1630 Cl      0  <0>0       -0.0822
     25  C21        5.0880   32.0980   59.0890 C.ar    0  <0>0        0.0022
     26  C20        4.0140   32.0620   59.9560 C.ar    0  <0>0        0.0159
     27  C3        -0.2430   28.5090   54.1480 C.ar    0  <0>0       -0.0037
     28  C2        -1.1170   29.4560   53.6500 C.ar    0  <0>0       -0.0026
     29  C1        -1.8650   29.1820   52.5190 C.ar    0  <0>0        0.0006
     30  C6        -1.7370   27.9600   51.8870 C.ar    0  <0>0        0.0114
     31  C5        -0.8620   27.0110   52.3840 C.ar    0  <0>0        0.0574
     32  C4        -0.1150   27.2860   53.5160 C.ar    0  <0>0        0.0087
     33 Cl         -0.7010   25.4760   51.5890 Cl      0  <0>0       -0.0823
@<TRIPOS>BOND
     1    33    31    1
     2    30    31   ar
     3    30    29   ar
     4    31    32   ar
     5    29    28   ar
     6    32    27   ar
     7    28    27   ar
     8    27     1    1
     9    14    13    1
    10     1    13    1
    11     1     2    1
    12    13    12    1
    13     3     2    1
    14     3     4    1
    15     2     6    1
    16    11    12   ar
    17    11    10   ar
    18    12     7   ar
    19    10     9   ar
    20     7     6    1
    21     7     8   ar
    22     6     5    1
    23     4     5    1
    24    24    22    1
    25    23    22   ar
    26    23    25   ar
    27    22    21   ar
    28     9     8   ar
    29     9    15    1
    30    25    26   ar
    31    21    20   ar
    32    26    20   ar
    33    16    15    2
    34    20    18    1
    35    15    18    1
    36    15    17    2
    37    18    19    1

@<TRIPOS>MOLECULE
ZINC37245430_replica-1.pdb
 22 24 0 0 0
SMALL
GASTEIGER

@<TRIPOS>ATOM
      1  C8         9.9480   35.5960   60.9960 C.3     0  <0>0        0.1270
      2  C9        10.3050   36.7440   61.9440 C.3     0  <0>0        0.0295
      3  N1        11.1620   34.8450   60.6620 N.pl3   0  <0>0       -0.3264
      4  H8        11.5730   34.9530   59.7910 H       0  <0>0        0.1472
      5  C6        11.7230   33.9720   61.5990 C.ar    0  <0>0        0.0724
      6  C5        11.0050   32.8640   62.0360 C.ar    0  <0>0        0.1531
      7  C4        11.5640   32.0030   62.9630 C.ar    0  <0>0        0.0306
      8  F1         9.7640   32.6280   61.5560 F       0  <0>0       -0.2029
      9  C3        12.8330   32.2440   63.4540 C.ar    0  <0>0       -0.0019
     10  C2        13.5490   33.3450   63.0210 C.ar    0  <0>0       -0.0205
     11  C1        14.9330   33.6020   63.5600 C.3     0  <0>0        0.0311
     12  C7        12.9950   34.2120   62.1000 C.ar    0  <0>0        0.0123
     13  C10        9.3410   36.1560   59.7350 C.ar    0  <0>0        0.1364
     14  O1         9.1690   37.4640   59.4790 O.2     0  <0>0       -0.4565
     15  C17        8.6040   37.6470   58.2690 C.ar    0  <0>0        0.1446
     16  C12        8.3890   36.3740   57.7120 C.ar    0  <0>0        0.0332
     17  C16        8.2300   38.7730   57.5480 C.ar    0  <0>0        0.0375
     18  C11        8.8870   35.4200   58.7110 C.ar    0  <0>0        0.0130
     19  C13        7.8050   36.2510   56.4530 C.ar    0  <0>0        0.0028
     20  C18        8.8900   33.9170   58.6050 C.3     0  <0>0        0.0340
     21  C14        7.4420   37.3730   55.7600 C.ar    0  <0>0        0.0002
     22  C15        7.6530   38.6310   56.3040 C.ar    0  <0>0        0.0031
@<TRIPOS>BOND
     1    21    22   ar
     2    21    19   ar
     3    22    17   ar
     4    19    16   ar
     5    17    15   ar
     6    16    15   ar
     7    16    18   ar
     8    15    14   ar
     9    20    18    1
    10    18    13   ar
    11    14    13   ar
    12    13     1    1
    13     4     3    1
    14     3     1    1
    15     3     5    1
    16     1     2    1
    17     8     6    1
    18     5     6   ar
    19     5    12   ar
    20     6     7   ar
    21    12    10   ar
    22     7     9   ar
    23    10     9   ar
    24    10    11    1

@<TRIPOS>MOLECULE
ZINC02206924_replica-1.pdb
 28 31 0 0 0
SMALL
GASTEIGER

@<TRIPOS>ATOM
      1  C5         5.3680   35.6310   57.1980 C.ar    0  <0>0        0.0509
      2  C6         4.6070   36.0400   56.1010 C.ar    0  <0>0        0.0147
      3  C7         3.5440   35.2970   55.6850 C.ar    0  <0>0        0.0043
      4  C8         3.2080   34.1130   56.3600 C.ar    0  <0>0        0.0351
      5  C9         2.1050   33.3350   55.9260 C.ar    0  <0>0        0.0126
      6  C10        1.7950   32.1770   56.6160 C.ar    0  <0>0        0.1116
      7  C11        2.6260   31.7920   57.7610 C.ar    0  <0>0        0.3487
      8  O1         2.3730   30.7730   58.3770 O.2     0  <0>0       -0.2444
      9  O2         3.6640   32.5590   58.1310 O.2     0  <0>0       -0.4209
     10  C12        3.9710   33.6960   57.4670 C.ar    0  <0>0        0.1499
     11  C13        5.0510   34.4640   57.8780 C.ar    0  <0>0        0.0521
     12  C14        0.6530   31.3410   56.2010 C.2     0  <0>0        0.1632
     13  S1        -1.0720   31.4780   56.6500 S.3     0  <0>0       -0.0746
     14  C16       -1.6620   30.0860   55.6950 C.3     0  <0>0        0.1233
     15  C15       -0.4910   29.6480   55.1340 C.2     0  <0>0        0.1208
     16  N2         0.6340   30.2850   55.4010 N.2     0  <0>0       -0.3989
     17  C17       -0.4870   28.4670   54.2360 C.ar    0  <0>0        0.0264
     18  C22       -1.1670   28.5110   53.0190 C.ar    0  <0>0        0.0031
     19  C21       -1.1610   27.4110   52.1880 C.ar    0  <0>0        0.0115
     20  C20       -0.4820   26.2630   52.5600 C.ar    0  <0>0        0.0577
     21  C19        0.1950   26.2130   53.7670 C.ar    0  <0>0        0.0115
     22 Cl         -0.4780   24.8820   51.5090 Cl      0  <0>0       -0.0822
     23  C18        0.1990   27.3110   54.6030 C.ar    0  <0>0        0.0031
     24  N1         6.4520   36.3970   57.6110 N.pl3   0  <0>0       -0.3074
     25  C2         7.1530   37.2540   56.6500 C.3     0  <0>0        0.0908
     26  C1         8.1360   36.4090   55.8370 C.3     0  <0>0        0.0232
     27  C3         6.8930   36.3510   59.0080 C.3     0  <0>0        0.0908
     28  C4         6.2510   37.5030   59.7840 C.3     0  <0>0        0.0232
@<TRIPOS>BOND
     1    22    20    1
     2    19    20   ar
     3    19    18   ar
     4    20    21   ar
     5    18    17   ar
     6    21    23   ar
     7    17    23   ar
     8    17    15    1
     9    15    16    2
    10    15    14    1
    11    16    12    2
    12     3     2   ar
    13     3     4   ar
    14    14    13    1
    15    26    25    1
    16     5     4   ar
    17     5     6   ar
    18     2     1   ar
    19    12     6    1
    20    12    13    1
    21     4    10   ar
    22     6     7   ar
    23    25    24    1
    24     1    24    1
    25     1    11   ar
    26    10    11   ar
    27    10     9   ar
    28    24    27    1
    29     7     9   ar
    30     7     8    2
    31    27    28    1

@<TRIPOS>MOLECULE
ZINC03464288_replica-1.pdb
 29 31 0 0 0
SMALL
GASTEIGER

@<TRIPOS>ATOM
      1  C9        -0.9620   30.6690   54.7550 C.ar    0  <0>0        0.1865
      2  N2         0.2320   31.2280   54.7040 N.ar    0  <0>0       -0.1249
      3  N3         0.8190   31.6980   55.8550 N.ar    0  <0>0       -0.1331
      4  C10        0.1890   31.5770   57.0090 C.ar    0  <0>0        0.1611
      5  S1        -1.3250   30.7760   56.5010 S.2     0  <0>0       -0.0242
      6  S2         0.7010   32.0790   58.6190 S.3     0  <0>0       -0.0768
      7  C11        0.1660   33.8080   58.7310 C.3     0  <0>0        0.1489
      8  C12        0.9780   34.6490   57.7780 C.2     0  <0>0        0.2341
      9  O1         0.4750   35.6150   57.2440 O.2     0  <0>0       -0.2741
     10  N4         2.2610   34.3270   57.5200 N.am    0  <0>0       -0.3015
     11  H14        2.6620   33.5550   57.9480 H       0  <0>0        0.1497
     12  C13        3.0490   35.1450   56.5950 C.3     0  <0>0        0.0941
     13  C14        3.5270   34.2760   55.4290 C.3     0  <0>0        0.0262
     14  C15        4.2420   35.7140   57.3190 C.ar    0  <0>0       -0.0045
     15  C20        4.2040   35.8770   58.6910 C.ar    0  <0>0       -0.0027
     16  C19        5.2980   36.3980   59.3560 C.ar    0  <0>0       -0.0003
     17  C18        6.4300   36.7580   58.6480 C.ar    0  <0>0       -0.0000
     18  C17        6.4680   36.5940   57.2750 C.ar    0  <0>0       -0.0003
     19  C16        5.3750   36.0690   56.6120 C.ar    0  <0>0       -0.0027
     20  N1        -1.7300   30.1370   53.7270 N.pl3   0  <0>0       -0.2913
     21  H11       -2.4870   30.6360   53.3800 H       0  <0>0        0.1541
     22  C5        -1.4140   28.8860   53.1920 C.ar    0  <0>0        0.0494
     23  C4        -1.8620   28.5370   51.9240 C.ar    0  <0>0        0.0143
     24  C3        -1.5470   27.2990   51.3990 C.ar    0  <0>0       -0.0033
     25  C2        -0.7860   26.4080   52.1330 C.ar    0  <0>0       -0.0257
     26  C1        -0.4440   25.0580   51.5570 C.3     0  <0>0        0.0307
     27  C7        -0.3390   26.7520   53.3950 C.ar    0  <0>0       -0.0246
     28  C6        -0.6460   27.9900   53.9250 C.ar    0  <0>0        0.0101
     29  C8         0.4900   25.7770   54.1920 C.3     0  <0>0        0.0307
@<TRIPOS>BOND
     1    24    23   ar
     2    24    25   ar
     3    26    25    1
     4    23    22   ar
     5    25    27   ar
     6    22    20    1
     7    22    28   ar
     8    21    20    1
     9    27    28   ar
    10    27    29    1
    11    20     1    1
    12     2     1   ar
    13     2     3   ar
    14     1     5   ar
    15    13    12    1
    16     3     4   ar
    17     5     4   ar
    18    12    14    1
    19    12    10    1
    20    19    18   ar
    21    19    14   ar
    22     4     6    1
    23     9     8    2
    24    18    17   ar
    25    14    15   ar
    26    10     8   am
    27    10    11    1
    28     8     7    1
    29     6     7    1
    30    17    16   ar
    31    15    16   ar

@<TRIPOS>MOLECULE
ZINC63755471_replica-1.pdb
 32 35 0 0 0
SMALL
GASTEIGER

@<TRIPOS>ATOM
      1  C6        -1.2320   28.5860   55.4500 C.3     0  <0>0        0.0930
      2  C7        -1.1800   27.9860   56.7040 C.ar    0  <0>0        0.0026
      3  C8        -2.0360   28.0440   57.8250 C.ar    0  <0>0       -0.0022
      4  C9        -1.7310   27.3380   58.9430 C.ar    0  <0>0       -0.0002
      5  C10       -0.5830   26.5480   59.0180 C.ar    0  <0>0        0.0012
      6  C11        0.2840   26.4470   57.9800 C.ar    0  <0>0        0.0140
      7  C12        0.0320   27.1550   56.7780 C.ar    0  <0>0        0.0417
      8  N2         0.7080   27.2210   55.6460 N.pl3   0  <0>0       -0.3299
      9  C13       -0.0030   28.1020   54.7130 C.3     0  <0>0        0.1061
     10  H25        1.5390   26.7580   55.4590 H       0  <0>0        0.1471
     11  S1        -2.4040   29.6150   54.8790 S.3     0  <0>0       -0.1328
     12  C5        -2.2580   31.0780   55.9410 C.3     0  <0>0        0.0791
     13  C4        -0.7970   31.5300   55.9870 C.3     0  <0>0        0.1011
     14  N1        -0.6550   32.6210   56.9550 N.am    0  <0>0       -0.3005
     15  C3         0.5260   33.2580   57.0840 C.2     0  <0>0        0.2627
     16  O1         1.4710   32.9290   56.3980 O.2     0  <0>0       -0.2712
     17  H6        -1.4100   32.8840   57.5040 H       0  <0>0        0.1496
     18  C2         0.6730   34.3790   58.0800 C.3     0  <0>0        0.2411
     19  C1         1.2450   35.6120   57.3780 C.3     0  <0>0        0.0574
     20  O2         1.5570   33.9740   59.1280 O.3     0  <0>0       -0.4700
     21  C20        0.9870   33.5460   60.2840 C.ar    0  <0>0        0.1391
     22  C25        0.1440   34.3870   60.9960 C.ar    0  <0>0        0.0369
     23  C24       -0.4380   33.9470   62.1690 C.ar    0  <0>0        0.0031
     24  C23       -0.1730   32.6740   62.6400 C.ar    0  <0>0        0.0002
     25  C22        0.6700   31.8360   61.9340 C.ar    0  <0>0        0.0031
     26  C21        1.2510   32.2690   60.7580 C.ar    0  <0>0        0.0369
     27  C14       -0.4050   27.3390   53.4780 C.ar    0  <0>0       -0.0034
     28  C19       -0.0860   26.0000   53.3570 C.ar    0  <0>0       -0.0026
     29  C18       -0.4590   25.3000   52.2260 C.ar    0  <0>0       -0.0003
     30  C17       -1.1440   25.9410   51.2100 C.ar    0  <0>0       -0.0000
     31  C16       -1.4570   27.2820   51.3280 C.ar    0  <0>0       -0.0003
     32  C15       -1.0890   27.9810   52.4620 C.ar    0  <0>0       -0.0026
@<TRIPOS>BOND
     1    30    31   ar
     2    30    29   ar
     3    31    32   ar
     4    29    28   ar
     5    32    27   ar
     6    28    27   ar
     7    27     9    1
     8     9     1    1
     9     9     8    1
    10    11     1    1
    11    11    12    1
    12     1     2    1
    13    10     8    1
    14     8     7    1
    15    12    13    1
    16    13    14    1
    17    16    15    2
    18     2     7   ar
    19     2     3   ar
    20     7     6   ar
    21    14    15   am
    22    14    17    1
    23    15    18    1
    24    19    18    1
    25     3     4   ar
    26     6     5   ar
    27    18    20    1
    28     4     5   ar
    29    20    21    1
    30    21    26   ar
    31    21    22   ar
    32    26    25   ar
    33    22    23   ar
    34    25    24   ar
    35    23    24   ar

@<TRIPOS>MOLECULE
ZINC06299011_replica-1.pdb
 25 27 0 0 0
SMALL
GASTEIGER

@<TRIPOS>ATOM
      1  C8         0.2290   31.6810   56.4090 C.2     0  <0>0        0.1507
      2  S1         0.2560   32.8940   57.6170 S.2     0  <0>0       -0.0172
      3  N2        -0.4530   31.8840   55.2650 N.am    0  <0>0       -0.2178
      4  H9        -0.9290   32.7180   55.1250 H       0  <0>0        0.1762
      5  N3        -0.4740   30.8920   54.2760 N.2     0  <0>0       -0.1784
      6  C9        -1.4810   30.0730   54.1970 C.2     0  <0>0        0.1175
      7  C10       -1.5030   29.0320   53.1600 C.ar    0  <0>0        0.0207
      8  C15       -0.8330   27.7510   53.3740 C.ar    0  <0>0        0.0015
      9  C14       -0.8840   26.7720   52.3500 C.ar    0  <0>0        0.0000
     10  C16       -0.1590   27.4680   54.5690 C.ar    0  <0>0        0.0000
     11  C13       -1.5630   27.0590   51.1550 C.ar    0  <0>0        0.0000
     12  C19       -0.2460   25.5360   52.5510 C.ar    0  <0>0        0.0000
     13  C12       -2.1760   28.2600   50.9750 C.ar    0  <0>0        0.0000
     14  C11       -2.1570   29.2460   51.9530 C.ar    0  <0>0        0.0016
     15  C18        0.4040   25.2950   53.7230 C.ar    0  <0>0        0.0000
     16  C17        0.4470   26.2580   54.7300 C.ar    0  <0>0        0.0000
     17  N1         0.8910   30.5230   56.6020 N.am    0  <0>0       -0.3111
     18  H8         1.3320   30.0850   55.8570 H       0  <0>0        0.1488
     19  C7         0.9480   29.9270   57.9390 C.3     0  <0>0        0.1156
     20  C4         0.0550   28.7130   57.9870 C.ar    0  <0>0       -0.0026
     21  C3         0.5950   27.4660   58.2420 C.ar    0  <0>0       -0.0026
     22  C2        -0.2230   26.3540   58.2860 C.ar    0  <0>0       -0.0003
     23  C1        -1.5830   26.4880   58.0740 C.ar    0  <0>0       -0.0000
     24  C6        -2.1230   27.7340   57.8190 C.ar    0  <0>0       -0.0003
     25  C5        -1.3050   28.8470   57.7800 C.ar    0  <0>0       -0.0026
@<TRIPOS>BOND
     1    13    11   ar
     2    13    14   ar
     3    11     9   ar
     4    14     7   ar
     5     9    12   ar
     6     9     8   ar
     7    12    15   ar
     8     7     8   ar
     9     7     6    1
    10     8    10   ar
    11    15    16   ar
    12     6     5    2
    13     5     3    1
    14    10    16   ar
    15     4     3    1
    16     3     1    1
    17    18    17    1
    18     1    17    1
    19     1     2    2
    20    17    19    1
    21    25    24   ar
    22    25    20   ar
    23    24    23   ar
    24    19    20    1
    25    20    21   ar
    26    23    22   ar
    27    21    22   ar

@<TRIPOS>MOLECULE
ZINC07457496_replica-1.pdb
 24 26 0 0 0
SMALL
GASTEIGER

@<TRIPOS>ATOM
      1  C3         0.1050   27.4090   56.0020 C.2     0  <0>0        0.2398
      2  O1        -0.0100   26.2030   56.0610 O.2     0  <0>0       -0.2736
      3  N1        -0.0790   28.0460   54.8280 N.am    0  <0>0       -0.2478
      4  C4         0.0620   29.5070   54.7280 C.3     0  <0>0        0.1835
      5  C5        -1.0460   30.0470   53.8610 C.2     0  <0>0        0.2468
      6  O2        -1.4550   31.1740   54.0460 O.2     0  <0>0       -0.2729
      7  N2        -1.5870   29.2960   52.8840 N.am    0  <0>0       -0.2815
      8  C6        -1.1690   27.9760   52.6820 C.ar    0  <0>0        0.0642
      9  C7        -0.4030   27.3370   53.6620 C.ar    0  <0>0        0.0678
     10  C8         0.0170   26.0320   53.4800 C.ar    0  <0>0        0.0162
     11  C9        -0.3150   25.3600   52.3160 C.ar    0  <0>0        0.0014
     12  C10       -1.0660   25.9890   51.3400 C.ar    0  <0>0        0.0014
     13  C11       -1.5000   27.2970   51.5210 C.ar    0  <0>0        0.0159
     14  H7        -2.2750   29.6730   52.3130 H       0  <0>0        0.1549
     15  C2         0.4530   28.1950   57.2390 C.3     0  <0>0        0.1286
     16  C1         1.4690   27.4120   58.0730 C.3     0  <0>0        0.0218
     17  S1        -1.0480   28.4740   58.2210 S.3     0  <0>0       -0.1044
     18  C12       -0.5240   29.5670   59.4990 C.ar    0  <0>0        0.0362
     19  C17       -0.9270   29.3480   60.8120 C.ar    0  <0>0        0.0633
     20  C16       -0.5100   30.2040   61.8120 C.ar    0  <0>0        0.0119
     21 Cl         -1.9480   27.9960   61.1940 Cl      0  <0>0       -0.0817
     22  C15        0.2980   31.2840   61.5070 C.ar    0  <0>0        0.0009
     23  C14        0.6960   31.5090   60.2020 C.ar    0  <0>0        0.0006
     24  C13        0.2880   30.6530   59.1970 C.ar    0  <0>0        0.0070
@<TRIPOS>BOND
     1    12    13   ar
     2    12    11   ar
     3    13     8   ar
     4    14     7    1
     5    11    10   ar
     6     8     7    1
     7     8     9   ar
     8     7     5   am
     9    10     9   ar
    10     9     3    1
    11     5     6    2
    12     5     4    1
    13     4     3    1
    14     3     1   am
    15     1     2    2
    16     1    15    1
    17    15    16    1
    18    15    17    1
    19    17    18    1
    20    24    18   ar
    21    24    23   ar
    22    18    19   ar
    23    23    22   ar
    24    19    21    1
    25    19    20   ar
    26    22    20   ar

@<TRIPOS>MOLECULE
ZINC11952086_replica-1.pdb
 26 28 0 0 0
SMALL
GASTEIGER

@<TRIPOS>ATOM
      1  C10        0.1120   28.2770   55.2690 C.ar    0  <0>0        0.1402
      2  C11        0.6220   26.9840   55.3760 C.ar    0  <0>0        0.0370
      3  C12        0.4350   26.0580   54.3990 C.ar    0  <0>0        0.0031
      4  C13       -0.2880   26.3750   53.2350 C.ar    0  <0>0        0.0002
      5  C14       -0.4880   25.4250   52.2200 C.ar    0  <0>0        0.0000
      6  C15       -1.1930   25.7670   51.1060 C.ar    0  <0>0        0.0000
      7  C16       -1.7210   27.0470   50.9570 C.ar    0  <0>0        0.0000
      8  C17       -1.5450   27.9940   51.9220 C.ar    0  <0>0        0.0001
      9  C18       -0.8250   27.6760   53.0800 C.ar    0  <0>0        0.0045
     10  C19       -0.6190   28.6580   54.1430 C.ar    0  <0>0        0.0564
     11  O2         0.3240   29.1710   56.2680 O.3     0  <0>0       -0.4714
     12  C9        -0.1460   28.8130   57.5680 C.3     0  <0>0        0.2525
     13  C8        -0.3960   30.0810   58.3870 C.3     0  <0>0        0.2524
     14  O1         0.8320   30.7930   58.5500 O.3     0  <0>0       -0.4721
     15  C7         0.7610   32.0240   59.1220 C.ar    0  <0>0        0.1307
     16  C2         0.6690   33.1560   58.3250 C.ar    0  <0>0        0.0118
     17  C1         0.6480   33.0230   56.8240 C.3     0  <0>0        0.0342
     18  C3         0.5890   34.4060   58.9090 C.ar    0  <0>0       -0.0013
     19  C4         0.6080   34.5290   60.2860 C.ar    0  <0>0       -0.0004
     20  C5         0.7060   33.4030   61.0820 C.ar    0  <0>0       -0.0013
     21  C6         0.7850   32.1510   60.5030 C.ar    0  <0>0        0.0118
     22  C21        0.8920   30.9240   61.3710 C.3     0  <0>0        0.0342
     23  C20       -1.1640   30.0180   54.0260 C.2     0  <0>0        0.1428
     24  N1        -2.2770   30.3240   54.6170 N.2     0  <0>0       -0.0846
     25  O3        -2.9050   29.3860   55.4720 O.2     0  <0>0       -0.4087
     26  H18       -2.8130   29.5870   56.4130 H       0  <0>0        0.3278
@<TRIPOS>BOND
     1     7     6   ar
     2     7     8   ar
     3     6     5   ar
     4     8     9   ar
     5     5     4   ar
     6     9     4   ar
     7     9    10   ar
     8     4     3   ar
     9    23    10    1
    10    23    24    2
    11    10     1   ar
    12     3     2   ar
    13    24    25    1
    14     1     2   ar
    15     1    11    1
    16    25    26    1
    17    11    12    1
    18    17    16    1
    19    12    13    1
    20    16    18   ar
    21    16    15   ar
    22    13    14    1
    23    14    15    1
    24    18    19   ar
    25    15    21   ar
    26    19    20   ar
    27    21    20   ar
    28    21    22    1

@<TRIPOS>MOLECULE
ZINC59020438_replica-1.pdb
 27 29 0 0 0
SMALL
GASTEIGER

@<TRIPOS>ATOM
      1  N2         0.2860   32.9300   57.9300 N.pl3   0  <0>0       -0.1963
      2  C4        -0.0790   32.0840   56.8990 C.cat   0  <0>0        0.2845
      3  N3        -0.4380   30.8220   57.0230 N.2     0  <0>0       -0.3098
      4  C5        -0.7230   30.3160   55.8180 C.1     0  <0>0        0.1339
      5  N4        -0.5490   31.2480   54.9110 N.2     0  <0>0       -0.1060
      6  N5        -0.1370   32.4070   55.5900 N.pl3   0  <0>0       -0.1864
      7  H6         0.5320   33.8480   57.7400 H       0  <0>0        0.1783
      8  H21        0.0680   33.2680   55.1940 H       0  <0>0        0.1791
      9  N1         0.3020   32.4590   59.2500 N.2     0  <0>0       -0.1828
     10  C3         1.0790   33.0170   60.1280 C.2     0  <0>0        0.0762
     11  C2         0.9650   32.6380   61.5820 C.3     0  <0>0        0.0474
     12  C1        -0.0650   33.5410   62.2650 C.3     0  <0>0        0.0067
     13  C14        2.0710   34.0200   59.7030 C.ar    0  <0>0        0.0150
     14  C19        3.4370   33.7480   59.8160 C.ar    0  <0>0        0.0012
     15  C18        4.3610   34.6900   59.4100 C.ar    0  <0>0        0.0000
     16  C17        3.9360   35.9060   58.9040 C.ar    0  <0>0        0.0000
     17  C16        2.5840   36.1840   58.7940 C.ar    0  <0>0        0.0000
     18  C15        1.6510   35.2500   59.1900 C.ar    0  <0>0        0.0012
     19  S1        -1.2470   28.6640   55.5000 S.3     0  <0>0       -0.0243
     20  C6         0.1680   27.9100   54.6520 C.3     0  <0>0        0.0994
     21  C7        -0.3180   27.1450   53.4470 C.ar    0  <0>0       -0.0142
     22  C12       -0.0520   25.7940   53.3350 C.ar    0  <0>0       -0.0249
     23  C11       -0.5020   25.0900   52.2310 C.ar    0  <0>0       -0.0045
     24  C13        0.7240   25.0850   54.4140 C.3     0  <0>0        0.0307
     25  C10       -1.2100   25.7420   51.2390 C.ar    0  <0>0       -0.0003
     26  C9        -1.4720   27.0950   51.3500 C.ar    0  <0>0       -0.0003
     27  C8        -1.0250   27.7960   52.4540 C.ar    0  <0>0       -0.0037
@<TRIPOS>BOND
     1    25    26   ar
     2    25    23   ar
     3    26    27   ar
     4    23    22   ar
     5    27    21   ar
     6    22    21   ar
     7    22    24    1
     8    21    20    1
     9    20    19    1
    10     5     6    1
    11     5     4    2
    12     8     6    1
    13    19     4    1
    14     6     2    1
    15     4     3    2
    16     2     3    2
    17     2     1    1
    18     7     1    1
    19     1     9    1
    20    17    16   ar
    21    17    18   ar
    22    16    15   ar
    23    18    13   ar
    24     9    10    2
    25    15    14   ar
    26    13    14   ar
    27    13    10    1
    28    10    11    1
    29    11    12    1

@<TRIPOS>MOLECULE
ZINC11957780_replica-1.pdb
 25 27 0 0 0
SMALL
GASTEIGER

@<TRIPOS>ATOM
      1  C1        10.5750   35.5550   61.1510 C.ar    0  <0>0        0.0000
      2  C2        10.0180   36.8280   61.2360 C.ar    0  <0>0        0.0000
      3  C3         9.2490   37.3240   60.2250 C.ar    0  <0>0        0.0001
      4  C4         9.0140   36.5420   59.0870 C.ar    0  <0>0        0.0045
      5  C5         9.5790   35.2470   58.9990 C.ar    0  <0>0        0.0002
      6  C6        10.3670   34.7690   60.0590 C.ar    0  <0>0        0.0000
      7  C7         9.3430   34.4640   57.8550 C.ar    0  <0>0        0.0031
      8  C8         8.5740   34.9330   56.8380 C.ar    0  <0>0        0.0370
      9  C9         8.0010   36.2050   56.8760 C.ar    0  <0>0        0.1402
     10  C10        8.1960   37.0340   57.9800 C.ar    0  <0>0        0.0564
     11  O2         7.2450   36.6350   55.8350 O.3     0  <0>0       -0.4714
     12  C12        6.1910   35.7740   55.3990 C.3     0  <0>0        0.2525
     13  C13        4.8920   36.1550   56.1140 C.3     0  <0>0        0.2525
     14  O3         4.4500   35.0570   56.9150 O.3     0  <0>0       -0.4706
     15  C14        5.0230   34.9160   58.1390 C.ar    0  <0>0        0.1492
     16  C19        5.6760   33.7360   58.4690 C.ar    0  <0>0        0.0915
     17  C18        6.2580   33.5950   59.7160 C.ar    0  <0>0        0.0145
     18 Cl          5.7640   32.4400   57.3180 Cl      0  <0>0       -0.0791
     19  C17        6.1890   34.6280   60.6330 C.ar    0  <0>0        0.0011
     20  C16        5.5390   35.8040   60.3060 C.ar    0  <0>0        0.0032
     21  C15        4.9610   35.9520   59.0590 C.ar    0  <0>0        0.0378
     22  C11        7.5890   38.3720   58.0310 C.2     0  <0>0        0.1428
     23  N1         8.1270   39.3530   57.3770 N.2     0  <0>0       -0.0846
     24  O1         9.2120   39.1090   56.5000 O.2     0  <0>0       -0.4087
     25  H8         9.2220   38.2040   55.8750 H       0  <0>0        0.3278
@<TRIPOS>BOND
     1    12    11    1
     2    12    13    1
     3    11     9    1
     4    25    24    1
     5    13    14    1
     6    24    23    1
     7     8     9   ar
     8     8     7   ar
     9     9    10   ar
    10    14    15    1
    11    18    16    1
    12    23    22    2
    13     7     5   ar
    14    10    22    1
    15    10     4   ar
    16    15    16   ar
    17    15    21   ar
    18    16    17   ar
    19     5     4   ar
    20     5     6   ar
    21    21    20   ar
    22     4     3   ar
    23    17    19   ar
    24     6     1   ar
    25     3     2   ar
    26    20    19   ar
    27     1     2   ar

@<TRIPOS>MOLECULE
ZINC62345831_replica-1.pdb
 22 24 0 0 0
SMALL
GASTEIGER

@<TRIPOS>ATOM
      1  C10       -0.0920   29.7150   55.7160 C.3     0  <0>0        0.0933
      2  N1        -0.5310   28.3690   55.3240 N.3     0  <0>0       -0.2676
      3  C2        -0.8290   27.5470   56.5030 C.3     0  <0>0        0.0725
      4  C1         0.4430   26.8340   56.9650 C.3     0  <0>0        0.0188
      5  C3         0.4710   27.7180   54.4680 C.3     0  <0>0        0.0992
      6  C4        -0.2110   27.1060   53.2720 C.ar    0  <0>0       -0.0061
      7  C9        -1.0080   27.8870   52.4560 C.ar    0  <0>0       -0.0029
      8  C8        -1.6310   27.3250   51.3560 C.ar    0  <0>0       -0.0003
      9  C7        -1.4640   25.9810   51.0790 C.ar    0  <0>0       -0.0000
     10  C6        -0.6720   25.1990   51.8980 C.ar    0  <0>0       -0.0003
     11  C5        -0.0460   25.7610   52.9950 C.ar    0  <0>0       -0.0029
     12  C11       -1.0270   30.2600   56.7970 C.3     0  <0>0        0.1181
     13 Cl         -2.4170   31.1050   56.0180 Cl      0  <0>0       -0.1087
     14  C12       -0.2740   31.2320   57.6690 C.ar    0  <0>0       -0.0029
     15  C17       -0.1540   32.5540   57.2840 C.ar    0  <0>0        0.0371
     16  C16        0.5340   33.4500   58.0860 C.ar    0  <0>0        0.1761
     17  C15        1.1120   33.0130   59.2740 C.ar    0  <0>0        0.1764
     18  O1         0.7900   34.7840   57.9410 O.3     0  <0>0       -0.4346
     19  C14        0.9930   31.6860   59.6510 C.ar    0  <0>0        0.0399
     20  O2         1.7300   34.0720   59.8750 O.3     0  <0>0       -0.4346
     21  C13        0.3010   30.7980   58.8490 C.ar    0  <0>0        0.0003
     22  C18        1.1770   35.2460   59.2490 C.3     0  <0>0        0.4294
@<TRIPOS>BOND
     1     9     8   ar
     2     9    10   ar
     3     8     7   ar
     4    10    11   ar
     5     7     6   ar
     6    11     6   ar
     7     6     5    1
     8     5     2    1
     9     2     1    1
    10     2     3    1
    11     1    12    1
    12    13    12    1
    13     3     4    1
    14    12    14    1
    15    15    14   ar
    16    15    16   ar
    17    14    21   ar
    18    18    16    1
    19    18    22    1
    20    16    17   ar
    21    21    19   ar
    22    22    20    1
    23    17    19   ar
    24    17    20    1

@<TRIPOS>MOLECULE
ZINC44270768_replica-1.pdb
 20 21 0 0 0
SMALL
GASTEIGER

@<TRIPOS>ATOM
      1  C1        -0.5690   24.8930   51.7390 C.3     0  <0>0        0.0310
      2  C2        -0.3270   25.9420   52.7930 C.ar    0  <0>0       -0.0179
      3  C3         0.3710   25.6160   53.9420 C.ar    0  <0>0       -0.0030
      4  C4         0.5950   26.5750   54.9110 C.ar    0  <0>0        0.0143
      5  C5         0.1180   27.8670   54.7300 C.ar    0  <0>0        0.0500
      6  C6        -0.5820   28.1910   53.5740 C.ar    0  <0>0        0.0182
      7  C7        -0.7980   27.2280   52.6070 C.ar    0  <0>0        0.0687
      8  N1         0.3420   28.8400   55.7080 N.pl3   0  <0>0       -0.2880
      9  H7         0.8930   29.6130   55.5070 H       0  <0>0        0.1546
     10  C9        -0.2250   28.7000   56.9700 C.2     0  <0>0        0.1859
     11  N2         0.5020   28.9540   58.0480 N.2     0  <0>0       -0.3621
     12  C13       -0.0000   28.8390   59.2640 C.2     0  <0>0        0.2532
     13  C12       -1.3100   28.4340   59.4550 C.3     0  <0>0        0.1166
     14  F4         0.7760   29.1130   60.3360 F       0  <0>0       -0.1738
     15  C11       -2.1020   28.1530   58.3500 C.2     0  <0>0       -0.0122
     16  C10       -1.5480   28.2890   57.0890 C.2     0  <0>0        0.0438
     17  C8        -1.5510   27.5800   51.3510 C.3     0  <0>0        0.4183
     18  F1        -2.3020   28.7400   51.5660 F       0  <0>0       -0.1659
     19  F2        -0.6450   27.7980   50.3080 F       0  <0>0       -0.1659
     20  F3        -2.4070   26.5270   51.0100 F       0  <0>0       -0.1659
@<TRIPOS>BOND
     1    19    17    1
     2    20    17    1
     3    17    18    1
     4    17     7    1
     5     1     2    1
     6     7     2   ar
     7     7     6   ar
     8     2     3   ar
     9     6     5   ar
    10     3     4   ar
    11     5     4   ar
    12     5     8    1
    13     9     8    1
    14     8    10    1
    15    10    16    1
    16    10    11    2
    17    16    15    2
    18    11    12    2
    19    15    13    1
    20    12    13    1
    21    12    14    1

@<TRIPOS>MOLECULE
ZINC45158317_replica-1.pdb
 28 30 0 0 0
SMALL
GASTEIGER

@<TRIPOS>ATOM
      1  C4         0.0780   29.0070   57.3660 C.2     0  <0>0        0.0447
      2  C5        -1.0350   28.2860   57.6510 C.3     0  <0>0        0.0700
      3  C3         0.4920   30.1060   58.2540 C.2     0  <0>0        0.0370
      4  C2         0.0690   31.3530   58.0180 C.2     0  <0>0       -0.0182
      5  C1        -0.7390   31.6530   56.7820 C.3     0  <0>0        0.0313
      6  S1         1.5450   29.7790   59.6290 S.3     0  <0>0       -0.0861
      7  C17        0.8690   30.7590   60.9270 C.ar    0  <0>0        0.0295
      8  C22       -0.1250   30.2400   61.7470 C.ar    0  <0>0        0.0065
      9  C21       -0.6490   31.0090   62.7680 C.ar    0  <0>0        0.0005
     10  C20       -0.1930   32.3000   62.9650 C.ar    0  <0>0        0.0000
     11  C19        0.7920   32.8230   62.1470 C.ar    0  <0>0        0.0005
     12  C18        1.3240   32.0570   61.1290 C.ar    0  <0>0        0.0065
     13  N1         0.8290   28.7070   56.2330 N.2     0  <0>0       -0.3426
     14  H10        1.7980   28.7360   56.2720 H       0  <0>0        0.1670
     15  C8         0.1940   28.3670   55.0530 C.ar    0  <0>0        0.1201
     16  N2        -0.6190   29.2880   54.4510 N.ar    0  <0>0       -0.3079
     17  C16       -1.2610   29.0160   53.2950 C.ar    0  <0>0        0.2586
     18  H1        -0.7340   30.1600   54.8620 H       0  <0>0        0.1703
     19  C15       -1.0860   27.6960   52.6840 C.ar    0  <0>0        0.0561
     20  O1        -1.9760   29.8510   52.7720 O.2     0  <0>0       -0.2672
     21  C10       -0.2430   26.7580   53.3280 C.ar    0  <0>0        0.0075
     22  C14       -1.7220   27.3470   51.4910 C.ar    0  <0>0        0.0047
     23  C9         0.3950   27.1320   54.5350 C.ar    0  <0>0        0.0351
     24  C11       -0.0620   25.4920   52.7590 C.ar    0  <0>0        0.0002
     25  C12       -0.7000   25.1800   51.5930 C.ar    0  <0>0        0.0000
     26  C13       -1.5260   26.1030   50.9610 C.ar    0  <0>0        0.0002
     27  C6        -1.7590   28.5230   58.9000 C.2     0  <0>0       -0.0199
     28  C7        -2.0410   27.5020   59.7110 C.2     0  <0>0       -0.0045
@<TRIPOS>BOND
     1    26    22   ar
     2    26    25   ar
     3    22    19   ar
     4    25    24   ar
     5    19    17   ar
     6    19    21   ar
     7    24    21   ar
     8    20    17    2
     9    17    16   ar
    10    21    23   ar
    11    16    18    1
    12    16    15   ar
    13    23    15   ar
    14    15    13    1
    15    13    14    1
    16    13     1    2
    17     5     4    1
    18     1     2    1
    19     1     3    1
    20     2    27    1
    21     4     3    2
    22     3     6    1
    23    27    28    2
    24     6     7    1
    25     7    12   ar
    26     7     8   ar
    27    12    11   ar
    28     8     9   ar
    29    11    10   ar
    30     9    10   ar

@<TRIPOS>MOLECULE
ZINC27635358_replica-1.pdb
 26 27 0 0 0
SMALL
GASTEIGER

@<TRIPOS>ATOM
      1  N1         0.8530   30.6030   55.1910 N.am    0  <0>0       -0.3005
      2  C6         0.8460   31.4790   56.2150 C.2     0  <0>0        0.2460
      3  O1         0.2050   31.2340   57.2200 O.2     0  <0>0       -0.2701
      4  H11        1.4310   30.8240   54.2820 H       0  <0>0        0.1497
      5  C5         0.0910   29.3550   55.2890 C.3     0  <0>0        0.0940
      6  C4        -1.0890   29.4000   54.3150 C.3     0  <0>0        0.0419
      7  C2        -2.4000   29.3200   55.0980 C.3     0  <0>0        0.0057
      8  C1        -2.1430   28.6720   56.4600 C.3     0  <0>0        0.0004
      9  C3        -2.9610   30.7300   55.3020 C.3     0  <0>0        0.0004
     10  C15       -1.0000   28.2340   53.3640 C.ar    0  <0>0       -0.0208
     11  C20       -0.2930   27.1020   53.7230 C.ar    0  <0>0       -0.0042
     12  C19       -0.2110   26.0330   52.8510 C.ar    0  <0>0       -0.0003
     13  C18       -0.8350   26.0960   51.6190 C.ar    0  <0>0       -0.0000
     14  C17       -1.5420   27.2300   51.2600 C.ar    0  <0>0       -0.0003
     15  C16       -1.6280   28.2960   52.1340 C.ar    0  <0>0       -0.0042
     16  C7         1.6070   32.7250   56.1180 C.2     0  <0>0        0.0577
     17  C8         2.9530   32.6990   56.1820 C.2     0  <0>0        0.0047
     18  C9         3.7200   33.9530   56.0840 C.ar    0  <0>0        0.0018
     19  C14        5.1170   33.9200   56.0380 C.ar    0  <0>0        0.0241
     20  C13        5.8270   35.0990   55.9450 C.ar    0  <0>0        0.1429
     21  C12        5.1610   36.3110   55.8970 C.ar    0  <0>0        0.0241
     22  C11        3.7780   36.3510   55.9470 C.ar    0  <0>0        0.0017
     23  C10        3.0540   35.1820   56.0350 C.ar    0  <0>0        0.0001
     24  N2         7.3060   35.0670   55.8960 N.pl3   0  <0>0        0.0577
     25  O2         7.9180   35.9810   55.3730 O.2     0  <0>0       -0.1261
     26  O3         7.9110   34.1270   56.3800 O.2     0  <0>0       -0.1261
@<TRIPOS>BOND
     1    14    13   ar
     2    14    15   ar
     3    13    12   ar
     4    15    10   ar
     5    12    11   ar
     6    10    11   ar
     7    10     6    1
     8     4     1    1
     9     6     7    1
    10     6     5    1
    11     7     9    1
    12     7     8    1
    13     1     5    1
    14     1     2   am
    15    25    24    2
    16    24    20    1
    17    24    26    2
    18    21    20   ar
    19    21    22   ar
    20    20    19   ar
    21    22    23   ar
    22    23    18   ar
    23    19    18   ar
    24    18    17    1
    25    16    17    2
    26    16     2    1
    27     2     3    2

@<TRIPOS>MOLECULE
ZINC16243693_replica-1.pdb
 24 26 0 0 0
SMALL
GASTEIGER

@<TRIPOS>ATOM
      1  C1        -1.3980   30.0320   56.3940 C.3     0  <0>0        0.0261
      2  C2        -0.7600   29.9350   55.0070 C.3     0  <0>0        0.0932
      3  C3        -0.3620   28.5070   54.7360 C.ar    0  <0>0       -0.0045
      4  C8        -0.7140   27.8940   53.5220 C.ar    0  <0>0       -0.0024
      5  C7        -0.3260   26.5520   53.2820 C.ar    0  <0>0       -0.0003
      6  C9        -1.4390   28.5880   52.5370 C.ar    0  <0>0       -0.0003
      7  C6         0.3930   25.8570   54.2690 C.ar    0  <0>0       -0.0000
      8  C12       -0.6720   25.9420   52.0650 C.ar    0  <0>0       -0.0000
      9  C5         0.7110   26.4810   55.4360 C.ar    0  <0>0       -0.0003
     10  C4         0.3340   27.8020   55.6690 C.ar    0  <0>0       -0.0027
     11  C11       -1.3850   26.6400   51.1400 C.ar    0  <0>0       -0.0000
     12  C10       -1.7620   27.9620   51.3720 C.ar    0  <0>0       -0.0000
     13  N1         0.4280   30.7910   54.9560 N.am    0  <0>0       -0.3138
     14  H12        1.0080   30.7700   54.1790 H       0  <0>0        0.1487
     15  C13        0.7140   31.6090   55.9890 C.2     0  <0>0        0.1353
     16  S1         1.6390   31.0290   57.3070 S.2     0  <0>0       -0.0185
     17  N2         0.2730   32.8820   55.9830 N.am    0  <0>0       -0.2959
     18  H13       -0.3210   33.1870   55.2780 H       0  <0>0        0.1539
     19  C14        0.6700   33.7650   56.9930 C.ar    0  <0>0        0.0495
     20  C19        1.5770   34.7790   56.7130 C.ar    0  <0>0        0.0146
     21  C18        1.9630   35.6520   57.7100 C.ar    0  <0>0        0.0013
     22  C17        1.4550   35.5120   58.9890 C.ar    0  <0>0        0.0001
     23  C16        0.5560   34.5010   59.2720 C.ar    0  <0>0        0.0013
     24  C15        0.1630   33.6260   58.2780 C.ar    0  <0>0        0.0146
@<TRIPOS>BOND
     1    11    12   ar
     2    11     8   ar
     3    12     6   ar
     4     8     5   ar
     5     6     4   ar
     6     5     4   ar
     7     5     7   ar
     8     4     3   ar
     9    14    13    1
    10     7     9   ar
    11     3     2    1
    12     3    10   ar
    13    13     2    1
    14    13    15    1
    15     2     1    1
    16    18    17    1
    17     9    10   ar
    18    17    15    1
    19    17    19    1
    20    15    16    2
    21    20    19   ar
    22    20    21   ar
    23    19    24   ar
    24    21    22   ar
    25    24    23   ar
    26    22    23   ar

@<TRIPOS>MOLECULE
ZINC13421470_replica-1.pdb
 28 30 0 0 0
SMALL
GASTEIGER

@<TRIPOS>ATOM
      1  N1         0.4570   30.1340   55.3430 N.am    0  <0>0       -0.2952
      2  C12        0.5420   31.3760   55.8610 C.2     0  <0>0        0.2674
      3  O1        -0.4660   31.9640   56.1950 O.2     0  <0>0       -0.2710
      4  H10        1.2630   29.6640   55.0770 H       0  <0>0        0.1501
      5  C7        -0.8510   29.4940   55.1850 C.3     0  <0>0        0.1230
      6  C4        -0.7940   28.5110   54.0440 C.ar    0  <0>0        0.0002
      7  C3        -0.0870   27.3320   54.1830 C.ar    0  <0>0       -0.0023
      8  C2        -0.0350   26.4300   53.1360 C.ar    0  <0>0       -0.0003
      9  C1        -0.6900   26.7080   51.9510 C.ar    0  <0>0       -0.0000
     10  C6        -1.3970   27.8870   51.8120 C.ar    0  <0>0       -0.0003
     11  C5        -1.4530   28.7870   52.8600 C.ar    0  <0>0       -0.0023
     12  C8        -1.2120   28.7690   56.4560 C.ar    0  <0>0        0.0292
     13  S1        -0.1570   28.2780   57.8100 S.2     0  <0>0       -0.0888
     14  C11       -1.4010   27.5080   58.8330 C.ar    0  <0>0        0.0352
     15  C10       -2.5200   27.6740   58.0860 C.ar    0  <0>0        0.0072
     16  C9        -2.4240   28.3250   56.8700 C.ar    0  <0>0        0.0046
     17  C13        1.8860   32.0350   56.0240 C.3     0  <0>0        0.2893
     18  O2         1.7060   33.4060   56.3830 O.3     0  <0>0       -0.4656
     19  C14        2.7920   34.2180   56.2870 C.ar    0  <0>0        0.1393
     20  C19        3.0290   35.1790   57.2590 C.ar    0  <0>0        0.0366
     21  C18        4.1370   35.9980   57.1620 C.ar    0  <0>0       -0.0006
     22  C17        5.0020   35.8690   56.0920 C.ar    0  <0>0       -0.0107
     23  C16        4.7680   34.9130   55.1210 C.ar    0  <0>0       -0.0006
     24  C15        3.6640   34.0870   55.2160 C.ar    0  <0>0        0.0366
     25  C20        6.2070   36.7700   55.9850 C.3     0  <0>0        0.1404
     26  C21        7.0750   36.5940   57.2050 C.2     0  <0>0        0.3692
     27  O3         7.2650   37.5260   57.9500 O.co2   0  <0>0       -0.2453
     28  O4         7.6310   35.4010   57.4660 O.co2   0  <0>0       -0.2453
@<TRIPOS>BOND
     1    10     9   ar
     2    10    11   ar
     3     9     8   ar
     4    11     6   ar
     5     8     7   ar
     6     6     7   ar
     7     6     5    1
     8     4     1    1
     9    23    24   ar
    10    23    22   ar
    11     5     1    1
    12     5    12    1
    13    24    19   ar
    14     1     2   am
    15     2    17    1
    16     2     3    2
    17    25    22    1
    18    25    26    1
    19    17    18    1
    20    22    21   ar
    21    19    18    1
    22    19    20   ar
    23    12    16   ar
    24    12    13   ar
    25    16    15   ar
    26    21    20   ar
    27    26    28   ar
    28    26    27   ar
    29    13    14   ar
    30    15    14   ar

@<TRIPOS>MOLECULE
ZINC58415127_replica-1.pdb
 26 29 0 0 0
SMALL
GASTEIGER

@<TRIPOS>ATOM
      1  S1        -0.8530   30.6070   55.8810 S.O2    0  <0>0        0.0619
      2  O1        -2.1590   31.1620   55.8060 O.2     0  <0>0       -0.1529
      3  O2         0.1820   30.9680   54.9770 O.2     0  <0>0       -0.1529
      4  C8        -0.2500   30.9570   57.5000 C.ar    0  <0>0        0.1394
      5  C7        -0.3320   30.0150   58.4780 C.ar    0  <0>0        0.0214
      6  C6         0.1390   30.2710   59.7640 C.ar    0  <0>0        0.0015
      7  C5         0.6970   31.4720   60.0780 C.ar    0  <0>0        0.0016
      8  C4         0.7980   32.4680   59.0940 C.ar    0  <0>0        0.0187
      9  C3         1.3680   33.7240   59.3770 C.ar    0  <0>0       -0.0012
     10  C9         0.3190   32.2110   57.7850 C.ar    0  <0>0        0.0998
     11  C2         1.4330   34.6440   58.3700 C.ar    0  <0>0       -0.0027
     12  C1         2.0330   36.0020   58.6260 C.3     0  <0>0        0.0327
     13  C10        0.9380   34.3290   57.1070 C.ar    0  <0>0        0.0946
     14  N1         0.4120   33.1560   56.8450 N.ar    0  <0>0       -0.2428
     15  N2        -1.0290   28.9650   55.7680 N.3     0  <0>0       -0.1766
     16  H10       -1.8430   28.5410   56.0840 H       0  <0>0        0.1491
     17  C11        0.0420   28.1520   55.1880 C.3     0  <0>0        0.0977
     18  C15       -0.3980   27.5710   53.8610 C.ar    0  <0>0       -0.0103
     19  C14       -0.0220   26.2400   53.7890 C.ar    0  <0>0       -0.0226
     20  C16       -1.0730   28.1580   52.8040 C.ar    0  <0>0       -0.0009
     21  C13        0.6970   25.8410   55.0600 C.3     0  <0>0        0.0279
     22  C19       -0.3240   25.5000   52.6580 C.ar    0  <0>0        0.0251
     23  C12        0.3370   26.9330   56.0880 C.3     0  <0>0        0.0265
     24  C18       -0.9970   26.0910   51.5990 C.ar    0  <0>0        0.1398
     25  C17       -1.3730   27.4210   51.6750 C.ar    0  <0>0        0.0293
     26  F1        -1.2900   25.3670   50.4960 F       0  <0>0       -0.2042
@<TRIPOS>BOND
     1    26    24    1
     2    24    25   ar
     3    24    22   ar
     4    25    20   ar
     5    22    19   ar
     6    20    18   ar
     7    19    18   ar
     8    19    21    1
     9    18    17    1
    10     3     1    2
    11    21    23    1
    12    17    15    1
    13    17    23    1
    14    15     1    1
    15    15    16    1
    16     2     1    2
    17     1     4    1
    18    14    13   ar
    19    14    10   ar
    20    13    11   ar
    21     4    10   ar
    22     4     5   ar
    23    10     8   ar
    24    11    12    1
    25    11     9   ar
    26     5     6   ar
    27     8     9   ar
    28     8     7   ar
    29     6     7   ar

@<TRIPOS>MOLECULE
ZINC02956249_replica-1.pdb
 26 29 0 0 0
SMALL
GASTEIGER

@<TRIPOS>ATOM
      1  C10       -0.1860   30.0810   56.0530 C.2     0  <0>0        0.1287
      2  C11        0.4760   29.5110   57.1050 C.3     0  <0>0        0.1249
      3  S1         0.5940   30.9050   58.2190 S.3     0  <0>0       -0.0594
      4  C12       -0.2410   32.0950   57.1810 C.2     0  <0>0        0.2111
      5  N1        -0.5290   31.3660   56.1190 N.2     0  <0>0       -0.3840
      6  C8        -0.5170   29.2780   54.8520 C.ar    0  <0>0        0.1024
      7  C7        -0.0770   27.9870   54.7370 C.ar    0  <0>0        0.0118
      8  C5        -0.4320   27.2390   53.5300 C.ar    0  <0>0        0.0350
      9  C4        -1.2070   27.8580   52.5330 C.ar    0  <0>0        0.1487
     10  C6        -0.0070   25.9160   53.3620 C.ar    0  <0>0        0.0030
     11  C3        -1.5400   27.1420   51.3890 C.ar    0  <0>0        0.0376
     12  O2        -1.6230   29.1340   52.6790 O.2     0  <0>0       -0.4210
     13  C2        -1.1110   25.8390   51.2440 C.ar    0  <0>0        0.0031
     14  C1        -0.3470   25.2310   52.2300 C.ar    0  <0>0        0.0002
     15  C9        -1.3240   29.8530   53.7720 C.ar    0  <0>0        0.3479
     16  O1        -1.7250   30.9990   53.8660 O.2     0  <0>0       -0.2444
     17  N2        -0.5150   33.4320   57.4260 N.pl3   0  <0>0       -0.2812
     18  H7        -1.4260   33.7590   57.3670 H       0  <0>0        0.1551
     19  C13        0.5230   34.3090   57.7570 C.ar    0  <0>0        0.0805
     20  C18        0.8030   34.5850   59.0920 C.ar    0  <0>0        0.1536
     21  C17        1.8340   35.4470   59.4170 C.ar    0  <0>0        0.0332
     22  F1         0.0710   34.0070   60.0690 F       0  <0>0       -0.2029
     23  C16        2.5790   36.0440   58.4170 C.ar    0  <0>0        0.0320
     24  C15        2.3010   35.7750   57.0880 C.ar    0  <0>0        0.1415
     25  C14        1.2740   34.9090   56.7550 C.ar    0  <0>0        0.0466
     26  F2         3.0320   36.3590   56.1130 F       0  <0>0       -0.2041
@<TRIPOS>BOND
     1    13    11   ar
     2    13    14   ar
     3    11     9   ar
     4    14    10   ar
     5     9    12   ar
     6     9     8   ar
     7    12    15   ar
     8    10     8   ar
     9     8     7   ar
    10    15    16    2
    11    15     6   ar
    12     7     6   ar
    13     6     1    1
    14     1     5    2
    15     1     2    1
    16    26    24    1
    17     5     4    2
    18    25    24   ar
    19    25    19   ar
    20    24    23   ar
    21     2     3    1
    22     4    17    1
    23     4     3    1
    24    18    17    1
    25    17    19    1
    26    19    20   ar
    27    23    21   ar
    28    20    21   ar
    29    20    22    1

@<TRIPOS>MOLECULE
ZINC59739900_replica-1.pdb
 25 27 0 0 0
SMALL
GASTEIGER

@<TRIPOS>ATOM
      1  C11        0.2900   32.0780   56.0260 C.2     0  <0>0        0.2378
      2  N1         1.4930   32.6070   56.0580 N.2     0  <0>0       -0.3261
      3  H2        -1.3620   32.4370   57.2420 H       0  <0>0        0.1783
      4  C12        1.5690   33.4940   57.0610 C.1     0  <0>0        0.1048
      5  N2         0.4100   33.5360   57.6800 N.2     0  <0>0       -0.1129
      6  N3        -0.4380   32.6300   57.0230 N.pl3   0  <0>0       -0.1952
      7  S1        -0.2780   30.8670   54.8800 S.3     0  <0>0       -0.0657
      8  C2        -1.3700   29.8050   55.8670 C.3     0  <0>0        0.0560
      9  C1        -2.8290   30.1340   55.5450 C.3     0  <0>0        0.0121
     10  C3        -1.0930   28.3380   55.5340 C.3     0  <0>0        0.0159
     11  C4         0.0320   28.2530   54.4990 C.3     0  <0>0        0.0272
     12  C5        -0.4140   27.3970   53.3430 C.ar    0  <0>0       -0.0222
     13  C10       -0.0570   26.0620   53.2920 C.ar    0  <0>0       -0.0043
     14  C9        -0.4690   25.2760   52.2330 C.ar    0  <0>0       -0.0003
     15  C8        -1.2310   25.8260   51.2190 C.ar    0  <0>0       -0.0000
     16  C7        -1.5840   27.1610   51.2670 C.ar    0  <0>0       -0.0003
     17  C6        -1.1750   27.9470   52.3280 C.ar    0  <0>0       -0.0043
     18  C13        2.7670   34.2940   57.4160 C.ar    0  <0>0        0.0756
     19  C18        3.9750   34.0740   56.7550 C.ar    0  <0>0        0.0142
     20  C17        5.0860   34.8210   57.0830 C.ar    0  <0>0        0.0376
     21  C16        5.0050   35.7850   58.0800 C.ar    0  <0>0        0.1388
     22  C15        3.8050   36.0020   58.7440 C.ar    0  <0>0        0.0376
     23  C14        2.6900   35.2610   58.4150 C.ar    0  <0>0        0.0142
     24  O1         6.1020   36.5170   58.4050 O.3     0  <0>0       -0.4714
     25  C19        6.9230   36.9700   57.3280 C.3     0  <0>0        0.2525
@<TRIPOS>BOND
     1    15    16   ar
     2    15    14   ar
     3    16    17   ar
     4    14    13   ar
     5    17    12   ar
     6    13    12   ar
     7    12    11    1
     8    11    10    1
     9     7     8    1
    10     7     1    1
    11    10     8    1
    12     9     8    1
    13     1     2    2
    14     1     6    1
    15     2     4    2
    16    19    20   ar
    17    19    18   ar
    18     6     3    1
    19     6     5    1
    20     4    18    1
    21     4     5    2
    22    20    21   ar
    23    25    24    1
    24    18    23   ar
    25    21    24    1
    26    21    22   ar
    27    23    22   ar

@<TRIPOS>MOLECULE
ZINC01071879_replica-1.pdb
 24 27 0 0 0
SMALL
GASTEIGER

@<TRIPOS>ATOM
      1  C7         8.1880   35.2560   57.1140 C.3     0  <0>0        0.1460
      2  N1         6.7570   34.9630   57.3690 N.am    0  <0>0       -0.2723
      3  C8         5.9340   36.1860   57.2700 C.3     0  <0>0        0.1637
      4  C9         6.2580   36.8790   55.9170 C.3     0  <0>0        0.0886
      5  S1         8.0910   36.6500   55.9120 S.3     0  <0>0       -0.1145
      6  C10        4.5180   35.6610   57.2600 C.2     0  <0>0        0.2533
      7  O1         3.5020   36.2940   57.0650 O.2     0  <0>0       -0.2723
      8  N2         4.6220   34.3410   57.5160 N.am    0  <0>0       -0.2185
      9  C11        5.9010   33.9590   57.6230 C.2     0  <0>0        0.1487
     10  S2         6.3890   32.3710   58.0390 S.2     0  <0>0       -0.0177
     11  C6         8.8810   35.6870   58.3800 C.ar    0  <0>0        0.0062
     12  C1         8.6840   36.9610   58.8770 C.ar    0  <0>0        0.0005
     13  C2         9.3160   37.3560   60.0410 C.ar    0  <0>0        0.0294
     14  C3        10.1560   36.4760   60.7040 C.ar    0  <0>0        0.1401
     15  C4        10.3580   35.2020   60.2020 C.ar    0  <0>0        0.0294
     16  F1        10.7790   36.8630   61.8390 F       0  <0>0       -0.2042
     17  C5         9.7190   34.8090   59.0410 C.ar    0  <0>0        0.0005
     18  C12        3.5260   33.4760   57.6520 C.ar    0  <0>0        0.0598
     19  C17        2.9690   33.2520   58.9040 C.ar    0  <0>0        0.0162
     20  C16        1.8900   32.4010   59.0360 C.ar    0  <0>0        0.0127
     21  C15        1.3630   31.7710   57.9220 C.ar    0  <0>0        0.0578
     22  C14        1.9160   31.9940   56.6730 C.ar    0  <0>0        0.0127
     23 Cl          0.0060   30.7020   58.0920 Cl      0  <0>0       -0.0822
     24  C13        2.9930   32.8480   56.5350 C.ar    0  <0>0        0.0162
@<TRIPOS>BOND
     1     5     4    1
     2     5     1    1
     3     4     3    1
     4    24    22   ar
     5    24    18   ar
     6    22    21   ar
     7     7     6    2
     8     1     2    1
     9     1    11    1
    10     6     3    1
    11     6     8   am
    12     3     2    1
    13     2     9    1
    14     8     9    1
    15     8    18    1
    16     9    10    2
    17    18    19   ar
    18    21    23    1
    19    21    20   ar
    20    11    12   ar
    21    11    17   ar
    22    12    13   ar
    23    19    20   ar
    24    17    15   ar
    25    13    14   ar
    26    15    14   ar
    27    14    16    1

@<TRIPOS>MOLECULE
ZINC12346653_replica-1.pdb
 28 30 0 0 0
SMALL
GASTEIGER

@<TRIPOS>ATOM
      1  C7         6.1690   35.1420   58.7650 C.2     0  <0>0        0.0871
      2  N1         6.6250   34.2690   59.6090 N.2     0  <0>0       -0.1824
      3  N2         7.9110   34.4180   60.1460 N.am    0  <0>0       -0.2026
      4  C8         8.5760   33.3410   60.6100 C.2     0  <0>0        0.2645
      5  O1         8.0600   32.2410   60.5630 O.2     0  <0>0       -0.2684
      6  H6         8.3220   35.2950   60.1840 H       0  <0>0        0.1776
      7  C9         9.9310   33.4980   61.1750 C.ar    0  <0>0        0.0550
      8  C18       10.5010   32.4590   61.8940 C.ar    0  <0>0        0.0046
      9  C17       11.7860   32.6170   62.4340 C.ar    0  <0>0        0.0001
     10  C12       12.4860   33.8330   62.2270 C.ar    0  <0>0        0.0000
     11  C16       12.4000   31.5840   63.1650 C.ar    0  <0>0        0.0000
     12  C11       11.8800   34.8700   61.4920 C.ar    0  <0>0        0.0001
     13  C13       13.7740   33.9850   62.7650 C.ar    0  <0>0        0.0000
     14  C10       10.6340   34.7010   60.9810 C.ar    0  <0>0        0.0046
     15  C14       14.3360   32.9650   63.4710 C.ar    0  <0>0        0.0000
     16  C15       13.6500   31.7680   63.6710 C.ar    0  <0>0        0.0000
     17  C4         6.9450   36.3630   58.4760 C.ar    0  <0>0        0.0159
     18  C3         6.8180   37.4860   59.2980 C.ar    0  <0>0        0.0012
     19  C2         7.5470   38.6230   59.0220 C.ar    0  <0>0        0.0000
     20  C1         8.4010   38.6550   57.9340 C.ar    0  <0>0        0.0000
     21  C6         8.5320   37.5470   57.1150 C.ar    0  <0>0        0.0000
     22  C5         7.8140   36.4010   57.3820 C.ar    0  <0>0        0.0012
     23  C19        4.8470   34.9110   58.0800 C.3     0  <0>0        0.1052
     24  S1         4.7690   33.1990   57.4810 S.3     0  <0>0       -0.1219
     25  C20        6.1030   33.1040   56.2550 C.3     0  <0>0        0.1718
     26  C21        7.1940   32.2020   56.7690 C.2     0  <0>0        0.3757
     27  O2         8.2280   32.6760   57.1760 O.co2   0  <0>0       -0.2447
     28  O3         7.0180   30.8720   56.7780 O.co2   0  <0>0       -0.2447
@<TRIPOS>BOND
     1    25    26    1
     2    25    24    1
     3    26    28   ar
     4    26    27   ar
     5    21    22   ar
     6    21    20   ar
     7    22    17   ar
     8    24    23    1
     9    20    19   ar
    10    23     1    1
    11    17     1    1
    12    17    18   ar
    13     1     2    2
    14    19    18   ar
    15     2     3    1
    16     3     6    1
    17     3     4   am
    18     5     4    2
    19     4     7    1
    20    14     7   ar
    21    14    12   ar
    22     7     8   ar
    23    12    10   ar
    24     8     9   ar
    25    10     9   ar
    26    10    13   ar
    27     9    11   ar
    28    13    15   ar
    29    11    16   ar
    30    15    16   ar

@<TRIPOS>MOLECULE
ZINC38321101_replica-1.pdb
 26 29 0 0 0
SMALL
GASTEIGER

@<TRIPOS>ATOM
      1  C7         3.8600   36.0980   56.2190 C.2     0  <0>0        0.0115
      2  C8         5.0970   36.0070   56.7690 C.ar    0  <0>0        0.0912
      3  C9         5.5710   35.1490   57.8660 C.ar    0  <0>0        0.2895
      4  O1         4.8220   34.3750   58.4300 O.2     0  <0>0       -0.2645
      5  N1         6.8600   35.2520   58.2240 N.ar    0  <0>0       -0.1500
      6  C10        7.6610   36.1380   57.5600 C.ar    0  <0>0        0.2606
      7  S1         6.5950   36.8880   56.3510 S.2     0  <0>0       -0.0299
      8  N2         8.8680   36.0910   58.0480 N.2     0  <0>0       -0.3225
      9  C11        8.9100   35.1860   59.0410 C.1     0  <0>0        0.1086
     10  N3         7.7200   34.6530   59.1850 N.2     0  <0>0       -0.0937
     11  C12       10.1020   34.8490   59.8390 C.2     0  <0>0        0.0859
     12  C13        9.9970   34.0100   60.8820 C.2     0  <0>0        0.0118
     13  C14       11.1890   33.6740   61.6800 C.ar    0  <0>0        0.0008
     14  C19       12.3070   34.5140   61.6570 C.ar    0  <0>0        0.0009
     15  C18       13.4170   34.1960   62.4120 C.ar    0  <0>0        0.0114
     16  C17       13.4310   33.0450   63.1800 C.ar    0  <0>0        0.0577
     17  C16       12.3290   32.2060   63.2020 C.ar    0  <0>0        0.0114
     18 Cl         14.8360   32.6500   64.1200 Cl      0  <0>0       -0.0822
     19  C15       11.2110   32.5140   62.4580 C.ar    0  <0>0        0.0009
     20  C3         2.7240   35.4060   56.8430 C.ar    0  <0>0        0.0011
     21  C2         2.0760   35.9710   57.9480 C.ar    0  <0>0        0.0000
     22  C1         1.0120   35.3150   58.5290 C.ar    0  <0>0        0.0005
     23  C6         0.5840   34.0990   58.0230 C.ar    0  <0>0        0.0067
     24  C5         1.2190   33.5320   56.9310 C.ar    0  <0>0        0.0346
     25  C4         2.2860   34.1760   56.3370 C.ar    0  <0>0        0.0067
     26 Br          0.6230   31.8720   56.2500 Br      0  <0>0       -0.0490
@<TRIPOS>BOND
     1     1     2    2
     2     1    20    1
     3    26    24    1
     4    25    20   ar
     5    25    24   ar
     6     7     2   ar
     7     7     6   ar
     8     2     3   ar
     9    20    21   ar
    10    24    23   ar
    11     6     8    2
    12     6     5   ar
    13     3     5   ar
    14     3     4    2
    15    21    22   ar
    16    23    22   ar
    17     8     9    2
    18     5    10    1
    19     9    10    2
    20     9    11    1
    21    11    12    2
    22    12    13    1
    23    14    13   ar
    24    14    15   ar
    25    13    19   ar
    26    15    16   ar
    27    19    17   ar
    28    16    17   ar
    29    16    18    1

@<TRIPOS>MOLECULE
ZINC01504978_replica-1.pdb
 23 25 0 0 0
SMALL
GASTEIGER

@<TRIPOS>ATOM
      1  C10       -0.4400   30.7310   55.1440 C.2     0  <0>0        0.1888
      2  C11       -1.8940   30.5510   55.2800 C.2     0  <0>0        0.3735
      3  O1        -2.6670   31.2340   55.9270 O.2     0  <0>0       -0.2419
      4  O2        -2.1900   29.4640   54.5330 O.3     0  <0>0       -0.3910
      5  C12       -1.0530   29.0000   53.9810 C.2     0  <0>0        0.2865
      6  N1        -0.0240   29.7280   54.3210 N.2     0  <0>0       -0.3651
      7  C9         0.3410   31.7180   55.7260 C.3     0  <0>0        0.0776
      8  C8         0.4120   31.8220   57.1250 C.3     0  <0>0        0.0687
      9 Br          0.9700   30.3390   58.1570 Br      0  <0>0       -0.0809
     10  C7         0.0800   32.9890   57.7370 C.3     0  <0>0        0.0381
     11  C4         1.0860   34.0470   57.8970 C.ar    0  <0>0       -0.0213
     12  C3         1.1330   35.1160   56.9940 C.ar    0  <0>0       -0.0042
     13  C2         2.0800   36.1050   57.1520 C.ar    0  <0>0       -0.0003
     14  C1         2.9840   36.0430   58.1990 C.ar    0  <0>0       -0.0000
     15  C6         2.9430   34.9890   59.0960 C.ar    0  <0>0       -0.0003
     16  C5         2.0030   33.9920   58.9530 C.ar    0  <0>0       -0.0042
     17  C13       -0.9800   27.8210   53.0980 C.ar    0  <0>0        0.0939
     18  C18       -1.6270   27.8310   51.8570 C.ar    0  <0>0        0.1457
     19  C17       -1.5480   26.7240   51.0320 C.ar    0  <0>0        0.0298
     20  F1        -2.3220   28.9200   51.4630 F       0  <0>0       -0.2040
     21  C16       -0.8410   25.6060   51.4370 C.ar    0  <0>0        0.0023
     22  C15       -0.2040   25.5880   52.6660 C.ar    0  <0>0        0.0003
     23  C14       -0.2680   26.6870   53.4970 C.ar    0  <0>0        0.0080
@<TRIPOS>BOND
     1    19    21   ar
     2    19    18   ar
     3    21    22   ar
     4    20    18    1
     5    18    17   ar
     6    22    23   ar
     7    17    23   ar
     8    17     5    1
     9     5     6    2
    10     5     4    1
    11     6     1    2
    12     4     2    1
    13     1     2    1
    14     1     7    1
    15     2     3    2
    16     7     8    1
    17    12    13   ar
    18    12    11   ar
    19     8    10    1
    20     8     9    1
    21    13    14   ar
    22    10    11    1
    23    11    16   ar
    24    14    15   ar
    25    16    15   ar

@<TRIPOS>MOLECULE
ZINC04249089_replica-1.pdb
 28 32 0 0 0
SMALL
GASTEIGER

@<TRIPOS>ATOM
      1  C12        1.8600   28.2000   58.6280 C.ar    0  <0>0        0.0505
      2  C13        1.0390   28.3930   59.7330 C.ar    0  <0>0        0.0148
      3  C14        1.5340   28.2040   61.0040 C.ar    0  <0>0        0.0035
      4  C15        2.8650   27.8290   61.1840 C.ar    0  <0>0        0.0273
      5  C16        3.6890   27.6400   60.0750 C.ar    0  <0>0        0.0035
      6  C17        3.1870   27.8250   58.8050 C.ar    0  <0>0        0.0148
      7  N1         1.3540   28.3880   57.3390 N.am    0  <0>0       -0.2804
      8  C11        0.6760   27.3950   56.7290 C.2     0  <0>0        0.2495
      9  O1         0.5870   26.3040   57.2610 O.2     0  <0>0       -0.2698
     10  H8         1.4900   29.2330   56.8830 H       0  <0>0        0.1552
     11  C6         0.0410   27.6310   55.4170 C.ar    0  <0>0        0.0537
     12  C5         0.0290   26.6230   54.4670 C.ar    0  <0>0        0.0045
     13  C4        -0.5800   26.8520   53.2250 C.ar    0  <0>0        0.0001
     14  C3        -0.6130   25.8530   52.2350 C.ar    0  <0>0        0.0000
     15  C9        -1.1740   28.1130   52.9610 C.ar    0  <0>0        0.0000
     16  C2        -1.2130   26.1080   51.0410 C.ar    0  <0>0        0.0000
     17  C1        -1.7970   27.3470   50.7810 C.ar    0  <0>0        0.0000
     18  C10       -1.7840   28.3380   51.7150 C.ar    0  <0>0        0.0000
     19  C8        -1.1450   29.1170   53.9460 C.ar    0  <0>0        0.0001
     20  C7        -0.5520   28.8770   55.1420 C.ar    0  <0>0        0.0045
     21  C18        3.4020   27.6290   62.5520 C.2     0  <0>0        0.1315
     22  N3         2.6760   27.3570   63.6640 N.2     0  <0>0       -0.3829
     23  C20        3.4900   27.2450   64.6800 C.2     0  <0>0        0.2184
     24  N2         4.7740   27.4450   64.2820 N.pl3   0  <0>0       -0.2489
     25  S1         3.5360   26.9260   66.4290 S.3     0  <0>0       -0.0379
     26  C19        4.7030   27.6920   62.9110 C.3     0  <0>0        0.1573
     27  C22        5.8370   27.3660   65.2820 C.2     0  <0>0        0.0752
     28  C21        5.3430   27.0540   66.7040 C.2     0  <0>0        0.0553
@<TRIPOS>BOND
     1    17    16   ar
     2    17    18   ar
     3    16    14   ar
     4    18    15   ar
     5    14    13   ar
     6    15    13   ar
     7    15    19   ar
     8    13    12   ar
     9    19    20   ar
    10    12    11   ar
    11    20    11   ar
    12    11     8    1
    13     8     9    2
    14     8     7   am
    15    10     7    1
    16     7     1    1
    17     1     6   ar
    18     1     2   ar
    19     6     5   ar
    20     2     3   ar
    21     5     4   ar
    22     3     4   ar
    23     4    21    1
    24    21    26    1
    25    21    22    2
    26    26    24    1
    27    22    23    2
    28    24    23    1
    29    24    27    1
    30    23    25    1
    31    27    28    2
    32    25    28    1

@<TRIPOS>MOLECULE
ZINC59016222_replica-1.pdb
 27 29 0 0 0
SMALL
GASTEIGER

@<TRIPOS>ATOM
      1  N2        -0.7680   32.5590   57.0770 N.pl3   0  <0>0       -0.1960
      2  C10        0.2850   33.2650   57.6280 C.cat   0  <0>0        0.2845
      3  N3         1.5540   32.9170   57.5930 N.2     0  <0>0       -0.3098
      4  C11        2.2900   33.8350   58.2270 C.1     0  <0>0        0.1339
      5  N4         1.4990   34.7800   58.6750 N.2     0  <0>0       -0.1060
      6  N5         0.1930   34.4360   58.2940 N.pl3   0  <0>0       -0.1864
      7  H9        -1.6730   32.9000   57.1520 H       0  <0>0        0.1783
      8  H16       -0.6170   34.9390   58.4750 H       0  <0>0        0.1791
      9  N1        -0.5280   31.3490   56.4100 N.2     0  <0>0       -0.1768
     10  C9        -0.5600   31.3060   55.1090 C.2     0  <0>0        0.1177
     11  C8        -0.3170   30.0830   54.4350 C.2     0  <0>0        0.0222
     12  C7        -1.3260   29.4500   53.8010 C.2     0  <0>0        0.0016
     13  C4        -1.0740   28.1800   53.1010 C.ar    0  <0>0        0.0000
     14  C3        -0.2970   27.1860   53.7030 C.ar    0  <0>0        0.0000
     15  C2        -0.0660   26.0000   53.0400 C.ar    0  <0>0        0.0000
     16  C1        -0.6010   25.7910   51.7800 C.ar    0  <0>0        0.0000
     17  C6        -1.3710   26.7700   51.1770 C.ar    0  <0>0        0.0000
     18  C5        -1.6110   27.9620   51.8270 C.ar    0  <0>0        0.0000
     19  S1         4.0400   33.7830   58.4290 S.3     0  <0>0       -0.0243
     20  C12        4.3780   35.0710   59.6590 C.3     0  <0>0        0.0997
     21  C13        5.4340   36.0070   59.1290 C.ar    0  <0>0       -0.0102
     22  C18        5.8320   35.9230   57.8080 C.ar    0  <0>0       -0.0025
     23  C17        6.7970   36.7850   57.3200 C.ar    0  <0>0        0.0111
     24  C16        7.3700   37.7250   58.1560 C.ar    0  <0>0        0.0577
     25  C15        6.9750   37.8070   59.4800 C.ar    0  <0>0        0.0111
     26 Cl          8.5850   38.8040   57.5460 Cl      0  <0>0       -0.0822
     27  C14        6.0070   36.9480   59.9650 C.ar    0  <0>0       -0.0025
@<TRIPOS>BOND
     1    17    16   ar
     2    17    18   ar
     3    16    15   ar
     4    18    13   ar
     5    15    14   ar
     6    13    14   ar
     7    13    12    1
     8    12    11    2
     9    11    10    1
    10    10     9    2
    11     9     1    1
    12     1     7    1
    13     1     2    1
    14    23    22   ar
    15    23    24   ar
    16    26    24    1
    17     3     2    2
    18     3     4    2
    19     2     6    1
    20    22    21   ar
    21    24    25   ar
    22     4    19    1
    23     4     5    2
    24     6     8    1
    25     6     5    1
    26    19    20    1
    27    21    20    1
    28    21    27   ar
    29    25    27   ar

@<TRIPOS>MOLECULE
ZINC00976172_replica-1.pdb
 26 28 0 0 0
SMALL
GASTEIGER

@<TRIPOS>ATOM
      1  C1        -2.3720   28.5980   56.9840 C.3     0  <0>0        0.0314
      2  C2        -1.1950   29.3250   57.5810 C.ar    0  <0>0       -0.0150
      3  C3        -0.8880   29.2100   58.8850 C.ar    0  <0>0        0.0050
      4  S1         0.5560   30.2360   59.0610 S.2     0  <0>0       -0.0768
      5  C4         0.7140   30.7970   57.4300 C.ar    0  <0>0        0.0834
      6  C5        -0.3470   30.1740   56.7760 C.ar    0  <0>0        0.0548
      7  C19       -1.5940   28.4000   59.9430 C.3     0  <0>0        0.0379
      8  N1         1.6660   31.6510   56.9030 N.am    0  <0>0       -0.2753
      9  C13        1.5460   32.9830   57.0770 C.2     0  <0>0        0.2514
     10  O2         0.6550   33.4270   57.7740 O.2     0  <0>0       -0.2697
     11  H8         2.4190   31.2930   56.4090 H       0  <0>0        0.1556
     12  C14        2.4980   33.9020   56.4190 C.ar    0  <0>0        0.0728
     13  C18        3.4900   33.4090   55.5720 C.ar    0  <0>0        0.1034
     14  N2         4.3380   34.2290   54.9860 N.ar    0  <0>0       -0.2422
     15  C17        4.2870   35.5340   55.1720 C.ar    0  <0>0        0.0989
     16  C16        3.3330   36.1010   55.9970 C.ar    0  <0>0        0.0208
     17  C15        2.4180   35.2840   56.6360 C.ar    0  <0>0        0.0077
     18  C6        -0.5910   30.3690   55.3460 C.2     0  <0>0        0.1969
     19  O1        -0.7860   31.4890   54.9090 O.2     0  <0>0       -0.2865
     20  C7        -0.6000   29.2060   54.4320 C.ar    0  <0>0        0.0390
     21  C12       -1.4600   29.1870   53.3320 C.ar    0  <0>0        0.0037
     22  C11       -1.4640   28.1000   52.4840 C.ar    0  <0>0        0.0068
     23  C10       -0.6190   27.0290   52.7200 C.ar    0  <0>0        0.0346
     24  C9         0.2370   27.0430   53.8090 C.ar    0  <0>0        0.0068
     25 Br         -0.6310   25.5430   51.5520 Br      0  <0>0       -0.0490
     26  C8         0.2550   28.1280   54.6610 C.ar    0  <0>0        0.0037
@<TRIPOS>BOND
     1    25    23    1
     2    22    23   ar
     3    22    21   ar
     4    23    24   ar
     5    21    20   ar
     6    24    26   ar
     7    20    26   ar
     8    20    18    1
     9    19    18    2
    10    14    15   ar
    11    14    13   ar
    12    15    16   ar
    13    18     6    1
    14    13    12   ar
    15    16    17   ar
    16    11     8    1
    17    12    17   ar
    18    12     9    1
    19     6     5   ar
    20     6     2   ar
    21     8     9   am
    22     8     5    1
    23     1     2    1
    24     9    10    2
    25     5     4   ar
    26     2     3   ar
    27     3     4   ar
    28     3     7    1

@<TRIPOS>MOLECULE
ZINC01402826_replica-1.pdb
 28 31 0 0 0
SMALL
GASTEIGER

@<TRIPOS>ATOM
      1  C7        10.4220   34.7620   61.2740 C.1     0  <0>0        0.0874
      2  N1        10.6270   36.0620   61.1090 N.2     0  <0>0       -0.1809
      3  C8         9.7070   36.8300   60.5480 C.2     0  <0>0        0.1318
      4  C9         8.5130   36.2650   60.1340 C.2     0  <0>0        0.1604
      5  C10        8.3280   34.8910   60.3160 C.2     0  <0>0        0.1625
      6  N2         9.2970   34.1790   60.8870 N.2     0  <0>0       -0.3490
      7  S1         7.2590   37.2530   59.3880 S.O2    0  <0>0        0.0314
      8  O1         6.0320   36.8770   59.9960 O.2     0  <0>0       -0.1641
      9  O2         7.7360   38.5910   59.3980 O.2     0  <0>0       -0.1641
     10  C17        7.1520   36.7680   57.6970 C.ar    0  <0>0        0.1104
     11  C22        5.9320   36.4150   57.1540 C.ar    0  <0>0        0.0187
     12  C21        5.8480   36.0360   55.8280 C.ar    0  <0>0        0.0013
     13  C20        6.9860   36.0090   55.0430 C.ar    0  <0>0        0.0001
     14  C19        8.2070   36.3630   55.5860 C.ar    0  <0>0        0.0013
     15  C18        8.2900   36.7470   56.9120 C.ar    0  <0>0        0.0187
     16  C11        7.0690   34.2380   59.8840 C.ar    0  <0>0        0.0424
     17  C16        7.0270   33.5180   58.6900 C.ar    0  <0>0        0.0602
     18  C15        5.8500   32.9110   58.2930 C.ar    0  <0>0        0.0115
     19 Cl          8.4490   33.3850   57.7040 Cl      0  <0>0       -0.0822
     20  C14        4.7170   33.0170   59.0780 C.ar    0  <0>0        0.0009
     21  C13        4.7540   33.7290   60.2640 C.ar    0  <0>0        0.0001
     22  C12        5.9240   34.3340   60.6730 C.ar    0  <0>0        0.0035
     23  C4        11.4810   33.9380   61.9070 C.ar    0  <0>0        0.0740
     24  C3        11.1720   32.6810   62.4230 C.ar    0  <0>0        0.0110
     25  C2        12.1610   31.9170   63.0110 C.ar    0  <0>0        0.0007
     26  C1        13.4550   32.3990   63.0890 C.ar    0  <0>0        0.0000
     27  C6        13.7670   33.6470   62.5790 C.ar    0  <0>0        0.0007
     28  C5        12.7870   34.4150   61.9830 C.ar    0  <0>0        0.0110
@<TRIPOS>BOND
     1    13    14   ar
     2    13    12   ar
     3    14    15   ar
     4    12    11   ar
     5    15    10   ar
     6    11    10   ar
     7    10     7    1
     8    19    17    1
     9    18    17   ar
    10    18    20   ar
    11    17    16   ar
    12    20    21   ar
    13     7     9    2
    14     7     8    2
    15     7     4    1
    16    16     5    1
    17    16    22   ar
    18     4     5    1
    19     4     3    2
    20    21    22   ar
    21     5     6    2
    22     3     2    1
    23     6     1    2
    24     2     1    2
    25     1    23    1
    26    23    28   ar
    27    23    24   ar
    28    28    27   ar
    29    24    25   ar
    30    27    26   ar
    31    25    26   ar

@<TRIPOS>MOLECULE
ZINC02316782_replica-1.pdb
 33 37 0 0 0
SMALL
GASTEIGER

@<TRIPOS>ATOM
      1  C10        1.7040   31.8890   56.4760 C.2     0  <0>0        0.1412
      2  S1         1.5360   31.6940   58.1680 S.2     0  <0>0       -0.0182
      3  N2         2.1580   33.0540   55.9740 N.am    0  <0>0       -0.2949
      4  H7         2.1950   33.1870   55.0140 H       0  <0>0        0.1539
      5  C11        2.5770   34.0730   56.8380 C.ar    0  <0>0        0.0603
      6  C16        1.6660   35.0230   57.2870 C.ar    0  <0>0        0.0711
      7  C15        2.0770   36.0320   58.1400 C.ar    0  <0>0        0.0127
      8 Cl          0.0090   34.9410   56.7760 Cl      0  <0>0       -0.0810
      9  C14        3.3920   36.1020   58.5510 C.ar    0  <0>0        0.0040
     10  C13        4.3130   35.1530   58.1050 C.ar    0  <0>0        0.0372
     11  C12        3.9020   34.1390   57.2400 C.ar    0  <0>0        0.0186
     12  C17        5.7240   35.2250   58.5440 C.2     0  <0>0        0.1611
     13  S2         7.1560   34.4080   57.8530 S.3     0  <0>0       -0.0532
     14  C23        8.3550   35.0640   58.9880 C.2     0  <0>0        0.0574
     15  C18        7.5590   35.8760   59.8310 C.2     0  <0>0        0.1374
     16  C22        9.7130   34.9370   59.1500 C.2     0  <0>0       -0.0123
     17  N3         6.2430   35.9050   59.5430 N.2     0  <0>0       -0.3949
     18  C19        8.2420   36.5560   60.8680 C.2     0  <0>0        0.0283
     19  C20        9.5860   36.4190   61.0230 C.2     0  <0>0       -0.0188
     20  C21       10.3400   35.6150   60.1800 C.3     0  <0>0        0.0527
     21  N1         1.3820   30.8770   55.6460 N.am    0  <0>0       -0.2610
     22  C9         0.1160   30.7440   55.2050 C.2     0  <0>0        0.2855
     23  O2        -0.7360   31.5370   55.5550 O.2     0  <0>0       -0.2664
     24  H6         2.0630   30.2450   55.3670 H       0  <0>0        0.1569
     25  C8        -0.2350   29.6420   54.3000 C.ar    0  <0>0        0.1987
     26  C7         0.2320   28.3700   54.3970 C.ar    0  <0>0        0.0452
     27  C5        -0.3800   27.6280   53.2970 C.ar    0  <0>0        0.0377
     28  C4        -1.1890   28.5550   52.6140 C.ar    0  <0>0        0.1455
     29  C6        -0.3080   26.3040   52.8550 C.ar    0  <0>0        0.0031
     30  C3        -1.9100   28.1360   51.5020 C.ar    0  <0>0        0.0375
     31  O1        -1.0770   29.7380   53.2490 O.2     0  <0>0       -0.4489
     32  C2        -1.8250   26.8260   51.0820 C.ar    0  <0>0        0.0031
     33  C1        -1.0260   25.9150   51.7590 C.ar    0  <0>0        0.0002
@<TRIPOS>BOND
     1    32    30   ar
     2    32    33   ar
     3    30    28   ar
     4    33    29   ar
     5    28    31   ar
     6    28    27   ar
     7    29    27   ar
     8    31    25   ar
     9    27    26   ar
    10    25    26   ar
    11    25    22    1
    12     4     3    1
    13    22    23    2
    14    22    21   am
    15    24    21    1
    16    21     1    1
    17     3     1    1
    18     3     5    1
    19     1     2    2
    20     8     6    1
    21     5    11   ar
    22     5     6   ar
    23    11    10   ar
    24     6     7   ar
    25    13    12    1
    26    13    14    1
    27    10    12    1
    28    10     9   ar
    29     7     9   ar
    30    12    17    2
    31    14    16    2
    32    14    15    1
    33    16    20    1
    34    17    15    2
    35    15    18    1
    36    20    19    1
    37    18    19    2

@<TRIPOS>MOLECULE
ZINC04072116_replica-1.pdb
 27 30 0 0 0
SMALL
GASTEIGER

@<TRIPOS>ATOM
      1  N3         0.6290   31.7700   55.2260 N.am    0  <0>0       -0.2625
      2  C10       -0.4780   31.0710   55.5460 C.2     0  <0>0        0.2320
      3  O1        -0.9000   31.0910   56.6820 O.2     0  <0>0       -0.2744
      4  H8         0.9660   31.7540   54.3170 H       0  <0>0        0.1568
      5  C9         1.2870   32.5110   56.1990 C.ar    0  <0>0        0.1881
      6  N2         0.9300   33.6440   56.7800 N.ar    0  <0>0       -0.1253
      7  N1         1.6460   34.1990   57.6600 N.ar    0  <0>0       -0.1396
      8  C8         2.8000   33.6560   58.0260 C.ar    0  <0>0        0.1348
      9  S1         2.8110   32.2050   56.9800 S.2     0  <0>0       -0.0304
     10  C6         3.7940   34.1190   59.0170 C.ar    0  <0>0        0.0254
     11  C5         4.2300   33.2610   60.0280 C.ar    0  <0>0        0.0020
     12  C4         5.1590   33.7000   60.9490 C.ar    0  <0>0       -0.0003
     13  C3         5.6600   34.9870   60.8720 C.ar    0  <0>0       -0.0043
     14  C2         5.2330   35.8420   59.8720 C.ar    0  <0>0       -0.0218
     15  C1         5.7840   37.2430   59.7940 C.3     0  <0>0        0.0310
     16  C7         4.3080   35.4150   58.9410 C.ar    0  <0>0       -0.0022
     17  C11       -1.1930   30.2660   54.4900 C.3     0  <0>0        0.1117
     18  C12       -0.6370   28.8650   54.4660 C.ar    0  <0>0       -0.0131
     19  C17       -0.8610   28.0350   53.3550 C.ar    0  <0>0       -0.0035
     20  C16       -0.3310   26.7210   53.3510 C.ar    0  <0>0       -0.0003
     21  C18       -1.6000   28.4840   52.2460 C.ar    0  <0>0       -0.0003
     22  C15        0.4070   26.2720   54.4590 C.ar    0  <0>0       -0.0000
     23  C21       -0.5550   25.8910   52.2390 C.ar    0  <0>0       -0.0000
     24  C14        0.6030   27.1050   55.5180 C.ar    0  <0>0       -0.0003
     25  C13        0.0770   28.3940   55.5240 C.ar    0  <0>0       -0.0038
     26  C20       -1.2750   26.3590   51.1830 C.ar    0  <0>0       -0.0000
     27  C19       -1.7970   27.6530   51.1870 C.ar    0  <0>0       -0.0000
@<TRIPOS>BOND
     1    26    27   ar
     2    26    23   ar
     3    27    21   ar
     4    23    20   ar
     5    21    19   ar
     6    20    19   ar
     7    20    22   ar
     8    19    18   ar
     9     4     1    1
    10    22    24   ar
    11    18    17    1
    12    18    25   ar
    13    17     2    1
    14     1     2   am
    15     1     5    1
    16    24    25   ar
    17     2     3    2
    18     5     6   ar
    19     5     9   ar
    20     6     7   ar
    21     9     8   ar
    22     7     8   ar
    23     8    10    1
    24    16    10   ar
    25    16    14   ar
    26    10    11   ar
    27    15    14    1
    28    14    13   ar
    29    11    12   ar
    30    13    12   ar

@<TRIPOS>MOLECULE
ZINC41588754_replica-1.pdb
 30 34 0 0 0
SMALL
GASTEIGER

@<TRIPOS>ATOM
      1  C6         0.4690   31.1310   57.7530 C.2     0  <0>0        0.0470
      2  C7         1.4950   32.0290   57.7920 C.2     0  <0>0        0.1845
      3  C8         2.0150   32.6440   58.9630 C.2     0  <0>0        0.2327
      4  O1         1.6430   32.4810   60.1130 O.2     0  <0>0       -0.2832
      5  C9         3.1000   33.5200   58.4890 C.ar    0  <0>0        0.0762
      6  C10        3.9880   34.3840   59.1290 C.ar    0  <0>0        0.0064
      7  C11        4.9110   35.0820   58.3990 C.ar    0  <0>0        0.0280
      8  C12        4.9660   34.9340   57.0170 C.ar    0  <0>0        0.1366
      9  C13        4.0860   34.0790   56.3670 C.ar    0  <0>0        0.0465
     10  C14        3.1450   33.3640   57.0940 C.ar    0  <0>0        0.1474
     11  O2         2.1930   32.4810   56.7240 O.3     0  <0>0       -0.4504
     12  C15        4.1530   33.9280   54.8690 C.3     0  <0>0        0.0374
     13  O3         5.8830   35.6160   56.2820 O.3     0  <0>0       -0.4586
     14  C16        6.5170   36.7350   56.9070 C.3     0  <0>0        0.2850
     15  N1         6.9980   36.3210   58.2360 N.3     0  <0>0       -0.2292
     16  C17        5.8600   36.0120   59.1130 C.3     0  <0>0        0.1053
     17  C18        7.8550   37.3550   58.8310 C.3     0  <0>0        0.0836
     18  C19        8.5050   38.1800   57.7180 C.3     0  <0>0        0.0223
     19  C20        8.9270   36.7000   59.6630 C.ar    0  <0>0       -0.0077
     20  C25        9.5270   35.5340   59.2250 C.ar    0  <0>0       -0.0030
     21  C24       10.5130   34.9370   59.9860 C.ar    0  <0>0       -0.0003
     22  C23       10.8940   35.4990   61.1900 C.ar    0  <0>0       -0.0000
     23  C22       10.2900   36.6620   61.6310 C.ar    0  <0>0       -0.0003
     24  C21        9.3060   37.2620   60.8680 C.ar    0  <0>0       -0.0030
     25  C5         0.0530   30.5880   56.5160 C.ar    0  <0>0        0.0287
     26  C2         0.0370   29.2590   56.1020 C.ar    0  <0>0       -0.0152
     27  C1         0.5010   28.1350   56.9920 C.3     0  <0>0        0.0316
     28  C3        -0.4340   29.0390   54.8310 C.ar    0  <0>0        0.0032
     29  C4        -0.8360   30.0970   54.0840 C.ar    0  <0>0        0.0351
     30  S1        -0.5890   31.4270   55.0810 S.2     0  <0>0       -0.0867
@<TRIPOS>BOND
     1    29    28   ar
     2    29    30   ar
     3    28    26   ar
     4    12     9    1
     5    30    25   ar
     6    26    25   ar
     7    26    27    1
     8    13    14    1
     9    13     8    1
    10     9     8   ar
    11     9    10   ar
    12    25     1    1
    13    11    10    1
    14    11     2    1
    15    14    15    1
    16     8     7   ar
    17    10     5   ar
    18    18    17    1
    19     1     2    2
    20     2     3    1
    21    15    17    1
    22    15    16    1
    23     7    16    1
    24     7     6   ar
    25     5     3    1
    26     5     6   ar
    27    17    19    1
    28     3     4    2
    29    20    19   ar
    30    20    21   ar
    31    19    24   ar
    32    21    22   ar
    33    24    23   ar
    34    22    23   ar

@<TRIPOS>MOLECULE
ZINC11825268_replica-1.pdb
 25 27 0 0 0
SMALL
GASTEIGER

@<TRIPOS>ATOM
      1  C12        5.4390   36.3530   55.9280 C.3     0  <0>0        0.2525
      2  C11        6.8060   36.0940   55.2920 C.3     0  <0>0        0.2525
      3  O1         7.7050   37.1450   55.6510 O.3     0  <0>0       -0.4714
      4  C6         8.1820   37.1410   56.9240 C.ar    0  <0>0        0.1387
      5  C5         8.8260   36.0340   57.3990 C.ar    0  <0>0        0.0369
      6  C4         9.3180   36.0290   58.7140 C.ar    0  <0>0        0.0030
      7  C3         9.9860   34.9090   59.2380 C.ar    0  <0>0        0.0001
      8  C9         9.1410   37.1760   59.5290 C.ar    0  <0>0        0.0002
      9  C2        10.4560   34.9410   60.5140 C.ar    0  <0>0        0.0000
     10  C1        10.2770   36.0650   61.3170 C.ar    0  <0>0        0.0000
     11  C10        9.6360   37.1700   60.8440 C.ar    0  <0>0        0.0000
     12  C8         8.4740   38.2970   59.0060 C.ar    0  <0>0        0.0031
     13  C7         8.0080   38.2710   57.7290 C.ar    0  <0>0        0.0369
     14  O2         5.0270   35.1960   56.6590 O.3     0  <0>0       -0.4714
     15  C13        5.4220   35.1120   57.9550 C.ar    0  <0>0        0.1403
     16  C18        6.0710   33.9600   58.4200 C.ar    0  <0>0        0.0535
     17  C17        6.4730   33.8870   59.7570 C.ar    0  <0>0        0.0048
     18  C16        6.2300   34.9440   60.6060 C.ar    0  <0>0        0.0003
     19  C15        5.5880   36.0810   60.1420 C.ar    0  <0>0        0.0031
     20  C14        5.1910   36.1690   58.8220 C.ar    0  <0>0        0.0370
     21  C19        6.3270   32.8340   57.5060 C.2     0  <0>0        0.0810
     22  S1         7.9360   32.4060   57.1040 S.2     0  <0>0       -0.0351
     23  N1         5.2960   32.1390   56.9860 N.am    0  <0>0       -0.3516
     24  H16        4.3840   32.3810   57.2140 H       0  <0>0        0.1428
     25  H17        5.4640   31.3970   56.3850 H       0  <0>0        0.1428
@<TRIPOS>BOND
     1     2     3    1
     2     2     1    1
     3     3     4    1
     4     1    14    1
     5    25    23    1
     6    14    15    1
     7     4     5   ar
     8     4    13   ar
     9    23    24    1
    10    23    21    1
    11    22    21    2
    12     5     6   ar
    13    21    16    1
    14    13    12   ar
    15    15    16   ar
    16    15    20   ar
    17    16    17   ar
    18     6     7   ar
    19     6     8   ar
    20    20    19   ar
    21    12     8   ar
    22     7     9   ar
    23     8    11   ar
    24    17    18   ar
    25    19    18   ar
    26     9    10   ar
    27    11    10   ar

@<TRIPOS>MOLECULE
ZINC02205546_replica-1.pdb
 26 28 0 0 0
SMALL
GASTEIGER

@<TRIPOS>ATOM
      1  C10       -0.0960   28.8790   55.0090 C.2     0  <0>0        0.2261
      2  O1        -1.2350   28.9580   55.4150 O.2     0  <0>0       -0.2748
      3  N1         0.6960   29.9700   55.0090 N.am    0  <0>0       -0.3037
      4  H13        1.6080   29.9080   54.6850 H       0  <0>0        0.1494
      5  C11        0.1790   31.2500   55.4990 C.3     0  <0>0        0.0941
      6  C12        0.6510   31.4740   56.9380 C.3     0  <0>0        0.0491
      7  C13        0.8610   32.9470   57.1750 C.ar    0  <0>0       -0.0021
      8  C16        1.9240   33.7780   56.6050 C.ar    0  <0>0        0.0128
      9  C15        1.7130   35.0770   57.1050 C.ar    0  <0>0        0.0563
     10  C17        2.9920   33.5300   55.7410 C.ar    0  <0>0       -0.0031
     11  N2         0.6070   35.0210   57.9240 N.ar    0  <0>0       -0.3523
     12  C20        2.5750   36.1000   56.7290 C.ar    0  <0>0        0.0166
     13  C14        0.1130   33.7450   57.9530 C.ar    0  <0>0        0.0681
     14  H2         0.2330   35.7740   58.4080 H       0  <0>0        0.1660
     15  C19        3.6290   35.8320   55.8830 C.ar    0  <0>0       -0.0028
     16  C18        3.8300   34.5510   55.3880 C.ar    0  <0>0       -0.0218
     17  C21        4.9840   34.2810   54.4560 C.3     0  <0>0        0.0310
     18  C3         0.4360   27.5630   54.5040 C.3     0  <0>0        0.0987
     19  C2         0.2370   26.4880   55.5740 C.3     0  <0>0        0.0135
     20  C1         0.8040   26.9840   56.9060 C.3     0  <0>0        0.0009
     21  C4        -0.3050   27.1690   53.2530 C.ar    0  <0>0       -0.0139
     22  C9        -1.0470   28.1100   52.5640 C.ar    0  <0>0       -0.0038
     23  C8        -1.7250   27.7500   51.4140 C.ar    0  <0>0       -0.0003
     24  C7        -1.6670   26.4470   50.9580 C.ar    0  <0>0       -0.0000
     25  C6        -0.9290   25.5040   51.6490 C.ar    0  <0>0       -0.0003
     26  C5        -0.2490   25.8650   52.7970 C.ar    0  <0>0       -0.0038
@<TRIPOS>BOND
     1    24    23   ar
     2    24    25   ar
     3    23    22   ar
     4    25    26   ar
     5    22    21   ar
     6    26    21   ar
     7    21    18    1
     8    17    16    1
     9    18     1    1
    10    18    19    1
    11     4     3    1
    12     1     3   am
    13     1     2    2
    14     3     5    1
    15    16    10   ar
    16    16    15   ar
    17     5     6    1
    18    19    20    1
    19    10     8   ar
    20    15    12   ar
    21     8     9   ar
    22     8     7   ar
    23    12     9   ar
    24     6     7    1
    25     9    11   ar
    26     7    13   ar
    27    11    13   ar
    28    11    14    1

@<TRIPOS>MOLECULE
ZINC39550629_replica-1.pdb
 34 39 0 0 0
SMALL
GASTEIGER

@<TRIPOS>ATOM
      1  C7         0.9420   32.1470   57.6810 C.2     0  <0>0        0.1325
      2  C8         1.8810   32.5550   56.7480 C.3     0  <0>0        0.1469
      3  N1         1.5390   31.9460   55.5630 N.pl3   0  <0>0       -0.3008
      4  H1         2.0040   32.0310   54.7160 H       0  <0>0        0.1498
      5  C9         0.4220   31.1970   55.8010 C.2     0  <0>0        0.1802
      6  N2         0.0810   31.3220   57.0630 N.2     0  <0>0       -0.3895
      7  C16        3.0220   33.4610   56.9790 C.ar    0  <0>0        0.0029
      8  C21        4.3190   32.9510   57.0720 C.ar    0  <0>0        0.0073
      9  C20        5.3830   33.8090   57.2850 C.ar    0  <0>0        0.0638
     10  C19        5.1760   35.1830   57.4060 C.ar    0  <0>0        0.1512
     11  S1         7.0160   33.1570   57.4260 S.3     0  <0>0       -0.0808
     12  C18        3.8790   35.6820   57.3190 C.ar    0  <0>0        0.0378
     13  O2         6.1900   36.0500   57.5960 O.3     0  <0>0       -0.4525
     14  C17        2.8120   34.8360   57.1100 C.ar    0  <0>0        0.0009
     15  C27        7.3670   35.7610   58.1850 C.ar    0  <0>0        0.1512
     16  C22        7.9050   34.4770   58.1850 C.ar    0  <0>0        0.0640
     17  C26        8.0760   36.7870   58.7990 C.ar    0  <0>0        0.0380
     18  C23        9.1330   34.2290   58.7810 C.ar    0  <0>0        0.0095
     19  C24        9.8290   35.2600   59.3850 C.ar    0  <0>0        0.0007
     20  C25        9.2970   36.5360   59.3930 C.ar    0  <0>0        0.0032
     21  C4         0.8990   32.5450   59.1070 C.ar    0  <0>0        0.0274
     22  C3         0.3660   33.7800   59.4750 C.ar    0  <0>0        0.0023
     23  C2         0.3290   34.1450   60.8050 C.ar    0  <0>0        0.0001
     24  C1         0.8200   33.2870   61.7740 C.ar    0  <0>0        0.0000
     25  C6         1.3500   32.0610   61.4160 C.ar    0  <0>0        0.0001
     26  C5         1.3920   31.6860   60.0890 C.ar    0  <0>0        0.0023
     27  C10       -0.2890   30.3740   54.7990 C.ar    0  <0>0        0.0467
     28  C15       -1.3790   30.9010   54.1060 C.ar    0  <0>0        0.0405
     29  C14       -2.0360   30.1250   53.1650 C.ar    0  <0>0        0.1338
     30  C13       -1.6180   28.8240   52.9230 C.ar    0  <0>0        0.0366
     31  C12       -0.5420   28.2970   53.6140 C.ar    0  <0>0        0.0032
     32  C11        0.1240   29.0630   54.5500 C.ar    0  <0>0        0.0040
     33  O1        -3.0940   30.6370   52.4820 O.3     0  <0>0       -0.5055
     34  H11       -3.9430   30.5190   52.9280 H       0  <0>0        0.2922
@<TRIPOS>BOND
     1    33    34    1
     2    33    29    1
     3    30    29   ar
     4    30    31   ar
     5    29    28   ar
     6    31    32   ar
     7    28    27   ar
     8    32    27   ar
     9     4     3    1
    10    27     5    1
    11     3     5    1
    12     3     2    1
    13     5     6    2
    14     2     7    1
    15     2     1    1
    16     7     8   ar
    17     7    14   ar
    18     6     1    2
    19     8     9   ar
    20    14    12   ar
    21     9    10   ar
    22     9    11    1
    23    12    10   ar
    24    10    13    1
    25    11    16    1
    26    13    15    1
    27     1    21    1
    28    16    15   ar
    29    16    18   ar
    30    15    17   ar
    31    18    19   ar
    32    17    20   ar
    33    21    22   ar
    34    21    26   ar
    35    19    20   ar
    36    22    23   ar
    37    26    25   ar
    38    23    24   ar
    39    25    24   ar

@<TRIPOS>MOLECULE
ZINC22309219_replica-1.pdb
 25 28 0 0 0
SMALL
GASTEIGER

@<TRIPOS>ATOM
      1  C1         9.6200   32.8870   60.4910 C.3     0  <0>0        0.0318
      2  C2         9.8500   34.3270   60.8730 C.ar    0  <0>0       -0.0093
      3  C3         8.9700   35.3360   60.4370 C.ar    0  <0>0        0.0750
      4  C4         9.2840   36.6360   60.8520 C.ar    0  <0>0        0.0947
      5  N1         8.5080   37.7030   60.4980 N.ar    0  <0>0       -0.3011
      6  H1         8.7750   38.7150   60.8370 H       0  <0>0        0.1709
      7  C5         7.4130   37.5310   59.7310 C.ar    0  <0>0        0.3347
      8  O1         6.7400   38.4980   59.4290 O.2     0  <0>0       -0.2461
      9  N2         7.0510   36.3140   59.2940 N.ar    0  <0>0       -0.2274
     10  C6         7.7570   35.2110   59.5970 C.ar    0  <0>0        0.2696
     11  O2         7.4050   34.1220   59.1820 O.2     0  <0>0       -0.2664
     12  S1        10.7160   36.4470   61.7910 S.2     0  <0>0       -0.0700
     13  C13       10.9090   34.6800   61.6440 C.ar    0  <0>0        0.0270
     14  C7         5.9040   36.1910   58.4980 C.ar    0  <0>0        0.0711
     15  C12        4.6600   36.0260   59.0920 C.ar    0  <0>0        0.0178
     16  C11        3.5320   35.9040   58.3060 C.ar    0  <0>0        0.0015
     17  C10        3.6400   35.9460   56.9280 C.ar    0  <0>0        0.0001
     18  C9         4.8770   36.1100   56.3330 C.ar    0  <0>0        0.0015
     19  C8         6.0090   36.2390   57.1140 C.ar    0  <0>0        0.0178
     20  C14       11.9600   33.8150   62.2190 C.ar    0  <0>0        0.0057
     21  C19       13.3000   34.1980   62.1500 C.ar    0  <0>0        0.0005
     22  C18       14.2760   33.3860   62.6880 C.ar    0  <0>0        0.0000
     23  C17       13.9290   32.1930   63.2970 C.ar    0  <0>0        0.0000
     24  C16       12.6020   31.8060   63.3690 C.ar    0  <0>0        0.0000
     25  C15       11.6160   32.6130   62.8400 C.ar    0  <0>0        0.0005
@<TRIPOS>BOND
     1    18    17   ar
     2    18    19   ar
     3    17    16   ar
     4    19    14   ar
     5    16    15   ar
     6    14    15   ar
     7    14     9    1
     8    11    10    2
     9     9    10   ar
    10     9     7   ar
    11     8     7    2
    12    10     3   ar
    13     7     5   ar
    14     3     4   ar
    15     3     2   ar
    16     1     2    1
    17     5     6    1
    18     5     4   ar
    19     4    12   ar
    20     2    13   ar
    21    13    12   ar
    22    13    20    1
    23    21    20   ar
    24    21    22   ar
    25    20    25   ar
    26    22    23   ar
    27    25    24   ar
    28    23    24   ar

@<TRIPOS>MOLECULE
ZINC07666000_replica-1.pdb
 24 26 0 0 0
SMALL
GASTEIGER

@<TRIPOS>ATOM
      1  N1         0.3070   30.7560   58.0650 N.pl3   0  <0>0       -0.2121
      2  C8        -0.4490   31.1820   57.0910 C.2     0  <0>0        0.1464
      3  N2        -0.3450   32.4840   56.6600 N.2     0  <0>0       -0.3804
      4  H8         0.3810   33.0440   56.9770 H       0  <0>0        0.1576
      5  H9        -0.9980   32.8420   56.0380 H       0  <0>0        0.1576
      6  S1        -1.6040   30.0910   56.3300 S.3     0  <0>0       -0.0762
      7  C9        -0.8090   29.8670   54.7190 C.3     0  <0>0        0.0911
      8  C10       -0.3770   28.4300   54.5680 C.ar    0  <0>0       -0.0109
      9  C15       -0.6960   27.7160   53.4010 C.ar    0  <0>0       -0.0031
     10  C14       -0.2780   26.3680   53.2750 C.ar    0  <0>0       -0.0003
     11  C16       -1.4100   28.3160   52.3500 C.ar    0  <0>0       -0.0003
     12  C13        0.4400   25.7680   54.3250 C.ar    0  <0>0       -0.0000
     13  C19       -0.5920   25.6550   52.1060 C.ar    0  <0>0       -0.0000
     14  C12        0.7260   26.4900   55.4430 C.ar    0  <0>0       -0.0003
     15  C11        0.3190   27.8160   55.5650 C.ar    0  <0>0       -0.0034
     16  C18       -1.2870   26.2680   51.1100 C.ar    0  <0>0       -0.0000
     17  C17       -1.6960   27.5950   51.2320 C.ar    0  <0>0       -0.0000
     18  C7         1.1680   31.6940   58.7890 C.3     0  <0>0        0.1406
     19  C4         0.6850   31.8240   60.2110 C.ar    0  <0>0       -0.0006
     20  C3         0.6560   33.0630   60.8210 C.ar    0  <0>0       -0.0026
     21  C2         0.2130   33.1810   62.1260 C.ar    0  <0>0       -0.0003
     22  C1        -0.2010   32.0600   62.8190 C.ar    0  <0>0       -0.0000
     23  C6        -0.1720   30.8200   62.2090 C.ar    0  <0>0       -0.0003
     24  C5         0.2660   30.7030   60.9030 C.ar    0  <0>0       -0.0026
@<TRIPOS>BOND
     1    16    17   ar
     2    16    13   ar
     3    17    11   ar
     4    13    10   ar
     5    11     9   ar
     6    10     9   ar
     7    10    12   ar
     8     9     8   ar
     9    12    14   ar
    10     8     7    1
    11     8    15   ar
    12     7     6    1
    13    14    15   ar
    14     5     3    1
    15     6     2    1
    16     3     4    1
    17     3     2    2
    18     2     1    1
    19     1    18    1
    20    18    19    1
    21    19    20   ar
    22    19    24   ar
    23    20    21   ar
    24    24    23   ar
    25    21    22   ar
    26    23    22   ar

@<TRIPOS>MOLECULE
ZINC13389671_replica-1.pdb
 24 25 0 0 0
SMALL
GASTEIGER

@<TRIPOS>ATOM
      1  C11        8.8870   36.9650   59.9330 C.2     0  <0>0        0.2461
      2  O1         8.9750   38.1580   59.7150 O.2     0  <0>0       -0.2701
      3  N1         7.8210   36.2740   59.4840 N.am    0  <0>0       -0.2977
      4  H15        7.7510   35.3220   59.6580 H       0  <0>0        0.1500
      5  C8         9.9510   36.2720   60.6910 C.ar    0  <0>0        0.0533
      6  C7        10.4440   36.8260   61.8740 C.ar    0  <0>0        0.0042
      7  C6        11.4370   36.1740   62.5760 C.ar    0  <0>0       -0.0041
      8  C5        11.9430   34.9740   62.1100 C.ar    0  <0>0       -0.0222
      9  C10       11.4590   34.4190   60.9390 C.ar    0  <0>0       -0.0041
     10  C9        10.4630   35.0580   60.2300 C.ar    0  <0>0        0.0042
     11  C4        13.0280   34.2670   62.8830 C.3     0  <0>0        0.0263
     12  C2        12.8690   32.7550   62.7190 C.3     0  <0>0        0.0044
     13  C1        13.9860   32.0390   63.4790 C.3     0  <0>0        0.0003
     14  C3        11.5120   32.3220   63.2780 C.3     0  <0>0        0.0003
     15  C12        6.7670   36.9600   58.7320 C.3     0  <0>0        0.1116
     16  C13        5.3980   36.4840   59.2230 C.3     0  <0>0        0.1386
     17  C14        5.5400   35.1310   59.8720 C.2     0  <0>0        0.3669
     18  O2         5.5670   35.0390   61.0770 O.co2   0  <0>0       -0.2456
     19  O3         5.6290   34.0280   59.1130 O.co2   0  <0>0       -0.2456
     20  C15        6.9120   36.6490   57.2650 C.ar    0  <0>0        0.0256
     21  S1         5.6830   36.0490   56.1170 S.2     0  <0>0       -0.0891
     22  C18        6.7130   35.9770   54.6610 C.ar    0  <0>0        0.0352
     23  C17        7.9070   36.4020   55.1410 C.ar    0  <0>0        0.0072
     24  C16        8.0090   36.7470   56.4760 C.ar    0  <0>0        0.0043
@<TRIPOS>BOND
     1    22    23   ar
     2    22    21   ar
     3    23    24   ar
     4    21    20   ar
     5    24    20   ar
     6    20    15    1
     7    15    16    1
     8    15     3    1
     9    19    17   ar
    10    16    17    1
    11     3     4    1
    12     3     1   am
    13     2     1    2
    14    17    18   ar
    15     1     5    1
    16    10     5   ar
    17    10     9   ar
    18     5     6   ar
    19     9     8   ar
    20     6     7   ar
    21     8     7   ar
    22     8    11    1
    23    12    11    1
    24    12    14    1
    25    12    13    1

@<TRIPOS>MOLECULE
ZINC36995241_replica-1.pdb
 22 22 0 0 0
SMALL
GASTEIGER

@<TRIPOS>ATOM
      1  C8        -0.1560   28.0750   55.6040 C.ar    0  <0>0        0.0405
      2  C9         0.4290   26.8640   55.2580 C.ar    0  <0>0        0.0137
      3  C10        0.2760   26.3640   53.9790 C.ar    0  <0>0       -0.0030
      4  C11       -0.4600   27.0690   53.0440 C.ar    0  <0>0       -0.0227
      5  C12       -1.0430   28.2760   53.3840 C.ar    0  <0>0       -0.0073
      6  C13       -0.8990   28.7780   54.6630 C.ar    0  <0>0       -0.0097
      7  N1        -0.0030   28.5830   56.8960 N.pl3   0  <0>0       -0.3342
      8  H16        0.0710   29.5390   57.0350 H       0  <0>0        0.1468
      9  C2         0.0450   27.6700   58.0410 C.3     0  <0>0        0.0714
     10  C1         1.4100   27.7780   58.7230 C.3     0  <0>0        0.0212
     11  C3        -1.0540   28.0430   59.0370 C.3     0  <0>0        0.0467
     12  C4        -2.1390   26.9640   59.0290 C.3     0  <0>0        0.0946
     13  C5        -2.9240   27.0200   60.3410 C.3     0  <0>0        0.0297
     14  C6        -3.0890   27.2050   57.8550 C.3     0  <0>0        0.0297
     15  O1        -1.5300   25.6780   58.8940 O.3     0  <0>0       -0.3558
     16  C7        -1.3430   24.9900   60.1320 C.3     0  <0>0        0.1739
     17  C14       -1.5410   30.0890   55.0360 C.3     0  <0>0        0.0235
     18  C15       -0.5880   31.2380   54.6980 C.3     0  <0>0        0.0047
     19  C16       -2.8440   30.2600   54.2520 C.3     0  <0>0        0.0047
     20  C17       -0.6240   26.5220   51.6500 C.3     0  <0>0        0.0223
     21  C18       -0.8070   25.0050   51.7150 C.3     0  <0>0        0.0047
     22  C19       -1.8540   27.1560   50.9950 C.3     0  <0>0        0.0047
@<TRIPOS>BOND
     1    22    20    1
     2    20    21    1
     3    20     4    1
     4     4     5   ar
     5     4     3   ar
     6     5     6   ar
     7     3     2   ar
     8    19    17    1
     9     6    17    1
    10     6     1   ar
    11    18    17    1
    12     2     1   ar
    13     1     7    1
    14     7     8    1
    15     7     9    1
    16    14    12    1
    17     9    10    1
    18     9    11    1
    19    15    12    1
    20    15    16    1
    21    12    11    1
    22    12    13    1

@<TRIPOS>MOLECULE
ZINC02792541_replica-1.pdb
 24 26 0 0 0
SMALL
GASTEIGER

@<TRIPOS>ATOM
      1  C8         0.4840   30.3610   55.7420 C.2     0  <0>0        0.2135
      2  N2         0.5280   31.6720   55.7330 N.2     0  <0>0       -0.3839
      3  C9         0.6240   32.4050   56.8660 C.2     0  <0>0        0.1256
      4  C10        0.6810   33.8120   56.9920 C.2     0  <0>0        0.0319
      5  C11        0.7780   34.4020   58.2240 C.2     0  <0>0        0.0391
      6  C12        0.8250   33.6440   59.3910 C.2     0  <0>0        0.1414
      7  C13        0.7720   32.2610   59.3010 C.2     0  <0>0        0.0289
      8  C14        0.6740   31.6660   58.0690 C.3     0  <0>0        0.1325
      9  S1         0.5810   29.9890   57.4870 S.3     0  <0>0       -0.0560
     10  N1         0.3870   29.4880   54.6730 N.am    0  <0>0       -0.2509
     11  C7        -0.7590   28.8120   54.4560 C.2     0  <0>0        0.2525
     12  O1        -1.7070   28.9690   55.2000 O.2     0  <0>0       -0.2697
     13  H5         1.1430   29.3620   54.0790 H       0  <0>0        0.1580
     14  C5        -0.8620   27.8800   53.3150 C.ar    0  <0>0        0.0643
     15  C4        -0.3070   26.6010   53.4000 C.ar    0  <0>0        0.0620
     16  C3        -0.4080   25.7350   52.3280 C.ar    0  <0>0        0.0115
     17 Cl          0.5080   26.1000   54.8480 Cl      0  <0>0       -0.0821
     18  C2        -1.0560   26.1330   51.1730 C.ar    0  <0>0        0.0009
     19  C1        -1.6090   27.3990   51.0830 C.ar    0  <0>0        0.0002
     20  C6        -1.5210   28.2720   52.1470 C.ar    0  <0>0        0.0054
     21  O2         0.9230   34.2520   60.6030 O.2     0  <0>0       -0.4239
     22  C15       -0.0470   33.8930   61.5880 C.3     0  <0>0        0.5086
     23  F1         0.5960   33.3120   62.6870 F       0  <0>0       -0.1550
     24  F2        -0.7350   35.0380   62.0050 F       0  <0>0       -0.1550
@<TRIPOS>BOND
     1    19    18   ar
     2    19    20   ar
     3    18    16   ar
     4    20    14   ar
     5    16    15   ar
     6    14    15   ar
     7    14    11    1
     8    15    17    1
     9    13    10    1
    10    11    10   am
    11    11    12    2
    12    10     1    1
    13     2     1    2
    14     2     3    2
    15     1     9    1
    16     3     4    1
    17     3     8    1
    18     4     5    2
    19     9     8    1
    20     8     7    1
    21     5     6    1
    22     7     6    2
    23     6    21    1
    24    21    22    1
    25    22    24    1
    26    22    23    1

@<TRIPOS>MOLECULE
ZINC00504435_replica-1.pdb
 28 31 0 0 0
SMALL
GASTEIGER

@<TRIPOS>ATOM
      1  C12        5.6970   34.5380   54.1410 C.3     0  <0>0        0.1735
      2  C11        5.9290   35.8530   54.8860 C.3     0  <0>0        0.2361
      3  O1         7.3320   36.1060   54.9820 O.3     0  <0>0       -0.4728
      4  C6         7.8200   36.4210   56.2100 C.ar    0  <0>0        0.1387
      5  C5         8.5400   35.4930   56.9080 C.ar    0  <0>0        0.0369
      6  C4         9.0440   35.8170   58.1770 C.ar    0  <0>0        0.0030
      7  C3         9.7900   34.8890   58.9240 C.ar    0  <0>0        0.0001
      8  C9         8.7990   37.1050   58.7170 C.ar    0  <0>0        0.0002
      9  C2        10.2640   35.2370   60.1510 C.ar    0  <0>0        0.0000
     10  C1        10.0220   36.5040   60.6810 C.ar    0  <0>0        0.0000
     11  C10        9.3060   37.4290   59.9860 C.ar    0  <0>0        0.0000
     12  C8         8.0540   38.0360   57.9700 C.ar    0  <0>0        0.0031
     13  C7         7.5840   37.6930   56.7410 C.ar    0  <0>0        0.0369
     14  C13        5.6830   33.3800   55.1420 C.3     0  <0>0        0.1206
     15  N1         5.0370   33.8160   56.3830 N.pl3   0  <0>0       -0.3306
     16  H13        4.1820   34.2710   56.3510 H       0  <0>0        0.1469
     17  C14        5.6530   33.5770   57.6090 C.ar    0  <0>0        0.0447
     18  C19        5.6440   34.5660   58.6170 C.ar    0  <0>0        0.0131
     19  C18        6.2800   34.3020   59.8540 C.ar    0  <0>0        0.0012
     20  C20        5.0200   35.8060   58.4130 C.ar    0  <0>0        0.0012
     21  C17        6.9010   33.0580   60.0620 C.ar    0  <0>0        0.0001
     22  C23        6.2670   35.2850   60.8580 C.ar    0  <0>0        0.0000
     23  C16        6.8950   32.1220   59.0730 C.ar    0  <0>0        0.0013
     24  C15        6.2770   32.3710   57.8520 C.ar    0  <0>0        0.0143
     25  C22        5.6510   36.4770   60.6260 C.ar    0  <0>0        0.0000
     26  C21        5.0300   36.7370   59.4060 C.ar    0  <0>0        0.0000
     27  O2         4.4440   34.5920   53.4570 O.3     0  <0>0       -0.3791
     28  H21        4.4210   35.2250   52.7260 H       0  <0>0        0.2106
@<TRIPOS>BOND
     1    28    27    1
     2    27     1    1
     3     1     2    1
     4     1    14    1
     5     2     3    1
     6     3     4    1
     7    14    15    1
     8     4    13   ar
     9     4     5   ar
    10    16    15    1
    11    15    17    1
    12    13    12   ar
    13     5     6   ar
    14    17    24   ar
    15    17    18   ar
    16    24    23   ar
    17    12     8   ar
    18     6     8   ar
    19     6     7   ar
    20    20    18   ar
    21    20    26   ar
    22    18    19   ar
    23     8    11   ar
    24     7     9   ar
    25    23    21   ar
    26    26    25   ar
    27    19    21   ar
    28    19    22   ar
    29    11    10   ar
    30     9    10   ar
    31    25    22   ar

@<TRIPOS>MOLECULE
ZINC08415898_replica-1.pdb
 26 29 0 0 0
SMALL
GASTEIGER

@<TRIPOS>ATOM
      1  N1         0.8960   32.0520   58.2170 N.am    0  <0>0       -0.1977
      2  C8         0.5020   31.6630   57.0160 C.2     0  <0>0        0.2647
      3  O1         0.6640   32.3470   56.0280 O.2     0  <0>0       -0.2713
      4  C9        -0.1660   30.2960   56.9590 C.3     0  <0>0        0.2048
      5  S1        -0.0940   29.8370   58.7360 S.3     0  <0>0       -0.0279
      6  C10        0.7220   31.3130   59.3280 C.2     0  <0>0        0.2877
      7  O2         1.0450   31.5850   60.4670 O.2     0  <0>0       -0.2619
      8  N2         0.5990   29.3580   56.1340 N.pl3   0  <0>0       -0.3183
      9  H9         1.4960   29.1000   56.3970 H       0  <0>0        0.1480
     10  C11        0.0360   28.8360   54.9680 C.ar    0  <0>0        0.0455
     11  C20        0.3080   27.5350   54.6040 C.ar    0  <0>0        0.0143
     12  C19       -0.2590   27.0110   53.4310 C.ar    0  <0>0        0.0012
     13  C14       -1.1020   27.8320   52.6390 C.ar    0  <0>0        0.0001
     14  C18       -0.0060   25.6890   53.0260 C.ar    0  <0>0        0.0000
     15  C13       -1.3580   29.1550   53.0400 C.ar    0  <0>0        0.0013
     16  C15       -1.6680   27.3060   51.4650 C.ar    0  <0>0        0.0000
     17  C12       -0.8020   29.6370   54.1820 C.ar    0  <0>0        0.0143
     18  C16       -1.4020   26.0200   51.1050 C.ar    0  <0>0        0.0000
     19  C17       -0.5730   25.2140   51.8840 C.ar    0  <0>0        0.0000
     20  C7         1.5230   33.3000   58.3390 C.ar    0  <0>0        0.0575
     21  C2         2.8970   33.4070   58.1640 C.ar    0  <0>0       -0.0077
     22  C1         3.7140   32.1830   57.8420 C.3     0  <0>0        0.0323
     23  C3         3.5120   34.6380   58.2830 C.ar    0  <0>0       -0.0030
     24  C4         2.7630   35.7620   58.5770 C.ar    0  <0>0       -0.0002
     25  C5         1.3950   35.6580   58.7530 C.ar    0  <0>0        0.0013
     26  C6         0.7730   34.4290   58.6340 C.ar    0  <0>0        0.0150
@<TRIPOS>BOND
     1    18    16   ar
     2    18    19   ar
     3    16    13   ar
     4    19    14   ar
     5    13    15   ar
     6    13    12   ar
     7    14    12   ar
     8    15    17   ar
     9    12    11   ar
    10    17    10   ar
    11    11    10   ar
    12    10     8    1
    13     3     2    2
    14     8     9    1
    15     8     4    1
    16     4     2    1
    17     4     5    1
    18     2     1   am
    19    22    21    1
    20    21    23   ar
    21    21    20   ar
    22     1    20    1
    23     1     6   am
    24    23    24   ar
    25    20    26   ar
    26    24    25   ar
    27    26    25   ar
    28     5     6    1
    29     6     7    2

@<TRIPOS>MOLECULE
ZINC35316383_replica-1.pdb
 25 28 0 0 0
SMALL
GASTEIGER

@<TRIPOS>ATOM
      1  C8         8.1860   36.9150   58.8190 C.3     0  <0>0        0.0624
      2  C9         8.5360   36.5540   57.3690 C.3     0  <0>0        0.0947
      3  C10        7.3350   36.7000   56.4780 C.2     0  <0>0        0.2268
      4  O2         7.4930   37.1390   55.3590 O.2     0  <0>0       -0.2748
      5  N1         6.0900   36.3650   56.8680 N.am    0  <0>0       -0.2825
      6  C11        5.8700   36.0530   58.2350 C.ar    0  <0>0        0.0725
      7  C12        6.8580   36.3090   59.1460 C.ar    0  <0>0        0.0443
      8  S1         6.2300   35.8070   60.6000 S.2     0  <0>0        0.0102
      9  N2         4.7150   35.3000   60.0980 N.ar    0  <0>0       -0.2082
     10  C13        4.7120   35.5130   58.7950 C.ar    0  <0>0        0.1027
     11  H11        5.3620   36.3360   56.2290 H       0  <0>0        0.1549
     12  C5         9.2380   36.3640   59.7470 C.ar    0  <0>0       -0.0171
     13  C4         9.8120   35.1340   59.4880 C.ar    0  <0>0       -0.0008
     14  C3        10.7760   34.6270   60.3370 C.ar    0  <0>0        0.0366
     15  C2        11.1680   35.3540   61.4520 C.ar    0  <0>0        0.1387
     16  C7        10.5860   36.5850   61.7150 C.ar    0  <0>0        0.0366
     17  C6         9.6250   37.0900   60.8580 C.ar    0  <0>0       -0.0008
     18  O1        12.1170   34.8570   62.2900 O.3     0  <0>0       -0.4714
     19  C1        12.0580   33.4590   62.5800 C.3     0  <0>0        0.2525
     20  C14        3.5270   35.1960   57.9620 C.ar    0  <0>0        0.0195
     21  C19        2.4530   36.0820   57.9080 C.ar    0  <0>0        0.0016
     22  C18        1.3540   35.7830   57.1270 C.ar    0  <0>0        0.0000
     23  C17        1.3140   34.6010   56.4090 C.ar    0  <0>0        0.0000
     24  C16        2.3750   33.7160   56.4630 C.ar    0  <0>0        0.0000
     25  C15        3.4810   34.0070   57.2350 C.ar    0  <0>0        0.0016
@<TRIPOS>BOND
     1     4     3    2
     2    11     5    1
     3    23    24   ar
     4    23    22   ar
     5    24    25   ar
     6     3     5   am
     7     3     2    1
     8     5     6    1
     9    22    21   ar
    10    25    20   ar
    11     2     1    1
    12    21    20   ar
    13    20    10    1
    14     6    10   ar
    15     6     7   ar
    16    10     9   ar
    17     1     7    1
    18     1    12    1
    19     7     8   ar
    20    13    12   ar
    21    13    14   ar
    22    12    17   ar
    23     9     8   ar
    24    14    15   ar
    25    17    16   ar
    26    15    16   ar
    27    15    18    1
    28    18    19    1

@<TRIPOS>MOLECULE
ZINC62771813_replica-1.pdb
 21 22 0 0 0
SMALL
GASTEIGER

@<TRIPOS>ATOM
      1  C1         8.6550   32.2070   60.3800 C.3     0  <0>0        0.0324
      2  C2         9.6530   33.2290   60.8630 C.ar    0  <0>0       -0.0057
      3  C3        10.5720   32.8910   61.8370 C.ar    0  <0>0        0.0339
      4  C4        11.4890   33.8320   62.2810 C.ar    0  <0>0        0.1381
      5  C5        11.4850   35.1120   61.7480 C.ar    0  <0>0        0.0381
      6  C6        10.5660   35.4520   60.7740 C.ar    0  <0>0        0.0171
      7  C7         9.6510   34.5090   60.3240 C.ar    0  <0>0        0.0408
      8  N1         8.7240   34.8500   59.3330 N.pl3   0  <0>0       -0.3338
      9  H8         7.7780   34.6950   59.4800 H       0  <0>0        0.1468
     10  C8         9.1830   35.4420   58.0740 C.3     0  <0>0        0.0766
     11  C9         8.7620   34.5450   56.9070 C.3     0  <0>0        0.0216
     12  C10        8.5570   36.8280   57.9030 C.3     0  <0>0        0.0839
     13  C11        7.3050   36.9190   58.7360 C.ar    0  <0>0        0.1247
     14  O1         6.2220   36.1350   58.6170 O.2     0  <0>0       -0.4546
     15  C14        5.3020   36.4990   59.5250 C.ar    0  <0>0        0.1791
     16  C13        5.7900   37.5350   60.2320 C.ar    0  <0>0        0.0434
     17  C12        7.0810   37.8050   59.7230 C.ar    0  <0>0        0.0362
     18  O2        12.3940   33.4980   63.2410 O.3     0  <0>0       -0.4792
     19  C15       13.4870   32.6680   62.8410 C.3     0  <0>0        0.1661
     20  C16       14.7800   33.4840   62.8600 C.3     0  <0>0        0.0472
     21  C17       13.6120   31.4900   63.8100 C.3     0  <0>0        0.0472
@<TRIPOS>BOND
     1    11    10    1
     2    12    10    1
     3    12    13    1
     4    10     8    1
     5    14    13   ar
     6    14    15   ar
     7    13    17   ar
     8     8     9    1
     9     8     7    1
    10    15    16   ar
    11    17    16   ar
    12     7     6   ar
    13     7     2   ar
    14     1     2    1
    15     6     5   ar
    16     2     3   ar
    17     5     4   ar
    18     3     4   ar
    19     4    18    1
    20    19    20    1
    21    19    18    1
    22    19    21    1

@<TRIPOS>MOLECULE
ZINC49181380_replica-1.pdb
 21 22 0 0 0
SMALL
GASTEIGER

@<TRIPOS>ATOM
      1  C7         0.8110   32.3190   56.8270 C.2     0  <0>0        0.2516
      2  O1         1.8720   31.9890   56.3330 O.2     0  <0>0       -0.2696
      3  N1        -0.3420   32.0720   56.1730 N.am    0  <0>0       -0.3001
      4  H8        -1.1890   32.3350   56.5670 H       0  <0>0        0.1498
      5  C8        -0.3160   31.4070   54.8680 C.3     0  <0>0        0.0944
      6  C9        -1.6210   30.6350   54.6620 C.3     0  <0>0        0.0473
      7  C10       -1.3490   29.3950   53.8510 C.ar    0  <0>0       -0.0244
      8  C15       -2.0370   29.1760   52.6730 C.ar    0  <0>0       -0.0261
      9  C14       -1.7840   28.0390   51.9270 C.ar    0  <0>0       -0.0088
     10  C16       -3.0580   30.1770   52.1980 C.3     0  <0>0        0.0307
     11  C13       -0.8500   27.1190   52.3640 C.ar    0  <0>0       -0.0222
     12  C12       -0.1670   27.3350   53.5460 C.ar    0  <0>0       -0.0046
     13  C17       -0.5780   25.8780   51.5520 C.3     0  <0>0        0.0310
     14  C11       -0.4170   28.4730   54.2900 C.ar    0  <0>0       -0.0048
     15  C6         0.7840   32.9840   58.1320 C.ar    0  <0>0        0.0788
     16  C3         0.6870   34.3380   58.4220 C.ar    0  <0>0       -0.0113
     17  C4         0.6810   34.6640   59.7570 C.ar    0  <0>0        0.0033
     18  C5         0.7740   33.6730   60.6780 C.ar    0  <0>0        0.0353
     19  S1         0.8720   32.2670   59.7630 S.2     0  <0>0       -0.0822
     20  C2         0.5870   35.3830   57.3410 C.3     0  <0>0        0.0270
     21  C1         1.9590   36.0250   57.1240 C.3     0  <0>0        0.0050
@<TRIPOS>BOND
     1    13    11    1
     2     9    11   ar
     3     9     8   ar
     4    10     8    1
     5    11    12   ar
     6     8     7   ar
     7    12    14   ar
     8     7    14   ar
     9     7     6    1
    10     6     5    1
    11     5     3    1
    12     3     4    1
    13     3     1   am
    14     2     1    2
    15     1    15    1
    16    21    20    1
    17    20    16    1
    18    15    16   ar
    19    15    19   ar
    20    16    17   ar
    21    17    18   ar
    22    19    18   ar

@<TRIPOS>MOLECULE
ZINC00273821_replica-1.pdb
 24 27 0 0 0
SMALL
GASTEIGER

@<TRIPOS>ATOM
      1  C10       -0.1310   29.4150   55.1430 C.ar    0  <0>0        0.1116
      2  C11        0.2660   28.0940   55.0590 C.ar    0  <0>0        0.0126
      3  C12       -0.1410   27.3290   53.9360 C.ar    0  <0>0        0.0352
      4  C13        0.2460   25.9850   53.8200 C.ar    0  <0>0        0.0061
      5  C14       -0.1470   25.2540   52.7400 C.ar    0  <0>0        0.0368
      6  C15       -0.9330   25.8320   51.7440 C.ar    0  <0>0        0.1367
      7  C16       -1.3250   27.1570   51.8400 C.ar    0  <0>0        0.0742
      8  C17       -0.9340   27.9190   52.9340 C.ar    0  <0>0        0.1517
      9  O1        -1.3170   29.2100   53.0250 O.2     0  <0>0       -0.4209
     10  C18       -0.9570   29.9760   54.0680 C.ar    0  <0>0        0.3487
     11  O2        -1.3170   31.1370   54.1230 O.2     0  <0>0       -0.2444
     12  C9         0.2710   30.2460   56.2930 C.2     0  <0>0        0.1632
     13  S1         0.2540   29.8520   58.0360 S.3     0  <0>0       -0.0746
     14  C8         0.8910   31.4150   58.6250 C.3     0  <0>0        0.1233
     15  C7         1.0490   32.0870   57.4420 C.2     0  <0>0        0.1208
     16  N1         0.7360   31.4870   56.3080 N.2     0  <0>0       -0.3989
     17  C4         1.5680   33.4770   57.4340 C.ar    0  <0>0        0.0263
     18  C3         2.3890   33.9110   56.3950 C.ar    0  <0>0        0.0022
     19  C2         2.8700   35.2050   56.3930 C.ar    0  <0>0        0.0001
     20  C1         2.5370   36.0700   57.4210 C.ar    0  <0>0        0.0000
     21  C6         1.7230   35.6450   58.4540 C.ar    0  <0>0        0.0001
     22  C5         1.2320   34.3550   58.4630 C.ar    0  <0>0        0.0022
     23  O3        -1.3220   25.0910   50.6770 O.3     0  <0>0       -0.5054
     24  H11       -0.6390   24.9880   49.9990 H       0  <0>0        0.2922
@<TRIPOS>BOND
     1    24    23    1
     2    23     6    1
     3     6     7   ar
     4     6     5   ar
     5     7     8   ar
     6     5     4   ar
     7     8     9   ar
     8     8     3   ar
     9     9    10   ar
    10     4     3   ar
    11     3     2   ar
    12    10    11    2
    13    10     1   ar
    14     2     1   ar
    15     1    12    1
    16    12    16    2
    17    12    13    1
    18    16    15    2
    19    19    18   ar
    20    19    20   ar
    21    18    17   ar
    22    20    21   ar
    23    17    15    1
    24    17    22   ar
    25    15    14    1
    26    13    14    1
    27    21    22   ar

@<TRIPOS>MOLECULE
ZINC05788809_replica-1.pdb
 21 23 0 0 0
SMALL
GASTEIGER

@<TRIPOS>ATOM
      1  C1        -1.8920   27.4200   50.7320 C.3     0  <0>0        0.0268
      2  C2        -1.2340   27.3860   52.0870 C.2     0  <0>0       -0.0376
      3  C3        -1.3150   28.4810   52.8900 C.2     0  <0>0        0.0244
      4  C4        -0.7100   28.4890   54.1710 C.2     0  <0>0        0.1371
      5  C5        -0.0330   27.3040   54.5460 C.2     0  <0>0        0.0574
      6  C6         0.0420   26.2040   53.7280 C.2     0  <0>0       -0.0133
      7  C7        -0.5630   26.2390   52.4840 C.3     0  <0>0        0.0409
      8  C8        -0.4930   25.0440   51.5700 C.3     0  <0>0        0.0091
      9  S1         0.5670   27.7090   56.1690 S.3     0  <0>0       -0.0532
     10  C9        -0.0980   29.3670   56.2430 C.2     0  <0>0        0.1611
     11  N1        -0.7040   29.4770   55.0770 N.2     0  <0>0       -0.3949
     12  C10        0.0010   30.3510   57.3260 C.2     0  <0>0        0.0389
     13  C11        0.6310   31.5220   57.1150 C.2     0  <0>0        0.0033
     14  C12        0.7300   32.5110   58.2030 C.ar    0  <0>0        0.0031
     15  C17        0.9800   33.8530   57.9100 C.ar    0  <0>0        0.0366
     16  C16        1.0720   34.7760   58.9390 C.ar    0  <0>0        0.1337
     17  C15        0.9150   34.3660   60.2560 C.ar    0  <0>0        0.0366
     18  C14        0.6730   33.0360   60.5490 C.ar    0  <0>0        0.0031
     19  C13        0.5740   32.1080   59.5330 C.ar    0  <0>0        0.0002
     20  O1         1.3150   36.0820   58.6580 O.3     0  <0>0       -0.5055
     21  H15        0.7990   36.4280   57.9160 H       0  <0>0        0.2922
@<TRIPOS>BOND
     1     1     2    1
     2     8     7    1
     3     2     7    1
     4     2     3    2
     5     7     6    1
     6     3     4    1
     7     6     5    2
     8     4     5    1
     9     4    11    2
    10     5     9    1
    11    11    10    2
    12     9    10    1
    13    10    12    1
    14    13    12    2
    15    13    14    1
    16    15    14   ar
    17    15    16   ar
    18    21    20    1
    19    14    19   ar
    20    20    16    1
    21    16    17   ar
    22    19    18   ar
    23    17    18   ar

@<TRIPOS>MOLECULE
ZINC20560531_replica-1.pdb
 20 20 0 0 0
SMALL
GASTEIGER

@<TRIPOS>ATOM
      1  C9        -0.5000   27.9970   53.6120 C.ar    0  <0>0        0.0485
      2  C10       -0.0890   26.7560   53.1400 C.ar    0  <0>0        0.0142
      3  C11       -0.6290   26.2500   51.9740 C.ar    0  <0>0        0.0012
      4  C12       -1.5790   26.9760   51.2780 C.ar    0  <0>0        0.0000
      5  C13       -1.9900   28.2110   51.7450 C.ar    0  <0>0        0.0051
      6  C14       -1.4530   28.7230   52.9100 C.ar    0  <0>0        0.0845
      7  N1         0.0440   28.5120   54.7920 N.pl3   0  <0>0       -0.3341
      8  H18        0.7920   29.3160   54.7470 H       0  <0>0        0.1468
      9  C6        -0.3830   27.9790   56.0880 C.3     0  <0>0        0.0690
     10  C5        -0.5410   29.1290   57.0850 C.3     0  <0>0        0.0195
     11  C3        -1.8390   28.9460   57.8730 C.3     0  <0>0        0.0016
     12  C4        -2.7940   28.0500   57.0820 C.3     0  <0>0        0.0001
     13  C2        -1.5280   28.2940   59.2230 C.3     0  <0>0        0.0001
     14  C1        -2.3520   27.0150   59.3730 C.3     0  <0>0        0.0000
     15  C7         0.6680   26.9950   56.6070 C.3     0  <0>0        0.0195
     16  C8         0.0260   25.6200   56.8050 C.3     0  <0>0        0.0017
     17  C15       -1.9010   30.0690   53.4190 C.3     0  <0>0        0.4197
     18  F1        -0.7820   30.8460   53.7320 F       0  <0>0       -0.1658
     19  F2        -2.6550   30.7130   52.4300 F       0  <0>0       -0.1658
     20  F3        -2.6860   29.8970   54.5640 F       0  <0>0       -0.1658
@<TRIPOS>BOND
     1     4     5   ar
     2     4     3   ar
     3     5     6   ar
     4     3     2   ar
     5    19    17    1
     6     6    17    1
     7     6     1   ar
     8     2     1   ar
     9    17    18    1
    10    17    20    1
    11     1     7    1
    12     8     7    1
    13     7     9    1
    14     9    15    1
    15     9    10    1
    16    15    16    1
    17    12    11    1
    18    10    11    1
    19    11    13    1
    20    13    14    1

@<TRIPOS>MOLECULE
ZINC62771963_replica-1.pdb
 21 22 0 0 0
SMALL
GASTEIGER

@<TRIPOS>ATOM
      1  C8         0.1340   27.3660   54.7560 C.ar    0  <0>0        0.0447
      2  C9         0.5630   26.0460   54.7400 C.ar    0  <0>0        0.0166
      3  C10        0.3060   25.2500   53.6410 C.ar    0  <0>0        0.0308
      4  C11       -0.3800   25.7680   52.5550 C.ar    0  <0>0        0.1441
      5  C12       -0.8090   27.0840   52.5680 C.ar    0  <0>0        0.1000
      6  C13       -0.5590   27.8820   53.6670 C.ar    0  <0>0        0.0204
      7  F4        -0.6300   24.9880   51.4810 F       0  <0>0       -0.2042
      8  N1         0.3930   28.1740   55.8670 N.pl3   0  <0>0       -0.3336
      9  H10        0.7450   29.0690   55.7450 H       0  <0>0        0.1468
     10  C2         0.1310   27.6680   57.2170 C.3     0  <0>0        0.0766
     11  C1         1.0130   28.4130   58.2210 C.3     0  <0>0        0.0216
     12  C3        -1.3410   27.8900   57.5680 C.3     0  <0>0        0.0839
     13  C4        -1.8540   29.1050   56.8380 C.ar    0  <0>0        0.1247
     14  O1        -1.2340   30.2940   56.7560 O.2     0  <0>0       -0.4546
     15  C7        -1.9780   31.1380   56.0250 C.ar    0  <0>0        0.1791
     16  C6        -3.0940   30.4950   55.6370 C.ar    0  <0>0        0.0434
     17  C5        -3.0150   29.1850   56.1610 C.ar    0  <0>0        0.0362
     18  C14       -1.5550   27.6450   51.3850 C.3     0  <0>0        0.4207
     19  F1        -2.1510   28.8590   51.7430 F       0  <0>0       -0.1658
     20  F2        -0.6620   27.8570   50.3290 F       0  <0>0       -0.1658
     21  F3        -2.5440   26.7390   50.9850 F       0  <0>0       -0.1658
@<TRIPOS>BOND
     1    20    18    1
     2    21    18    1
     3    18    19    1
     4    18     5    1
     5     7     4    1
     6     4     5   ar
     7     4     3   ar
     8     5     6   ar
     9     3     2   ar
    10     6     1   ar
    11     2     1   ar
    12     1     8    1
    13    16    15   ar
    14    16    17   ar
    15     9     8    1
    16     8    10    1
    17    15    14   ar
    18    17    13   ar
    19    14    13   ar
    20    13    12    1
    21    10    12    1
    22    10    11    1

@<TRIPOS>MOLECULE
ZINC37009275_replica-1.pdb
 23 23 0 0 0
SMALL
GASTEIGER

@<TRIPOS>ATOM
      1  N2         0.1650   29.2890   55.8050 N.pl3   0  <0>0       -0.3270
      2  H15        0.6430   29.1210   56.6320 H       0  <0>0        0.1472
      3  C6        -0.3940   30.6170   55.5390 C.3     0  <0>0        0.1466
      4  C7        -1.8180   30.6900   56.0940 C.3     0  <0>0        0.0311
      5  C5         0.4600   31.6650   56.2060 C.2     0  <0>0        0.2402
      6  N1        -0.1220   32.6940   56.8540 N.am    0  <0>0       -0.3046
      7  H11       -1.0880   32.7610   56.8910 H       0  <0>0        0.1494
      8  O1         1.6680   31.5810   56.1600 O.2     0  <0>0       -0.2733
      9  C3         0.7090   33.7120   57.5030 C.3     0  <0>0        0.0717
     10  C4         0.4120   35.0810   56.8870 C.3     0  <0>0        0.0213
     11  C2         0.3940   33.7480   59.0000 C.3     0  <0>0        0.0196
     12  C1         1.0330   34.9900   59.6260 C.3     0  <0>0        0.0017
     13  C8         0.0130   28.2650   54.8670 C.ar    0  <0>0        0.0449
     14  C13       -0.6740   28.5010   53.6840 C.ar    0  <0>0        0.0190
     15  C12       -0.8190   27.4890   52.7560 C.ar    0  <0>0        0.0832
     16  C11       -0.2890   26.2360   53.0090 C.ar    0  <0>0        0.0616
     17  C10        0.3920   25.9960   54.1900 C.ar    0  <0>0        0.0126
     18 Cl         -0.4780   24.9640   51.8440 Cl      0  <0>0       -0.0823
     19  C9         0.5440   27.0060   55.1190 C.ar    0  <0>0        0.0152
     20  C14       -1.5580   27.7470   51.4690 C.3     0  <0>0        0.4194
     21  F1        -2.3870   26.6580   51.1800 F       0  <0>0       -0.1658
     22  F2        -2.3360   28.9030   51.6020 F       0  <0>0       -0.1658
     23  F3        -0.6390   27.9220   50.4290 F       0  <0>0       -0.1658
@<TRIPOS>BOND
     1    23    20    1
     2    21    20    1
     3    20    22    1
     4    20    15    1
     5    18    16    1
     6    15    16   ar
     7    15    14   ar
     8    16    17   ar
     9    14    13   ar
    10    17    19   ar
    11    13    19   ar
    12    13     1    1
    13     3     1    1
    14     3     4    1
    15     3     5    1
    16     1     2    1
    17     8     5    2
    18     5     6   am
    19     6     7    1
    20     6     9    1
    21    10     9    1
    22     9    11    1
    23    11    12    1

@<TRIPOS>MOLECULE
ZINC01707167_replica-1.pdb
 24 27 0 0 0
SMALL
GASTEIGER

@<TRIPOS>ATOM
      1  C7         7.5370   35.5740   58.1810 C.ar    0  <0>0        0.0363
      2  C8         7.0120   36.1370   57.0280 C.ar    0  <0>0        0.0753
      3  N1         7.8150   37.1840   56.6870 N.ar    0  <0>0       -0.2757
      4  H1         7.6900   37.7860   55.8980 H       0  <0>0        0.1889
      5  N2         8.8450   37.2730   57.6310 N.ar    0  <0>0       -0.1727
      6  C9         8.6870   36.3250   58.5270 C.ar    0  <0>0        0.1020
      7  C4         6.9940   34.4090   58.9170 C.ar    0  <0>0        0.0029
      8  C3         7.2850   33.1130   58.4880 C.ar    0  <0>0        0.0001
      9  C2         6.7770   32.0310   59.1780 C.ar    0  <0>0        0.0000
     10  C1         5.9800   32.2300   60.2910 C.ar    0  <0>0        0.0000
     11  C6         5.6890   33.5120   60.7200 C.ar    0  <0>0        0.0000
     12  C5         6.1910   34.6020   60.0400 C.ar    0  <0>0        0.0001
     13  C10        9.5640   36.0800   59.6980 C.ar    0  <0>0        0.0194
     14  C15       10.3360   34.9220   59.7630 C.ar    0  <0>0        0.0016
     15  C14       11.1500   34.6990   60.8550 C.ar    0  <0>0        0.0000
     16  C13       11.2010   35.6240   61.8840 C.ar    0  <0>0        0.0000
     17  C12       10.4360   36.7750   61.8240 C.ar    0  <0>0        0.0000
     18  C11        9.6220   37.0100   60.7350 C.ar    0  <0>0        0.0016
     19  C16        5.8050   35.6860   56.3040 C.ar    0  <0>0        0.0171
     20  C21        5.9280   34.9200   55.1430 C.ar    0  <0>0        0.0015
     21  C20        4.7970   34.5020   54.4730 C.ar    0  <0>0        0.0000
     22  C19        3.5430   34.8410   54.9490 C.ar    0  <0>0        0.0000
     23  C18        3.4140   35.6000   56.0980 C.ar    0  <0>0        0.0000
     24  C17        4.5370   36.0190   56.7810 C.ar    0  <0>0        0.0015
@<TRIPOS>BOND
     1    21    22   ar
     2    21    20   ar
     3    22    23   ar
     4    20    19   ar
     5     4     3    1
     6    23    24   ar
     7    19    24   ar
     8    19     2    1
     9     3     2   ar
    10     3     5   ar
    11     2     1   ar
    12     5     6   ar
    13     1     6   ar
    14     1     7    1
    15     8     7   ar
    16     8     9   ar
    17     6    13    1
    18     7    12   ar
    19     9    10   ar
    20    13    14   ar
    21    13    18   ar
    22    14    15   ar
    23    12    11   ar
    24    10    11   ar
    25    18    17   ar
    26    15    16   ar
    27    17    16   ar

@<TRIPOS>MOLECULE
ZINC37780715_replica-1.pdb
 21 21 0 0 0
SMALL
GASTEIGER

@<TRIPOS>ATOM
      1  C1         8.5130   38.4710   59.4880 C.3     0  <0>0        0.0324
      2  C2         9.1580   37.1140   59.5960 C.ar    0  <0>0       -0.0057
      3  C3         9.8960   36.7860   60.7160 C.ar    0  <0>0        0.0339
      4  C4        10.4890   35.5360   60.8140 C.ar    0  <0>0        0.1381
      5  C5        10.3420   34.6150   59.7880 C.ar    0  <0>0        0.0381
      6  C6         9.6050   34.9410   58.6670 C.ar    0  <0>0        0.0171
      7  C7         9.0060   36.1910   58.5700 C.ar    0  <0>0        0.0408
      8  N1         8.2530   36.5190   57.4370 N.pl3   0  <0>0       -0.3342
      9  H8         8.7000   36.8140   56.6270 H       0  <0>0        0.1468
     10  C8         6.7930   36.4180   57.4720 C.3     0  <0>0        0.0714
     11  C9         6.2340   36.6200   56.0610 C.3     0  <0>0        0.0212
     12  C10        6.3880   35.0370   57.9880 C.3     0  <0>0        0.0467
     13  C11        5.5470   35.1920   59.2560 C.3     0  <0>0        0.0946
     14  C12        6.2380   34.4710   60.4160 C.3     0  <0>0        0.0297
     15  C13        5.4010   36.6770   59.5930 C.3     0  <0>0        0.0297
     16  O1         4.2540   34.6210   59.0430 O.3     0  <0>0       -0.3558
     17  C14        3.2310   35.5830   58.7790 C.3     0  <0>0        0.1739
     18  O2        11.2160   35.2140   61.9180 O.3     0  <0>0       -0.4792
     19  C15       11.9980   34.0190   61.8540 C.3     0  <0>0        0.1661
     20  C16       13.4460   34.3360   62.2340 C.3     0  <0>0        0.0472
     21  C17       11.4280   32.9850   62.8280 C.3     0  <0>0        0.0472
@<TRIPOS>BOND
     1    11    10    1
     2     9     8    1
     3     8    10    1
     4     8     7    1
     5    10    12    1
     6    12    13    1
     7     7     6   ar
     8     7     2   ar
     9     6     5   ar
    10    17    16    1
    11    16    13    1
    12    13    15    1
    13    13    14    1
    14     1     2    1
    15     2     3   ar
    16     5     4   ar
    17     3     4   ar
    18     4    18    1
    19    19    18    1
    20    19    20    1
    21    19    21    1

@<TRIPOS>MOLECULE
ZINC42585550_replica-1.pdb
 21 21 0 0 0
SMALL
GASTEIGER

@<TRIPOS>ATOM
      1  C9         8.1420   37.0490   56.4630 C.3     0  <0>0        0.1828
      2  C8         6.6610   36.9700   56.0810 C.3     0  <0>0       -0.0292
      3  N1         6.0400   35.8290   56.7660 N.4     0  <0>0        0.3893
      4  C7         5.9930   34.6780   55.8530 C.3     0  <0>0       -0.1004
      5  H25        6.5820   35.5890   57.5820 H       0  <0>0       -0.0796
      6  C2         4.6740   36.1870   57.1730 C.3     0  <0>0       -0.0581
      7  C1         3.6720   35.5430   56.2130 C.3     0  <0>0       -0.0229
      8  C3         4.4160   35.6820   58.5940 C.3     0  <0>0       -0.0208
      9  C4         5.6630   35.9100   59.4490 C.3     0  <0>0       -0.0020
     10  C5         5.5940   37.2970   60.0920 C.3     0  <0>0       -0.0001
     11  C6         5.7310   34.8440   60.5460 C.3     0  <0>0       -0.0001
     12  O1         8.2700   37.6420   57.7570 O.3     0  <0>0       -0.4777
     13  C10        8.9520   36.9360   58.6920 C.ar    0  <0>0        0.1384
     14  C15        9.3330   35.6250   58.4290 C.ar    0  <0>0        0.0371
     15  C14       10.0310   34.9060   59.3730 C.ar    0  <0>0        0.0097
     16  C13       10.3470   35.4920   60.6030 C.ar    0  <0>0        0.0800
     17  C12        9.9560   36.8100   60.8650 C.ar    0  <0>0        0.0097
     18  C11        9.2630   37.5230   59.9140 C.ar    0  <0>0        0.0371
     19  C16       11.0880   34.7260   61.6180 C.2     0  <0>0        0.3878
     20  O2        10.8390   33.5410   61.7940 O.co2   0  <0>0       -0.2406
     21  O3        11.9540   35.2740   62.2860 O.co2   0  <0>0       -0.2406
@<TRIPOS>BOND
     1     4     3    1
     2     2     1    1
     3     2     3    1
     4     7     6    1
     5     1    12    1
     6     3     6    1
     7     3     5    1
     8     6     8    1
     9    12    13    1
    10    14    13   ar
    11    14    15   ar
    12     8     9    1
    13    13    18   ar
    14    15    16   ar
    15     9    10    1
    16     9    11    1
    17    18    17   ar
    18    16    17   ar
    19    16    19    1
    20    19    20   ar
    21    19    21   ar

@<TRIPOS>MOLECULE
ZINC49214489_replica-1.pdb
 21 22 0 0 0
SMALL
GASTEIGER

@<TRIPOS>ATOM
      1  N1         7.9930   36.2320   59.7640 N.am    0  <0>0       -0.2982
      2  C8         9.1130   36.8120   60.2420 C.2     0  <0>0        0.2460
      3  O1         9.3080   37.9970   60.0610 O.2     0  <0>0       -0.2701
      4  H10        7.8370   35.2860   59.9080 H       0  <0>0        0.1500
      5  C9        10.1030   36.0040   60.9860 C.ar    0  <0>0        0.0533
      6  C14       10.9390   36.6100   61.9240 C.ar    0  <0>0        0.0042
      7  C13       11.8560   35.8500   62.6200 C.ar    0  <0>0       -0.0041
      8  C12       11.9580   34.4920   62.3790 C.ar    0  <0>0       -0.0225
      9  C11       11.1350   33.8850   61.4460 C.ar    0  <0>0       -0.0041
     10  C10       10.2090   34.6330   60.7480 C.ar    0  <0>0        0.0042
     11  C15       12.9670   33.6680   63.1370 C.3     0  <0>0        0.0224
     12  C16       12.5520   32.1960   63.1040 C.3     0  <0>0        0.0047
     13  C17       14.3440   33.8260   62.4900 C.3     0  <0>0        0.0047
     14  C3         7.0120   37.0330   59.0270 C.3     0  <0>0        0.1003
     15  C2         5.6060   36.7130   59.5370 C.3     0  <0>0        0.0247
     16  C1         5.6720   35.5270   60.5020 C.3     0  <0>0        0.0021
     17  C4         7.1000   36.7050   57.5580 C.ar    0  <0>0        0.0250
     18  S1         5.8230   36.1200   56.4580 S.2     0  <0>0       -0.0892
     19  C7         6.8020   36.0140   54.9680 C.ar    0  <0>0        0.0352
     20  C6         8.0200   36.4180   55.4040 C.ar    0  <0>0        0.0072
     21  C5         8.1730   36.7730   56.7320 C.ar    0  <0>0        0.0043
@<TRIPOS>BOND
     1    19    20   ar
     2    19    18   ar
     3    20    21   ar
     4    18    17   ar
     5    21    17   ar
     6    17    14    1
     7    14    15    1
     8    14     1    1
     9    15    16    1
    10     1     4    1
    11     1     2   am
    12     3     2    2
    13     2     5    1
    14    10     5   ar
    15    10     9   ar
    16     5     6   ar
    17     9     8   ar
    18     6     7   ar
    19     8     7   ar
    20     8    11    1
    21    13    11    1
    22    12    11    1

@<TRIPOS>MOLECULE
ZINC62769966_replica-1.pdb
 21 22 0 0 0
SMALL
GASTEIGER

@<TRIPOS>ATOM
      1  C14       12.3180   34.4100   62.5270 C.3     0  <0>0        0.0981
      2  C15       13.6750   34.2840   61.8320 C.3     0  <0>0        0.0196
      3  C16       12.4670   35.2690   63.7840 C.3     0  <0>0        0.0196
      4  C17       11.8320   33.0730   62.9010 C.1     0  <0>0        0.0752
      5  N2        11.4560   32.0400   63.1900 N.1     0  <0>0       -0.1956
      6  C11       11.3320   35.0590   61.5890 C.ar    0  <0>0       -0.0096
      7  C10       10.8050   36.3010   61.8940 C.ar    0  <0>0       -0.0020
      8  C9         9.9020   36.8990   61.0370 C.ar    0  <0>0        0.0140
      9  C8         9.5230   36.2510   59.8690 C.ar    0  <0>0        0.0446
     10  C13       10.0490   35.0010   59.5690 C.ar    0  <0>0        0.0140
     11  C12       10.9570   34.4120   60.4270 C.ar    0  <0>0       -0.0020
     12  N1         8.6080   36.8520   59.0000 N.pl3   0  <0>0       -0.3336
     13  H10        8.0480   36.3030   58.4300 H       0  <0>0        0.1468
     14  C2         8.4980   38.3120   58.9500 C.3     0  <0>0        0.0766
     15  C1         7.0850   38.7310   59.3620 C.3     0  <0>0        0.0216
     16  C3         8.7780   38.7960   57.5260 C.3     0  <0>0        0.0839
     17  C4         8.1960   37.8180   56.5390 C.ar    0  <0>0        0.1247
     18  O1         8.7190   36.6230   56.2170 O.2     0  <0>0       -0.4546
     19  C7         7.9330   36.0200   55.3090 C.ar    0  <0>0        0.1791
     20  C6         6.8990   36.8360   55.0340 C.ar    0  <0>0        0.0434
     21  C5         7.0680   37.9940   55.8270 C.ar    0  <0>0        0.0362
@<TRIPOS>BOND
     1    20    19   ar
     2    20    21   ar
     3    19    18   ar
     4    21    17   ar
     5    18    17   ar
     6    17    16    1
     7    16    14    1
     8    13    12    1
     9    14    12    1
    10    14    15    1
    11    12     9    1
    12    10     9   ar
    13    10    11   ar
    14     9     8   ar
    15    11     6   ar
    16     8     7   ar
    17     6     7   ar
    18     6     1    1
    19     2     1    1
    20     1     4    1
    21     1     3    1
    22     4     5    3

@<TRIPOS>MOLECULE
ZINC32126565_replica-1.pdb
 22 24 0 0 0
SMALL
GASTEIGER

@<TRIPOS>ATOM
      1  C7        -0.9560   29.8660   55.2580 C.2     0  <0>0        0.2175
      2  N3        -0.5450   28.6680   54.9190 N.2     0  <0>0       -0.3790
      3  C8        -0.8400   28.1090   53.7240 C.2     0  <0>0        0.1503
      4  C9        -1.6130   28.9080   52.8500 C.2     0  <0>0        0.0596
      5  S1        -1.8620   30.3840   53.8060 S.3     0  <0>0       -0.0376
      6  C10       -1.9890   28.4850   51.5990 C.2     0  <0>0       -0.0113
      7  C11       -1.6060   27.2330   51.1560 C.3     0  <0>0        0.0655
      8  C12       -0.8470   26.4210   51.9870 C.2     0  <0>0        0.0528
      9  C13       -0.4660   26.8340   53.2400 C.2     0  <0>0        0.0945
     10 Cl          0.4830   25.7800   54.2400 Cl      0  <0>0       -0.0790
     11 Cl         -0.3660   24.8480   51.4300 Cl      0  <0>0       -0.0856
     12  N2        -0.7380   30.5580   56.4370 N.am    0  <0>0       -0.2506
     13  C6         0.2900   31.4260   56.5280 C.2     0  <0>0        0.2540
     14  O1         1.0240   31.6010   55.5750 O.2     0  <0>0       -0.2697
     15  H4        -1.4020   30.4010   57.2990 H       0  <0>0        0.1580
     16  C3         0.5240   32.1640   57.7860 C.ar    0  <0>0        0.0822
     17  C2         0.1450   33.5060   57.9040 C.ar    0  <0>0        0.0085
     18  C1         0.3820   34.1520   59.1060 C.ar    0  <0>0        0.0209
     19  C5         0.9890   33.4600   60.1380 C.ar    0  <0>0        0.0998
     20  N1         1.3370   32.1950   59.9990 N.ar    0  <0>0       -0.2323
     21  C4         1.1280   31.5350   58.8780 C.ar    0  <0>0        0.1427
     22 Cl          1.6070   29.8700   58.7570 Cl      0  <0>0       -0.0612
@<TRIPOS>BOND
     1     7     6    1
     2     7     8    1
     3    11     8    1
     4     6     4    2
     5     8     9    2
     6     4     3    1
     7     4     5    1
     8     9     3    1
     9     9    10    1
    10     3     2    2
    11     5     1    1
    12     2     1    2
    13     1    12    1
    14    14    13    2
    15    12    13   am
    16    12    15    1
    17    13    16    1
    18    16    17   ar
    19    16    21   ar
    20    17    18   ar
    21    22    21    1
    22    21    20   ar
    23    18    19   ar
    24    20    19   ar

@<TRIPOS>MOLECULE
ZINC04881085_replica-1.pdb
 25 25 0 0 0
SMALL
GASTEIGER

@<TRIPOS>ATOM
      1  C11        8.1470   34.0940   58.8670 C.2     0  <0>0        0.2645
      2  O1         7.0130   34.4040   59.1780 O.2     0  <0>0       -0.2684
      3  N2         8.4840   33.9890   57.5660 N.am    0  <0>0       -0.2030
      4  H15        9.3880   33.7420   57.3170 H       0  <0>0        0.1776
      5  C8         9.1540   33.8350   59.9120 C.ar    0  <0>0        0.0551
      6  C7        10.1420   34.7850   60.1850 C.ar    0  <0>0        0.0058
      7  C6        11.0790   34.5400   61.1620 C.ar    0  <0>0        0.0147
      8  C5        11.0450   33.3470   61.8770 C.ar    0  <0>0        0.0478
      9  C10       10.0630   32.3970   61.6080 C.ar    0  <0>0        0.0147
     10  C9         9.1220   32.6360   60.6330 C.ar    0  <0>0        0.0058
     11  N1        11.9950   33.1010   62.8630 N.pl3   0  <0>0       -0.3075
     12  C2        11.9980   31.8200   63.5750 C.3     0  <0>0        0.0908
     13  C1        13.4290   31.2830   63.6490 C.3     0  <0>0        0.0232
     14  C3        12.9910   34.1230   63.1910 C.3     0  <0>0        0.0908
     15  C4        14.1370   34.0620   62.1790 C.3     0  <0>0        0.0232
     16  N3         7.5270   34.2360   56.5720 N.2     0  <0>0       -0.1877
     17  C12        7.4830   35.3770   55.9950 C.2     0  <0>0        0.0540
     18  C13        6.4540   35.6420   54.9260 C.3     0  <0>0        0.0429
     19  C14        5.0710   35.2420   55.4410 C.3     0  <0>0        0.0056
     20  C15        4.2050   36.4930   55.6040 C.3     0  <0>0        0.0004
     21  C16        4.4080   34.2930   54.4390 C.3     0  <0>0        0.0004
     22  C17        8.4610   36.4560   56.3840 C.3     0  <0>0        0.0429
     23  C18        7.7450   37.5110   57.2300 C.3     0  <0>0        0.0056
     24  C19        8.5460   37.7700   58.5080 C.3     0  <0>0        0.0004
     25  C20        7.6270   38.8110   56.4300 C.3     0  <0>0        0.0004
@<TRIPOS>BOND
     1    21    19    1
     2    18    19    1
     3    18    17    1
     4    19    20    1
     5    17    22    1
     6    17    16    2
     7    22    23    1
     8    25    23    1
     9    16     3    1
    10    23    24    1
    11     4     3    1
    12     3     1   am
    13     1     2    2
    14     1     5    1
    15     5     6   ar
    16     5    10   ar
    17     6     7   ar
    18    10     9   ar
    19     7     8   ar
    20     9     8   ar
    21     8    11    1
    22    15    14    1
    23    11    14    1
    24    11    12    1
    25    12    13    1

@<TRIPOS>MOLECULE
ZINC37129446_replica-1.pdb
 19 19 0 0 0
SMALL
GASTEIGER

@<TRIPOS>ATOM
      1  C8        -0.4100   27.6810   53.8700 C.ar    0  <0>0        0.0590
      2  C9        -0.1770   26.4660   53.2430 C.ar    0  <0>0        0.0269
      3  C10       -0.7170   26.2190   51.9930 C.ar    0  <0>0        0.0590
      4  C11       -1.4890   27.1810   51.3660 C.ar    0  <0>0        0.0127
      5  C12       -1.7240   28.3960   51.9850 C.ar    0  <0>0        0.0166
      6  C13       -1.1920   28.6490   53.2400 C.ar    0  <0>0        0.0613
      7 Cl         -0.4250   24.6980   51.2090 Cl      0  <0>0       -0.0822
      8  N1         0.1350   27.9330   55.1350 N.pl3   0  <0>0       -0.3331
      9  H16        0.9230   28.4920   55.2210 H       0  <0>0        0.1468
     10  C4        -0.4870   27.3550   56.3290 C.3     0  <0>0        0.0691
     11  C3         0.1870   26.0220   56.6590 C.3     0  <0>0        0.0195
     12  C2        -0.2440   25.5640   58.0540 C.3     0  <0>0        0.0017
     13  C1        -0.5420   24.0630   58.0290 C.3     0  <0>0        0.0001
     14  C5        -0.3190   28.3160   57.5070 C.3     0  <0>0        0.0195
     15  C6        -1.6650   28.9700   57.8280 C.3     0  <0>0        0.0017
     16  C7        -2.7850   28.2040   57.1210 C.3     0  <0>0        0.0001
     17  N2        -1.4350   29.8760   53.8710 N.pl3   0  <0>0       -0.3031
     18  C14       -2.8110   30.3280   54.0870 C.3     0  <0>0        0.1123
     19  C15       -0.3120   30.7060   54.3150 C.3     0  <0>0        0.1123
@<TRIPOS>BOND
     1     7     3    1
     2     4     5   ar
     3     4     3   ar
     4     5     6   ar
     5     3     2   ar
     6     6     1   ar
     7     6    17    1
     8     2     1   ar
     9     1     8    1
    10    17    18    1
    11    17    19    1
    12     8     9    1
    13     8    10    1
    14    10    11    1
    15    10    14    1
    16    11    12    1
    17    16    15    1
    18    14    15    1
    19    13    12    1

@<TRIPOS>MOLECULE
ZINC57602949_replica-1.pdb
 21 22 0 0 0
SMALL
GASTEIGER

@<TRIPOS>ATOM
      1  N1         9.0380   34.5540   60.1340 N.pl3   0  <0>0       -0.3285
      2  H13        8.1500   34.6650   60.5080 H       0  <0>0        0.1471
      3  C7        10.0910   34.1290   60.9470 C.ar    0  <0>0        0.0449
      4  C6        11.1780   34.9650   61.1720 C.ar    0  <0>0        0.0140
      5  C5        12.2180   34.5410   61.9760 C.ar    0  <0>0       -0.0030
      6  C4        12.1770   33.2870   62.5590 C.ar    0  <0>0       -0.0224
      7  C9        11.1000   32.4510   62.3320 C.ar    0  <0>0       -0.0030
      8  C8        10.0550   32.8700   61.5320 C.ar    0  <0>0        0.0140
      9  C2        13.3140   32.8290   63.4350 C.3     0  <0>0        0.0224
     10  C1        13.3620   31.3000   63.4540 C.3     0  <0>0        0.0047
     11  C3        14.6340   33.3740   62.8850 C.3     0  <0>0        0.0047
     12  C10        9.2740   34.8340   58.7160 C.3     0  <0>0        0.1280
     13  C11        8.4370   33.8790   57.8620 C.3     0  <0>0        0.2177
     14  N2         7.3330   33.3460   58.6650 N.pl3   0  <0>0        0.0366
     15  O1         7.4120   32.2370   59.1400 O.2     0  <0>0       -0.1309
     16  O2         6.3440   34.0160   58.8520 O.2     0  <0>0       -0.1309
     17  C12        8.8810   36.2560   58.4110 C.ar    0  <0>0        0.0271
     18  S1         8.2650   36.9490   56.8850 S.2     0  <0>0       -0.0891
     19  C15        8.0760   38.6370   57.4340 C.ar    0  <0>0        0.0352
     20  C14        8.4960   38.5630   58.7200 C.ar    0  <0>0        0.0072
     21  C13        8.9080   37.3430   59.2210 C.ar    0  <0>0        0.0044
@<TRIPOS>BOND
     1    18    19   ar
     2    18    17   ar
     3    19    20   ar
     4    13    14    1
     5    13    12    1
     6    17    12    1
     7    17    21   ar
     8    14    16    2
     9    14    15    2
    10    12     1    1
    11    20    21   ar
    12     1     2    1
    13     1     3    1
    14     3     4   ar
    15     3     8   ar
    16     4     5   ar
    17     8     7   ar
    18     5     6   ar
    19     7     6   ar
    20     6     9    1
    21    11     9    1
    22     9    10    1

@<TRIPOS>MOLECULE
ZINC37354878_replica-1.pdb
 20 20 0 0 0
SMALL
GASTEIGER

@<TRIPOS>ATOM
      1  C5        11.1970   34.9580   61.5950 C.ar    0  <0>0       -0.0225
      2  C6        10.8580   34.4050   60.3730 C.ar    0  <0>0       -0.0042
      3  C7        10.1060   35.1270   59.4710 C.ar    0  <0>0        0.0025
      4  C8         9.6870   36.4210   59.7930 C.ar    0  <0>0        0.0347
      5  C9        10.0340   36.9730   61.0300 C.ar    0  <0>0        0.0025
      6  C10       10.7820   36.2360   61.9240 C.ar    0  <0>0       -0.0042
      7  C11        8.8850   37.2000   58.8350 C.2     0  <0>0        0.1730
      8  O1         8.5480   38.3320   59.1060 O.2     0  <0>0       -0.2913
      9  C12        8.4830   36.5890   57.5170 C.3     0  <0>0        0.0691
     10  C13        7.3520   35.5840   57.7450 C.3     0  <0>0        0.0077
     11  C14        7.2670   34.6310   56.5520 C.3     0  <0>0        0.0005
     12  C15        6.0270   36.3350   57.8950 C.3     0  <0>0        0.0004
     13  C16        5.4200   36.0300   59.2660 C.3     0  <0>0        0.0000
     14  C17        6.2220   34.9150   59.9410 C.3     0  <0>0        0.0000
     15  C18        5.4660   37.2880   60.1350 C.3     0  <0>0        0.0000
     16  C19        3.9680   35.5820   59.0950 C.3     0  <0>0        0.0000
     17  C3        12.0200   34.1610   62.5760 C.3     0  <0>0        0.0223
     18  C4        11.4910   32.7270   62.6370 C.3     0  <0>0        0.0047
     19  C2        13.4810   34.1480   62.1230 C.3     0  <0>0        0.0044
     20  C1        14.2850   33.2080   63.0240 C.3     0  <0>0        0.0003
@<TRIPOS>BOND
     1    11    10    1
     2     9    10    1
     3     9     7    1
     4    10    12    1
     5    12    13    1
     6     7     8    2
     7     7     4    1
     8    16    13    1
     9    13    14    1
    10    13    15    1
    11     3     4   ar
    12     3     2   ar
    13     4     5   ar
    14     2     1   ar
    15     5     6   ar
    16     1     6   ar
    17     1    17    1
    18    19    17    1
    19    19    20    1
    20    17    18    1

@<TRIPOS>MOLECULE
ZINC36934482_replica-1.pdb
 22 23 0 0 0
SMALL
GASTEIGER

@<TRIPOS>ATOM
      1  C7         6.7600   34.0150   58.2800 C.ar    0  <0>0        0.0508
      2  C8         6.3190   33.2170   57.2350 C.ar    0  <0>0        0.0148
      3  C9         6.9730   32.0350   56.9430 C.ar    0  <0>0        0.0013
      4  C10        8.0690   31.6430   57.6900 C.ar    0  <0>0        0.0006
      5  C11        8.5160   32.4320   58.7340 C.ar    0  <0>0        0.0076
      6  C12        7.8690   33.6220   59.0300 C.ar    0  <0>0        0.0458
      7  N3         6.0990   35.2120   58.5780 N.pl3   0  <0>0       -0.3286
      8  H10        5.8200   35.3980   59.4880 H       0  <0>0        0.1471
      9  C6         5.8270   36.1830   57.5140 C.3     0  <0>0        0.1167
     10  C3         7.0120   37.0990   57.3560 C.ar    0  <0>0        0.0256
     11  C2         7.7910   37.2100   56.2550 C.ar    0  <0>0        0.0507
     12  C1         7.6280   36.4400   54.9700 C.3     0  <0>0        0.0512
     13  N2         8.7430   38.1310   56.5160 N.ar    0  <0>0       -0.2803
     14  N1         8.5370   38.6070   57.8180 N.ar    0  <0>0       -0.1776
     15  H1         9.4450   38.4140   55.9090 H       0  <0>0        0.1885
     16  C4         7.5010   37.9860   58.3210 C.ar    0  <0>0        0.0774
     17  C5         6.9330   38.1910   59.7020 C.3     0  <0>0        0.0537
     18  S1         8.4420   34.6330   60.3550 S.3     0  <0>0       -0.0132
     19  C13        9.9080   35.4580   59.6770 C.3     0  <0>0        0.4477
     20  F1        11.0560   34.7540   60.0570 F       0  <0>0       -0.1600
     21  F2         9.8220   35.4910   58.2820 F       0  <0>0       -0.1600
     22  F3         9.9770   36.7650   60.1720 F       0  <0>0       -0.1600
@<TRIPOS>BOND
     1    12    11    1
     2    15    13    1
     3    11    13   ar
     4    11    10   ar
     5    13    14   ar
     6     3     2   ar
     7     3     4   ar
     8     2     1   ar
     9    10     9    1
    10    10    16   ar
    11     9     7    1
    12     4     5   ar
    13    14    16   ar
    14     1     7    1
    15     1     6   ar
    16    21    19    1
    17    16    17    1
    18     7     8    1
    19     5     6   ar
    20     6    18    1
    21    19    20    1
    22    19    22    1
    23    19    18    1

@<TRIPOS>MOLECULE
ZINC13388687_replica-1.pdb
 25 26 0 0 0
SMALL
GASTEIGER

@<TRIPOS>ATOM
      1  C11        8.1340   36.4630   57.9330 C.2     0  <0>0        0.2461
      2  O2         8.2510   37.4910   57.2960 O.2     0  <0>0       -0.2701
      3  N1         7.1690   35.5790   57.6160 N.am    0  <0>0       -0.2977
      4  H15        7.0760   34.7570   58.1250 H       0  <0>0        0.1500
      5  C8         9.0520   36.1830   59.0560 C.ar    0  <0>0        0.0536
      6  C7         9.7850   34.9940   59.0810 C.ar    0  <0>0        0.0076
      7  C6        10.6400   34.7370   60.1310 C.ar    0  <0>0        0.0370
      8  C5        10.7720   35.6580   61.1630 C.ar    0  <0>0        0.1386
      9  C10       10.0430   36.8410   61.1420 C.ar    0  <0>0        0.0370
     10  C9         9.1910   37.1080   60.0930 C.ar    0  <0>0        0.0076
     11  O1        11.6150   35.4000   62.1950 O.3     0  <0>0       -0.4755
     12  C4        12.5930   34.3770   61.9940 C.3     0  <0>0        0.2053
     13  C2        12.5220   33.3710   63.1440 C.3     0  <0>0        0.0438
     14  C1        11.4020   32.3650   62.8740 C.3     0  <0>0        0.0038
     15  C3        13.8560   32.6300   63.2560 C.3     0  <0>0        0.0038
     16  C12        6.2590   35.8570   56.5020 C.3     0  <0>0        0.1116
     17  C13        6.3800   34.7470   55.4550 C.3     0  <0>0        0.1386
     18  C14        6.7370   33.4500   56.1350 C.2     0  <0>0        0.3669
     19  O3         5.8630   32.7190   56.5380 O.co2   0  <0>0       -0.2456
     20  O4         8.0250   33.1090   56.2940 O.co2   0  <0>0       -0.2456
     21  C15        4.8430   35.9130   57.0120 C.ar    0  <0>0        0.0256
     22  S1         4.2500   35.8570   58.6950 S.2     0  <0>0       -0.0891
     23  C18        2.5020   35.9820   58.3510 C.ar    0  <0>0        0.0352
     24  C17        2.4870   36.0520   56.9980 C.ar    0  <0>0        0.0072
     25  C16        3.6860   36.0220   56.3110 C.ar    0  <0>0        0.0043
@<TRIPOS>BOND
     1    17    18    1
     2    17    16    1
     3    18    20   ar
     4    18    19   ar
     5    25    24   ar
     6    25    21   ar
     7    16    21    1
     8    16     3    1
     9    24    23   ar
    10    21    22   ar
    11     2     1    2
    12     3     1   am
    13     3     4    1
    14     1     5    1
    15    23    22   ar
    16     5     6   ar
    17     5    10   ar
    18     6     7   ar
    19    10     9   ar
    20     7     8   ar
    21     9     8   ar
    22     8    11    1
    23    12    11    1
    24    12    13    1
    25    14    13    1
    26    13    15    1

@<TRIPOS>MOLECULE
ZINC06749322_replica-1.pdb
 22 23 0 0 0
SMALL
GASTEIGER

@<TRIPOS>ATOM
      1  C6         7.7220   35.9030   56.9710 C.2     0  <0>0        0.0906
      2  C7         8.5500   36.6010   57.8660 C.2     0  <0>0        0.0586
      3  C8         8.3390   37.8700   57.1470 C.2     0  <0>0        0.2367
      4  O1         8.7150   39.0190   57.2780 O.2     0  <0>0       -0.2831
      5  C9         7.4650   37.1350   56.1920 C.2     0  <0>0        0.2473
      6  O2         6.8170   37.4220   55.2050 O.2     0  <0>0       -0.2818
      7  C10        9.3230   36.2150   59.0620 C.ar    0  <0>0        0.0045
      8  C15        9.9490   34.9660   59.1210 C.ar    0  <0>0       -0.0002
      9  C14       10.6690   34.6130   60.2420 C.ar    0  <0>0       -0.0043
     10  C13       10.7740   35.4910   61.3070 C.ar    0  <0>0       -0.0225
     11  C12       10.1590   36.7280   61.2560 C.ar    0  <0>0       -0.0043
     12  C11        9.4380   37.0980   60.1390 C.ar    0  <0>0       -0.0002
     13  C16       11.5640   35.0960   62.5280 C.3     0  <0>0        0.0224
     14  C17       12.8130   34.3220   62.1000 C.3     0  <0>0        0.0047
     15  C18       11.9810   36.3540   63.2940 C.3     0  <0>0        0.0047
     16  N1         7.3140   34.6030   56.8630 N.pl3   0  <0>0       -0.3300
     17  H12        7.8270   33.7540   56.3890 H       0  <0>0        0.1469
     18  C5         6.0000   34.4080   57.4930 C.3     0  <0>0        0.0871
     19  C4         6.1830   34.1920   58.9960 C.3     0  <0>0        0.0212
     20  C2         5.2030   35.0820   59.7630 C.3     0  <0>0        0.0017
     21  C1         5.9790   35.9950   60.7140 C.3     0  <0>0        0.0001
     22  C3         4.4070   35.9350   58.7720 C.3     0  <0>0        0.0001
@<TRIPOS>BOND
     1     6     5    2
     2     5     1    1
     3     5     3    1
     4    17    16    1
     5    16     1    1
     6    16    18    1
     7     1     2    2
     8     3     4    2
     9     3     2    1
    10    18    19    1
    11     2     7    1
    12    22    20    1
    13    19    20    1
    14     7     8   ar
    15     7    12   ar
    16     8     9   ar
    17    20    21    1
    18    12    11   ar
    19     9    10   ar
    20    11    10   ar
    21    10    13    1
    22    14    13    1
    23    13    15    1

@<TRIPOS>MOLECULE
ZINC02933310_replica-1.pdb
 19 19 0 0 0
SMALL
GASTEIGER

@<TRIPOS>ATOM
      1  O1        -0.9720   30.1650   54.9100 O.3     0  <0>0       -0.4778
      2  C4        -0.8420   29.0170   54.1960 C.ar    0  <0>0        0.1379
      3  C3        -0.1430   27.9440   54.7280 C.ar    0  <0>0        0.0335
      4  C2        -0.0170   26.7750   54.0020 C.ar    0  <0>0       -0.0086
      5  C1         0.7420   25.6090   54.5800 C.3     0  <0>0        0.0320
      6  C7        -0.5870   26.6740   52.7460 C.ar    0  <0>0        0.0499
      7  C6        -1.2850   27.7440   52.2130 C.ar    0  <0>0       -0.0086
      8 Cl         -0.4290   25.2040   51.8370 Cl      0  <0>0       -0.0829
      9  C5        -1.4130   28.9140   52.9360 C.ar    0  <0>0        0.0335
     10  C8        -1.9060   27.6320   50.8450 C.3     0  <0>0        0.0320
     11  C9         0.2340   30.8140   55.3220 C.3     0  <0>0        0.1823
     12  C10       -0.0630   31.7390   56.5040 C.3     0  <0>0       -0.0334
     13  N1         0.1220   33.1400   56.0780 N.4     0  <0>0        0.3888
     14  H22       -0.7970   33.5760   55.9410 H       0  <0>0       -0.0842
     15  H23        0.6460   33.1590   55.1950 H       0  <0>0       -0.0842
     16  C11        0.8690   33.8920   57.1040 C.3     0  <0>0       -0.0458
     17  C12        0.7620   35.3910   56.8220 C.3     0  <0>0       -0.0215
     18  C13        0.2750   33.5870   58.4820 C.3     0  <0>0       -0.0215
     19  C14        2.3410   33.4730   57.0800 C.3     0  <0>0       -0.0215
@<TRIPOS>BOND
     1    10     7    1
     2     8     6    1
     3     7     6   ar
     4     7     9   ar
     5     6     4   ar
     6     9     2   ar
     7     4     5    1
     8     4     3   ar
     9     2     3   ar
    10     2     1    1
    11     1    11    1
    12    15    13    1
    13    11    12    1
    14    14    13    1
    15    13    12    1
    16    13    16    1
    17    17    16    1
    18    19    16    1
    19    16    18    1

@<TRIPOS>MOLECULE
ZINC66936415_replica-1.pdb
 22 22 0 0 0
SMALL
GASTEIGER

@<TRIPOS>ATOM
      1  C6         9.7780   35.1810   60.5790 C.ar    0  <0>0        0.1220
      2  C7        10.4220   36.2470   61.1800 C.ar    0  <0>0        0.0204
      3  C8        11.4030   36.0190   62.1250 C.ar    0  <0>0        0.0078
      4  C9        11.7410   34.7170   62.4720 C.ar    0  <0>0        0.0328
      5  C10       11.0910   33.6480   61.8670 C.ar    0  <0>0        0.0078
      6  C11       10.1080   33.8840   60.9260 C.ar    0  <0>0        0.0204
      7  S1         8.5280   35.4770   59.3730 S.O2    0  <0>0        0.0602
      8  O2         7.3340   35.7670   60.0870 O.2     0  <0>0       -0.1530
      9  O3         8.6140   34.4170   58.4300 O.2     0  <0>0       -0.1530
     10  N1         8.9440   36.8620   58.5650 N.3     0  <0>0       -0.1797
     11  H12        9.8780   37.0950   58.4520 H       0  <0>0        0.1488
     12  C2         7.8990   37.7350   58.0220 C.3     0  <0>0        0.0894
     13  C1         8.5170   38.7060   57.0140 C.3     0  <0>0        0.0200
     14  C3         7.2520   38.5250   59.1620 C.3     0  <0>0        0.0200
     15  C4         6.8360   36.8830   57.3250 C.3     0  <0>0        0.1581
     16  O1         7.2400   36.6260   55.9790 O.3     0  <0>0       -0.3497
     17  C5         6.5220   35.5620   55.3500 C.3     0  <0>0        0.1742
     18  S2        12.9920   34.4220   63.6780 S.3     0  <0>0       -0.0144
     19  C12       14.3220   33.6190   62.7420 C.3     0  <0>0        0.4477
     20  F1        14.2800   34.0470   61.4100 F       0  <0>0       -0.1600
     21  F2        15.5580   33.9610   63.3020 F       0  <0>0       -0.1600
     22  F3        14.1560   32.2310   62.7910 F       0  <0>0       -0.1600
@<TRIPOS>BOND
     1    17    16    1
     2    16    15    1
     3    13    12    1
     4    15    12    1
     5    12    10    1
     6    12    14    1
     7     9     7    2
     8    11    10    1
     9    10     7    1
    10     7     8    2
    11     7     1    1
    12     1     6   ar
    13     1     2   ar
    14     6     5   ar
    15     2     3   ar
    16    20    19    1
    17     5     4   ar
    18     3     4   ar
    19     4    18    1
    20    19    22    1
    21    19    21    1
    22    19    18    1

@<TRIPOS>MOLECULE
ZINC36931981_replica-1.pdb
 20 20 0 0 0
SMALL
GASTEIGER

@<TRIPOS>ATOM
      1  C9         0.5850   30.6400   57.2350 C.ar    0  <0>0        0.0641
      2  C10        0.0130   31.8470   56.8370 C.ar    0  <0>0        0.0188
      3  C11        0.2160   32.9640   57.6290 C.ar    0  <0>0        0.0392
      4  C12        0.9750   32.8470   58.7790 C.ar    0  <0>0        0.1863
      5  N2         1.5050   31.6920   59.1280 N.ar    0  <0>0       -0.2244
      6  C13        1.3300   30.6020   58.4060 C.ar    0  <0>0        0.1146
      7  N1         0.4080   29.4850   56.4690 N.pl3   0  <0>0       -0.3328
      8  H18        0.9020   28.6790   56.6850 H       0  <0>0        0.1468
      9  C6        -0.5250   29.4910   55.3400 C.3     0  <0>0        0.0691
     10  C5         0.1240   28.8040   54.1370 C.3     0  <0>0        0.0195
     11  C3        -0.6230   27.5040   53.8290 C.3     0  <0>0        0.0016
     12  C4         0.2950   26.3110   54.1060 C.3     0  <0>0        0.0001
     13  C2        -1.0430   27.4940   52.3580 C.3     0  <0>0        0.0001
     14  C1        -0.8600   26.0870   51.7850 C.3     0  <0>0        0.0000
     15  C7        -1.8010   28.7400   55.7280 C.3     0  <0>0        0.0195
     16  C8        -2.9540   29.7360   55.8790 C.3     0  <0>0        0.0017
     17  S1         1.2400   34.2640   59.7920 S.O2    0  <0>0        0.0268
     18  O1         2.5430   34.0860   60.3310 O.2     0  <0>0       -0.1671
     19  O2         0.9510   35.3720   58.9490 O.2     0  <0>0       -0.1671
     20  C14       -0.0040   34.1370   61.1060 C.3     0  <0>0        0.1834
@<TRIPOS>BOND
     1    14    13    1
     2    13    11    1
     3    11    12    1
     4    11    10    1
     5    10     9    1
     6     9    15    1
     7     9     7    1
     8    15    16    1
     9     7     8    1
    10     7     1    1
    11     2     1   ar
    12     2     3   ar
    13     1     6   ar
    14     3     4   ar
    15     6     5   ar
    16     4     5   ar
    17     4    17    1
    18    19    17    2
    19    17    18    2
    20    17    20    1

@<TRIPOS>MOLECULE
ZINC04775030_replica-1.pdb
 20 21 0 0 0
SMALL
GASTEIGER

@<TRIPOS>ATOM
      1  C4        13.5090   32.9930   62.3640 C.3     0  <0>0        0.1204
      2  C5        12.6800   31.7570   62.7310 C.3     0  <0>0        0.0570
      3  C6        11.3650   32.2160   63.3700 C.3     0  <0>0        0.1475
      4  O1        10.7100   33.1280   62.4830 O.3     0  <0>0       -0.3270
      5  C7        11.4960   34.2750   62.1540 C.3     0  <0>0        0.2599
      6  O2        12.7180   33.8550   61.5410 O.3     0  <0>0       -0.3296
      7  C8        10.7300   35.1510   61.1960 C.ar    0  <0>0        0.0338
      8  C13       10.3950   34.6730   59.9420 C.ar    0  <0>0        0.0037
      9  C12        9.6920   35.4740   59.0620 C.ar    0  <0>0        0.0367
     10  C11        9.3230   36.7580   59.4380 C.ar    0  <0>0        0.1385
     11  C10        9.6600   37.2340   60.6950 C.ar    0  <0>0        0.0367
     12  C9        10.3570   36.4280   61.5740 C.ar    0  <0>0        0.0037
     13  O3         8.6320   37.5470   58.5730 O.3     0  <0>0       -0.4755
     14  C14        8.3990   37.0250   57.2630 C.3     0  <0>0        0.2055
     15  C15        7.8090   38.1220   56.3750 C.3     0  <0>0        0.0512
     16  C3        13.9160   33.7340   63.6390 C.3     0  <0>0        0.0297
     17  C2        15.4200   34.0160   63.6070 C.3     0  <0>0        0.0025
     18  C1        15.9640   34.0400   65.0370 C.3     0  <0>0        0.0001
     19  C16       13.4590   30.8930   63.7250 C.3     0  <0>0        0.0049
     20  C17       12.5300   29.8330   64.3170 C.3     0  <0>0        0.0002
@<TRIPOS>BOND
     1    15    14    1
     2    14    13    1
     3    13    10    1
     4     9    10   ar
     5     9     8   ar
     6    10    11   ar
     7     8     7   ar
     8    11    12   ar
     9     7    12   ar
    10     7     5    1
    11     6     5    1
    12     6     1    1
    13     5     4    1
    14     1     2    1
    15     1    16    1
    16     4     3    1
    17     2     3    1
    18     2    19    1
    19    17    16    1
    20    17    18    1
    21    19    20    1

@<TRIPOS>MOLECULE
ZINC62655784_replica-1.pdb
 21 22 0 0 0
SMALL
GASTEIGER

@<TRIPOS>ATOM
      1  C8         0.0780   28.2020   54.7410 C.ar    0  <0>0        0.0727
      2  C9        -0.5910   28.4350   53.5470 C.ar    0  <0>0        0.0204
      3  C10       -0.8100   27.3940   52.6650 C.ar    0  <0>0        0.0728
      4  C11       -0.3640   26.1210   52.9710 C.ar    0  <0>0        0.0062
      5  C12        0.3020   25.8840   54.1590 C.ar    0  <0>0        0.0309
      6  C13        0.5300   26.9230   55.0440 C.ar    0  <0>0        0.1531
      7  F1         1.1860   26.6920   56.2030 F       0  <0>0       -0.2029
      8  N1         0.3020   29.2540   55.6360 N.pl3   0  <0>0       -0.3264
      9  H10        1.2080   29.5370   55.8330 H       0  <0>0        0.1472
     10  C3        -0.8320   29.9270   56.2750 C.3     0  <0>0        0.1273
     11  C2        -1.7040   28.8910   56.9880 C.3     0  <0>0        0.0273
     12  C1        -3.0940   28.8670   56.3490 C.3     0  <0>0        0.0022
     13  C4        -0.3220   30.9300   57.2760 C.ar    0  <0>0        0.1406
     14  O1         0.1610   30.6460   58.4970 O.2     0  <0>0       -0.4530
     15  C7         0.5250   31.7830   59.1100 C.ar    0  <0>0        0.1792
     16  C6         0.2700   32.8130   58.2840 C.ar    0  <0>0        0.0435
     17  C5        -0.2780   32.2630   57.1010 C.ar    0  <0>0        0.0379
     18  C14       -1.5360   27.6460   51.3690 C.3     0  <0>0        0.4186
     19  F2        -2.3010   26.5220   51.0370 F       0  <0>0       -0.1659
     20  F3        -2.3740   28.7560   51.5130 F       0  <0>0       -0.1659
     21  F4        -0.6040   27.8920   50.3540 F       0  <0>0       -0.1659
@<TRIPOS>BOND
     1    21    18    1
     2    19    18    1
     3    18    20    1
     4    18     3    1
     5     3     4   ar
     6     3     2   ar
     7     4     5   ar
     8     2     1   ar
     9     5     6   ar
    10     1     6   ar
    11     1     8    1
    12     6     7    1
    13     8     9    1
    14     8    10    1
    15    10    11    1
    16    10    13    1
    17    12    11    1
    18    17    13   ar
    19    17    16   ar
    20    13    14   ar
    21    16    15   ar
    22    14    15   ar

@<TRIPOS>MOLECULE
ZINC42328355_replica-1.pdb
 20 22 0 0 0
SMALL
GASTEIGER

@<TRIPOS>ATOM
      1  N1         0.2600   28.9130   56.6430 N.pl3   0  <0>0       -0.3302
      2  H13        1.1190   28.8040   57.0800 H       0  <0>0        0.1471
      3  C7         0.0300   28.3220   55.3980 C.ar    0  <0>0        0.0448
      4  C6        -0.6930   29.0040   54.4270 C.ar    0  <0>0        0.0140
      5  C5        -0.9190   28.4170   53.1980 C.ar    0  <0>0       -0.0030
      6  C4        -0.4260   27.1520   52.9320 C.ar    0  <0>0       -0.0224
      7  C9         0.2890   26.4690   53.8990 C.ar    0  <0>0       -0.0030
      8  C8         0.5240   27.0520   55.1280 C.ar    0  <0>0        0.0140
      9  C2        -0.6750   26.5140   51.5900 C.3     0  <0>0        0.0224
     10  C1        -0.8070   25.0000   51.7620 C.3     0  <0>0        0.0047
     11  C3        -1.9670   27.0740   50.9910 C.3     0  <0>0        0.0047
     12  C10       -0.7960   29.6980   57.2880 C.3     0  <0>0        0.0978
     13  C11       -0.2200   30.9960   57.7920 C.ar    0  <0>0        0.0250
     14  S1         0.7010   31.3110   59.2900 S.2     0  <0>0       -0.0892
     15  C14        0.9620   33.0610   59.0610 C.ar    0  <0>0        0.0352
     16  C13        0.3350   33.2870   57.8810 C.ar    0  <0>0        0.0072
     17  C12       -0.2710   32.2280   57.2300 C.ar    0  <0>0        0.0043
     18  C15       -1.3750   28.9060   58.4610 C.3     0  <0>0        0.0226
     19  C17       -2.3340   27.7600   58.1350 C.3     0  <0>0        0.0021
     20  C16       -0.9190   27.4550   58.6290 C.3     0  <0>0        0.0021
@<TRIPOS>BOND
     1    11     9    1
     2     9    10    1
     3     9     6    1
     4     6     5   ar
     5     6     7   ar
     6     5     4   ar
     7     7     8   ar
     8     4     3   ar
     9     8     3   ar
    10     3     1    1
    11     1     2    1
    12     1    12    1
    13    17    13   ar
    14    17    16   ar
    15    12    13    1
    16    12    18    1
    17    13    14   ar
    18    16    15   ar
    19    19    18    1
    20    19    20    1
    21    18    20    1
    22    15    14   ar

@<TRIPOS>MOLECULE
ZINC40766409_replica-1.pdb
 21 22 0 0 0
SMALL
GASTEIGER

@<TRIPOS>ATOM
      1  N3         0.6710   30.7550   55.1350 N.pl3   0  <0>0       -0.2221
      2  H10        0.8400   31.3510   54.3880 H       0  <0>0        0.2919
      3  C6         0.6690   31.2490   56.4290 C.2     0  <0>0        0.2999
      4  C5         0.5330   32.6180   56.6650 C.3     0  <0>0        0.1574
      5  C4         0.5370   33.0610   57.9740 C.2     0  <0>0        0.0478
      6  N2         0.6730   32.1790   58.9540 N.2     0  <0>0       -0.2268
      7  C7         0.7950   30.8920   58.6980 C.3     0  <0>0        0.3908
      8  N1         0.7970   30.4260   57.4660 N.2     0  <0>0       -0.0409
      9  C2         0.3930   34.5290   58.2820 C.3     0  <0>0        0.0365
     10  C1         1.1040   34.8450   59.6000 C.3     0  <0>0        0.0060
     11  C3         1.0190   35.3510   57.1550 C.3     0  <0>0        0.0060
     12  C8         0.4150   29.3330   54.8930 C.3     0  <0>0        0.2026
     13  C9        -0.9930   29.1580   54.3210 C.3     0  <0>0        0.0618
     14  C10       -1.9580   28.7820   55.4460 C.3     0  <0>0        0.0085
     15  C11       -1.4480   30.4690   53.6760 C.3     0  <0>0        0.0085
     16  C12       -0.9820   28.0650   53.2820 C.ar    0  <0>0       -0.0189
     17  C17       -1.6400   28.2460   52.0810 C.ar    0  <0>0       -0.0042
     18  C16       -1.6270   27.2460   51.1280 C.ar    0  <0>0       -0.0003
     19  C15       -0.9610   26.0600   51.3790 C.ar    0  <0>0       -0.0000
     20  C14       -0.3080   25.8770   52.5840 C.ar    0  <0>0       -0.0003
     21  C13       -0.3190   26.8790   53.5350 C.ar    0  <0>0       -0.0042
@<TRIPOS>BOND
     1    18    19   ar
     2    18    17   ar
     3    19    20   ar
     4    17    16   ar
     5    20    21   ar
     6    16    21   ar
     7    16    13    1
     8    15    13    1
     9    13    12    1
    10    13    14    1
    11     2     1    1
    12    12     1    1
    13     1     3    1
    14     3     4    1
    15     3     8    2
    16     4     5    1
    17    11     9    1
    18     8     7    1
    19     5     9    1
    20     5     6    2
    21     9    10    1
    22     7     6    1

@<TRIPOS>MOLECULE
ZINC23607906_replica-1.pdb
 21 23 0 0 0
SMALL
GASTEIGER

@<TRIPOS>ATOM
      1  N3         0.3290   29.5010   54.5800 N.am    0  <0>0       -0.2509
      2  C7        -0.8420   28.8790   54.3360 C.2     0  <0>0        0.2520
      3  O1        -1.8010   29.0840   55.0540 O.2     0  <0>0       -0.2697
      4  H8         1.0940   29.3380   54.0070 H       0  <0>0        0.1580
      5  C6         0.4390   30.3780   55.6530 C.2     0  <0>0        0.2128
      6  S1         0.4560   30.0190   57.3000 S.3     0  <0>0       -0.0595
      7  C5         0.6240   31.6780   57.8940 C.3     0  <0>0        0.1194
      8  C4         0.6540   32.4020   56.7430 C.2     0  <0>0        0.1017
      9  C14        0.7170   32.2010   59.2860 C.3     0  <0>0        0.0903
     10  C3         0.7890   33.9170   56.8110 C.3     0  <0>0        0.0727
     11  N2         0.5560   31.6870   55.6290 N.2     0  <0>0       -0.3884
     12  C2         0.4290   34.3640   58.2320 C.3     0  <0>0        0.0793
     13  N1         1.1970   33.5950   59.2200 N.3     0  <0>0       -0.2700
     14  C1         1.1430   34.2340   60.5420 C.3     0  <0>0        0.0897
     15  C8        -0.9580   27.9470   53.1960 C.ar    0  <0>0        0.0591
     16  C13       -0.4130   26.6650   53.2790 C.ar    0  <0>0        0.0344
     17  C12       -0.5300   25.7970   52.2120 C.ar    0  <0>0        0.0059
     18  I1         0.5740   26.0550   55.0240 I       0  <0>0       -0.0424
     19  C11       -1.1760   26.2000   51.0570 C.ar    0  <0>0        0.0004
     20  C10       -1.7140   27.4720   50.9650 C.ar    0  <0>0        0.0002
     21  C9        -1.6090   28.3470   52.0270 C.ar    0  <0>0        0.0049
@<TRIPOS>BOND
     1    20    19   ar
     2    20    21   ar
     3    19    17   ar
     4    21    15   ar
     5    17    16   ar
     6    15    16   ar
     7    15     2    1
     8    16    18    1
     9     4     1    1
    10     2     1   am
    11     2     3    2
    12     1     5    1
    13    11     5    2
    14    11     8    2
    15     5     6    1
    16     8    10    1
    17     8     7    1
    18    10    12    1
    19     6     7    1
    20     7     9    1
    21    12    13    1
    22    13     9    1
    23    13    14    1

@<TRIPOS>MOLECULE
ZINC35451897_replica-1.pdb
 19 20 0 0 0
SMALL
GASTEIGER

@<TRIPOS>ATOM
      1  N1        10.2490   34.2970   61.2560 N.pl3   0  <0>0       -0.3340
      2  H12        9.3550   33.9270   61.3320 H       0  <0>0        0.1468
      3  C2        10.4740   35.5120   60.4690 C.3     0  <0>0        0.0695
      4  C1         9.9730   36.7270   61.2530 C.3     0  <0>0        0.0212
      5  C3         9.7140   35.4100   59.1450 C.3     0  <0>0        0.0274
      6  C4         8.9250   36.6990   58.9080 C.3     0  <0>0        0.0662
      7  C5         8.4000   36.7150   57.4970 C.ar    0  <0>0        0.1230
      8  O1         7.7380   37.7290   56.9160 O.2     0  <0>0       -0.4547
      9  C8         7.4260   37.3970   55.6530 C.ar    0  <0>0        0.1791
     10  C7         7.8830   36.1530   55.4160 C.ar    0  <0>0        0.0434
     11  C6         8.5110   35.7140   56.6040 C.ar    0  <0>0        0.0362
     12  C9        11.3220   33.6700   61.8970 C.ar    0  <0>0        0.0456
     13  C14       11.1350   32.4520   62.5350 C.ar    0  <0>0        0.0280
     14  C13       12.1990   31.8310   63.1640 C.ar    0  <0>0        0.0863
     15  C12       13.4480   32.4310   63.1660 C.ar    0  <0>0        0.1507
     16 Cl         11.9680   30.3040   63.9540 Cl      0  <0>0       -0.0799
     17  C11       13.6340   33.6490   62.5360 C.ar    0  <0>0        0.0318
     18  F1        14.4850   31.8260   63.7850 F       0  <0>0       -0.2033
     19  C10       12.5750   34.2690   61.9010 C.ar    0  <0>0        0.0167
@<TRIPOS>BOND
     1    10     9   ar
     2    10    11   ar
     3     9     8   ar
     4    11     7   ar
     5     8     7   ar
     6     7     6    1
     7     6     5    1
     8     5     3    1
     9     3     4    1
    10     3     1    1
    11     1     2    1
    12     1    12    1
    13    12    19   ar
    14    12    13   ar
    15    19    17   ar
    16    13    14   ar
    17    17    15   ar
    18    14    15   ar
    19    14    16    1
    20    15    18    1

@<TRIPOS>MOLECULE
ZINC51952287_replica-1.pdb
 19 20 0 0 0
SMALL
GASTEIGER

@<TRIPOS>ATOM
      1  C6        10.7530   34.6060   61.5080 C.ar    0  <0>0        0.0003
      2  C7        10.0950   34.0720   60.4160 C.ar    0  <0>0        0.0162
      3  C8         9.4610   34.9120   59.5150 C.ar    0  <0>0        0.0795
      4  C9         9.4880   36.2940   59.7130 C.ar    0  <0>0        0.0802
      5  C10       10.1500   36.8210   60.8110 C.ar    0  <0>0        0.0252
      6  C11       10.7750   35.9760   61.7090 C.ar    0  <0>0        0.0333
      7 Br         11.6700   36.6940   63.2110 Br      0  <0>0       -0.0492
      8  N1         8.7770   36.8660   58.6610 N.ar    0  <0>0       -0.2779
      9  C12        8.3380   35.8770   57.8600 C.ar    0  <0>0        0.3316
     10  O1         7.6820   36.0360   56.8460 O.2     0  <0>0       -0.2463
     11  N2         8.7340   34.6880   58.3470 N.ar    0  <0>0       -0.2779
     12  C13        8.4500   33.3790   57.7530 C.3     0  <0>0        0.1351
     13  C14        8.5460   38.2990   58.4600 C.3     0  <0>0        0.1351
     14  C5        11.4420   33.6930   62.4890 C.3     0  <0>0        0.1025
     15 Cl         10.5970   32.1010   62.5250 Cl      0  <0>0       -0.1102
     16  C4        12.8960   33.4900   62.0600 C.3     0  <0>0        0.0207
     17  C2        13.7660   33.2610   63.2980 C.3     0  <0>0        0.0016
     18  C1        13.8150   31.7650   63.6180 C.3     0  <0>0        0.0001
     19  C3        15.1830   33.7700   63.0280 C.3     0  <0>0        0.0001
@<TRIPOS>BOND
     1    10     9    2
     2    12    11    1
     3     9    11   ar
     4     9     8   ar
     5    11     3   ar
     6    13     8    1
     7     8     4   ar
     8     3     4   ar
     9     3     2   ar
    10     4     5   ar
    11     2     1   ar
    12     5     6   ar
    13     1     6   ar
    14     1    14    1
    15     6     7    1
    16    16    14    1
    17    16    17    1
    18    14    15    1
    19    19    17    1
    20    17    18    1

@<TRIPOS>MOLECULE
ZINC22229816_replica-1.pdb
 26 27 0 0 0
SMALL
GASTEIGER

@<TRIPOS>ATOM
      1  C8         0.7410   30.1830   58.4970 C.3     0  <0>0        0.0860
      2  C7         0.3910   31.6590   58.2920 C.3     0  <0>0        0.0254
      3  C3         1.5520   32.3660   57.6410 C.3     0  <0>0        0.1253
      4  C2         2.4940   32.9960   58.4010 C.2     0  <0>0        0.0976
      5  C1         2.3790   32.9880   59.9030 C.3     0  <0>0        0.0620
      6  N2         3.5130   33.6220   57.8170 N.2     0  <0>0       -0.3889
      7  C5         3.6450   33.6410   56.5050 C.2     0  <0>0        0.2122
      8  N1         2.7350   33.0300   55.6960 N.am    0  <0>0       -0.2542
      9  C4         1.6800   32.3860   56.2410 C.2     0  <0>0        0.2342
     10  H1         2.8430   33.0570   54.7320 H       0  <0>0        0.1577
     11  O1         0.8540   31.8340   55.5320 O.2     0  <0>0       -0.2743
     12  S1         5.0180   34.4790   55.7840 S.3     0  <0>0       -0.0660
     13  C6         4.5540   34.6660   54.0420 C.3     0  <0>0        0.0780
     14  C9        -0.0930   29.3360   57.5710 C.2     0  <0>0        0.2225
     15  O2        -1.2580   29.1210   57.8290 O.2     0  <0>0       -0.2751
     16  N3         0.4570   28.8170   56.4550 N.am    0  <0>0       -0.3040
     17  H13        1.3890   28.9900   56.2480 H       0  <0>0        0.1494
     18  C10       -0.3540   27.9940   55.5540 C.3     0  <0>0        0.0937
     19  C11       -0.3840   28.6370   54.1650 C.3     0  <0>0        0.0419
     20  C12       -1.4900   29.6920   54.1160 C.3     0  <0>0        0.0064
     21  C13       -0.6540   27.5780   53.1280 C.ar    0  <0>0       -0.0208
     22  C18       -1.4150   27.8800   52.0130 C.ar    0  <0>0       -0.0042
     23  C17       -1.6590   26.9090   51.0600 C.ar    0  <0>0       -0.0003
     24  C16       -1.1510   25.6340   51.2250 C.ar    0  <0>0       -0.0000
     25  C15       -0.3950   25.3300   52.3420 C.ar    0  <0>0       -0.0003
     26  C14       -0.1470   26.3030   53.2930 C.ar    0  <0>0       -0.0042
@<TRIPOS>BOND
     1    23    24   ar
     2    23    22   ar
     3    24    25   ar
     4    22    21   ar
     5    25    26   ar
     6    21    26   ar
     7    21    19    1
     8    13    12    1
     9    20    19    1
    10    19    18    1
    11    10     8    1
    12    11     9    2
    13    18    16    1
    14     8     9   am
    15     8     7    1
    16    12     7    1
    17     9     3    1
    18    17    16    1
    19    16    14   am
    20     7     6    2
    21    14    15    2
    22    14     1    1
    23     3     2    1
    24     3     4    1
    25     6     4    2
    26     2     1    1
    27     4     5    1

@<TRIPOS>MOLECULE
ZINC35451566_replica-1.pdb
 21 22 0 0 0
SMALL
GASTEIGER

@<TRIPOS>ATOM
      1  C15       11.9800   33.9050   62.1840 C.3     0  <0>0        0.3090
      2  C16       13.3390   33.7980   62.7380 C.1     0  <0>0        0.1218
      3  N2        14.3870   33.7150   63.1680 N.1     0  <0>0       -0.1920
      4  O2        11.6070   35.2820   62.0990 O.3     0  <0>0       -0.4593
      5  C12       10.7280   35.6250   61.1200 C.ar    0  <0>0        0.1402
      6  C11       10.0250   36.8170   61.2070 C.ar    0  <0>0        0.0382
      7  C10        9.1310   37.1660   60.2120 C.ar    0  <0>0        0.0174
      8  C9         8.9360   36.3230   59.1270 C.ar    0  <0>0        0.0448
      9  C14        9.6360   35.1260   59.0440 C.ar    0  <0>0        0.0174
     10  C13       10.5340   34.7810   60.0360 C.ar    0  <0>0        0.0382
     11  N1         8.0310   36.6750   58.1210 N.pl3   0  <0>0       -0.3340
     12  H12        7.0850   36.4830   58.2290 H       0  <0>0        0.1468
     13  C2         8.5090   37.3320   56.9020 C.3     0  <0>0        0.0695
     14  C1         8.6290   38.8370   57.1470 C.3     0  <0>0        0.0212
     15  C3         7.5180   37.0790   55.7640 C.3     0  <0>0        0.0274
     16  C4         7.3470   35.5720   55.5610 C.3     0  <0>0        0.0662
     17  C5         5.8830   35.2450   55.4360 C.ar    0  <0>0        0.1230
     18  O1         5.3700   34.0440   55.1200 O.2     0  <0>0       -0.4547
     19  C8         4.0300   34.1180   55.1030 C.ar    0  <0>0        0.1791
     20  C7         3.6710   35.3800   55.4010 C.ar    0  <0>0        0.0434
     21  C6         4.8650   36.1060   55.6160 C.ar    0  <0>0        0.0362
@<TRIPOS>BOND
     1    19    18   ar
     2    19    20   ar
     3    18    17   ar
     4    20    21   ar
     5    17    16    1
     6    17    21   ar
     7    16    15    1
     8    15    13    1
     9    13    14    1
    10    13    11    1
    11    11    12    1
    12    11     8    1
    13     9     8   ar
    14     9    10   ar
    15     8     7   ar
    16    10     5   ar
    17     7     6   ar
    18     5     6   ar
    19     5     4    1
    20     4     1    1
    21     1     2    1
    22     2     3    3

@<TRIPOS>MOLECULE
ZINC32473494_replica-1.pdb
 20 21 0 0 0
SMALL
GASTEIGER

@<TRIPOS>ATOM
      1  C6        10.6420   35.3870   60.8360 C.ar    0  <0>0        0.1219
      2  C7        10.2380   34.8550   59.6260 C.ar    0  <0>0        0.0196
      3  C8         9.3690   35.5620   58.8150 C.ar    0  <0>0       -0.0029
      4  C9         8.9060   36.8020   59.2150 C.ar    0  <0>0       -0.0227
      5  C10        9.3110   37.3340   60.4250 C.ar    0  <0>0       -0.0029
      6  C11       10.1760   36.6240   61.2380 C.ar    0  <0>0        0.0196
      7  S1        11.7490   34.4840   61.8680 S.O2    0  <0>0        0.0602
      8  O1        11.7430   35.1310   63.1330 O.2     0  <0>0       -0.1530
      9  O2        12.9390   34.2900   61.1170 O.2     0  <0>0       -0.1530
     10  N1        11.0870   32.9840   62.1010 N.3     0  <0>0       -0.1794
     11  H10       10.6320   32.5350   61.3710 H       0  <0>0        0.1488
     12  C5        11.1890   32.3340   63.4100 C.3     0  <0>0        0.0914
     13  C4        11.7750   30.9300   63.2380 C.3     0  <0>0        0.0175
     14  C2        13.2830   30.7660   63.4390 C.3     0  <0>0        0.0014
     15  C1        14.0900   32.0160   63.7960 C.3     0  <0>0        0.0000
     16  C3        12.3080   30.2290   64.4900 C.3     0  <0>0        0.0015
     17  C12        7.9610   37.5740   58.3320 C.3     0  <0>0        0.0189
     18  C13        7.3840   38.7560   59.1140 C.3     0  <0>0        0.0044
     19  C14        8.7150   38.0930   57.1060 C.3     0  <0>0        0.0044
     20  C15        6.8220   36.6580   57.8800 C.3     0  <0>0        0.0044
@<TRIPOS>BOND
     1    19    17    1
     2    20    17    1
     3    17    18    1
     4    17     4    1
     5     3     4   ar
     6     3     2   ar
     7     4     5   ar
     8     2     1   ar
     9     5     6   ar
    10     1     6   ar
    11     1     7    1
    12     9     7    2
    13    11    10    1
    14     7    10    1
    15     7     8    2
    16    10    12    1
    17    13    12    1
    18    13    14    1
    19    13    16    1
    20    14    15    1
    21    14    16    1

@<TRIPOS>MOLECULE
ZINC27469731_replica-1.pdb
 20 21 0 0 0
SMALL
GASTEIGER

@<TRIPOS>ATOM
      1  C5         8.8420   36.8760   59.0340 C.ar    0  <0>0       -0.0228
      2  C6         9.3280   37.2630   60.2710 C.ar    0  <0>0       -0.0043
      3  C7        10.1150   36.4030   61.0060 C.ar    0  <0>0       -0.0003
      4  C8        10.4220   35.1360   60.4980 C.ar    0  <0>0        0.0001
      5  C9         9.9320   34.7550   59.2450 C.ar    0  <0>0       -0.0003
      6  C10        9.1420   35.6260   58.5240 C.ar    0  <0>0       -0.0043
      7  C11       11.2630   34.2110   61.2760 C.2     0  <0>0        0.0047
      8  C12       12.2230   34.6940   62.0890 C.2     0  <0>0        0.0577
      9  C13       13.0600   33.7730   62.8610 C.2     0  <0>0        0.2460
     10  O1        14.0780   34.1770   63.3910 O.2     0  <0>0       -0.2701
     11  N1        12.7050   32.4790   62.9830 N.am    0  <0>0       -0.3009
     12  H16       11.7840   32.1140   62.5020 H       0  <0>0        0.1497
     13  C14       13.5420   31.5580   63.7540 C.3     0  <0>0        0.0896
     14  C15       12.9590   30.1460   63.6710 C.3     0  <0>0        0.0196
     15  C17       12.6150   29.4460   64.9870 C.3     0  <0>0        0.0017
     16  C16       11.4970   29.9610   64.0800 C.3     0  <0>0        0.0017
     17  C2         7.9820   37.8240   58.2370 C.3     0  <0>0        0.0189
     18  C1         6.9630   37.0250   57.4220 C.3     0  <0>0        0.0044
     19  C3         7.2450   38.7670   59.1900 C.3     0  <0>0        0.0044
     20  C4         8.8640   38.6410   57.2920 C.3     0  <0>0        0.0044
@<TRIPOS>BOND
     1    20    17    1
     2    18    17    1
     3    17     1    1
     4    17    19    1
     5     6     1   ar
     6     6     5   ar
     7     1     2   ar
     8     5     4   ar
     9     2     3   ar
    10     4     3   ar
    11     4     7    1
    12     7     8    2
    13     8     9    1
    14    12    11    1
    15     9    11   am
    16     9    10    2
    17    11    13    1
    18    14    13    1
    19    14    16    1
    20    14    15    1
    21    16    15    1

@<TRIPOS>MOLECULE
ZINC37934709_replica-1.pdb
 21 22 0 0 0
SMALL
GASTEIGER

@<TRIPOS>ATOM
      1  N1         0.7050   30.1180   56.2160 N.4     0  <0>0        0.3899
      2  H10        0.2730   30.9490   55.8390 H       0  <0>0       -0.0838
      3  H24        1.6320   30.0170   55.8310 H       0  <0>0       -0.0838
      4  C6         0.7910   30.2330   57.6780 C.3     0  <0>0       -0.0027
      5  C7        -0.2830   29.3540   58.3240 C.3     0  <0>0       -0.0157
      6  C5         0.5770   31.6680   58.0830 C.ar    0  <0>0        0.1026
      7  C4         0.1860   32.6660   57.2710 C.ar    0  <0>0        0.0336
      8  C3         0.1120   33.8350   58.0630 C.ar    0  <0>0        0.0356
      9  C2         0.4620   33.4820   59.3120 C.ar    0  <0>0        0.1227
     10  C1         0.5290   34.4040   60.5020 C.3     0  <0>0        0.0725
     11  O1         0.7480   32.1690   59.3180 O.2     0  <0>0       -0.4641
     12  C8        -0.1030   28.9430   55.8640 C.3     0  <0>0       -0.0768
     13  C9        -1.0910   29.3160   54.7570 C.3     0  <0>0       -0.0004
     14  C10       -2.5130   29.3250   55.3230 C.3     0  <0>0        0.0022
     15  C11       -0.7490   30.7060   54.2160 C.3     0  <0>0        0.0022
     16  C12       -1.0010   28.3070   53.6410 C.ar    0  <0>0       -0.0248
     17  C17       -0.3010   27.1290   53.8300 C.ar    0  <0>0       -0.0044
     18  C16       -0.2220   26.2020   52.8080 C.ar    0  <0>0       -0.0003
     19  C15       -0.8340   26.4550   51.5950 C.ar    0  <0>0       -0.0000
     20  C14       -1.5290   27.6350   51.4050 C.ar    0  <0>0       -0.0003
     21  C13       -1.6120   28.5610   52.4280 C.ar    0  <0>0       -0.0044
@<TRIPOS>BOND
     1    20    19   ar
     2    20    21   ar
     3    19    18   ar
     4    21    16   ar
     5    18    17   ar
     6    16    17   ar
     7    16    13    1
     8    15    13    1
     9    13    14    1
    10    13    12    1
    11     3     1    1
    12     2     1    1
    13    12     1    1
    14     1     4    1
    15     7     8   ar
    16     7     6   ar
    17     4     6    1
    18     4     5    1
    19     8     9   ar
    20     6    11   ar
    21     9    11   ar
    22     9    10    1

@<TRIPOS>MOLECULE
ZINC49544278_replica-1.pdb
 22 23 0 0 0
SMALL
GASTEIGER

@<TRIPOS>ATOM
      1  N1        -0.5680   31.8410   55.0810 N.3     0  <0>0       -0.2924
      2  H13       -1.5120   32.1290   54.8690 H       0  <0>0        0.1236
      3  C4        -0.3290   31.8420   56.5310 C.3     0  <0>0        0.0829
      4  C3         0.2090   30.4770   56.9600 C.3     0  <0>0        0.0208
      5  C2        -0.5750   29.9770   58.1750 C.3     0  <0>0        0.0017
      6  C1         0.2270   30.2520   59.4490 C.3     0  <0>0        0.0001
      7  C5         0.6780   32.9090   56.8720 C.ar    0  <0>0        0.0215
      8  S1         2.4230   32.9700   56.4990 S.2     0  <0>0       -0.0895
      9  C8         2.7890   34.5430   57.2610 C.ar    0  <0>0        0.0352
     10  C7         1.5780   34.9070   57.7470 C.ar    0  <0>0        0.0072
     11  C6         0.4960   34.0710   57.5470 C.ar    0  <0>0        0.0040
     12  C9        -0.2750   30.5240   54.5010 C.3     0  <0>0        0.1030
     13  C10       -1.5340   29.9700   53.8320 C.3     0  <0>0        0.1485
     14  C11       -1.2210   28.6410   53.1940 C.ar    0  <0>0        0.0078
     15  C16       -0.4480   27.7150   53.8700 C.ar    0  <0>0        0.0277
     16  C15       -0.1660   26.4910   53.2860 C.ar    0  <0>0        0.1399
     17  C14       -0.6500   26.2020   52.0220 C.ar    0  <0>0        0.0296
     18  F1         0.5840   25.5840   53.9470 F       0  <0>0       -0.2042
     19  C13       -1.4180   27.1310   51.3450 C.ar    0  <0>0        0.0021
     20  C12       -1.7030   28.3490   51.9320 C.ar    0  <0>0       -0.0018
     21  O1        -2.5580   29.7970   54.8140 O.3     0  <0>0       -0.3786
     22  H20       -2.7190   30.5810   55.3570 H       0  <0>0        0.2108
@<TRIPOS>BOND
     1    19    20   ar
     2    19    17   ar
     3    20    14   ar
     4    17    16   ar
     5    14    13    1
     6    14    15   ar
     7    16    15   ar
     8    16    18    1
     9    13    12    1
    10    13    21    1
    11    12     1    1
    12    21    22    1
    13     2     1    1
    14     1     3    1
    15     8     7   ar
    16     8     9   ar
    17     3     7    1
    18     3     4    1
    19     7    11   ar
    20     4     5    1
    21     9    10   ar
    22    11    10   ar
    23     5     6    1

@<TRIPOS>MOLECULE
ZINC52098428_replica-1.pdb
 22 23 0 0 0
SMALL
GASTEIGER

@<TRIPOS>ATOM
      1  N1         0.0430   30.0180   55.5940 N.3     0  <0>0       -0.2925
      2  H12       -0.2080   30.9190   55.2160 H       0  <0>0        0.1236
      3  C4        -0.0830   30.0070   57.0580 C.3     0  <0>0        0.0829
      4  C3        -1.5070   29.6020   57.4440 C.3     0  <0>0        0.0208
      5  C2        -1.4570   28.6000   58.5980 C.3     0  <0>0        0.0017
      6  C1        -2.3020   27.3730   58.2460 C.3     0  <0>0        0.0001
      7  C5         0.2120   31.3820   57.5980 C.ar    0  <0>0        0.0215
      8  S1         0.7810   31.8530   59.2240 S.2     0  <0>0       -0.0895
      9  C8         0.8510   33.6180   58.9650 C.ar    0  <0>0        0.0352
     10  C7         0.4360   33.7290   57.6790 C.ar    0  <0>0        0.0072
     11  C6         0.1090   32.5830   56.9790 C.ar    0  <0>0        0.0040
     12  C9        -0.7640   28.9510   54.9880 C.3     0  <0>0        0.1003
     13  C10        0.1580   27.8470   54.4670 C.3     0  <0>0        0.1215
     14  C11        0.3190   26.7680   55.5410 C.3     0  <0>0        0.0353
     15  C12       -0.4380   27.2360   53.2260 C.ar    0  <0>0        0.0030
     16  C17       -0.2040   25.9070   52.9290 C.ar    0  <0>0       -0.0020
     17  C16       -0.7560   25.3450   51.7920 C.ar    0  <0>0       -0.0002
     18  C15       -1.5340   26.1160   50.9480 C.ar    0  <0>0       -0.0000
     19  C14       -1.7640   27.4470   51.2430 C.ar    0  <0>0       -0.0002
     20  C13       -1.2160   28.0070   52.3820 C.ar    0  <0>0       -0.0020
     21  O1         1.4380   28.4030   54.1560 O.3     0  <0>0       -0.3813
     22  H23        1.4290   29.3600   54.0240 H       0  <0>0        0.2107
@<TRIPOS>BOND
     1    18    19   ar
     2    18    17   ar
     3    19    20   ar
     4    17    16   ar
     5    20    15   ar
     6    16    15   ar
     7    15    13    1
     8    22    21    1
     9    21    13    1
    10    13    12    1
    11    13    14    1
    12    12     1    1
    13     2     1    1
    14     1     3    1
    15    11     7   ar
    16    11    10   ar
    17     3     4    1
    18     3     7    1
    19     4     5    1
    20     7     8   ar
    21    10     9   ar
    22     6     5    1
    23     9     8   ar

@<TRIPOS>MOLECULE
ZINC37383525_replica-1.pdb
 18 19 0 0 0
SMALL
GASTEIGER

@<TRIPOS>ATOM
      1  S2        -1.3100   29.4630   54.2260 S.O2    0  <0>0        0.1027
      2  O1        -1.7930   28.9130   55.4440 O.2     0  <0>0       -0.1462
      3  O2        -1.9810   30.5140   53.5460 O.2     0  <0>0       -0.1462
      4  N2         0.2280   29.9990   54.5270 N.2     0  <0>0       -0.1033
      5  C4         0.4410   30.8800   55.4730 C.ar    0  <0>0        0.1921
      6  S1        -0.7250   31.6610   56.5770 S.2     0  <0>0       -0.0475
      7  N1         1.6260   31.4570   55.8780 N.ar    0  <0>0       -0.3350
      8  C3         0.4350   32.6720   57.4820 C.ar    0  <0>0        0.0509
      9  C2         1.5930   32.3580   56.9020 C.ar    0  <0>0        0.0421
     10  C1         2.8700   33.0040   57.3750 C.3     0  <0>0        0.0504
     11  H9         2.4630   31.2250   55.4480 H       0  <0>0        0.1676
     12  C5        -1.1820   28.1260   53.0860 C.ar    0  <0>0        0.1354
     13  C10       -0.4640   26.9940   53.4240 C.ar    0  <0>0        0.0537
     14  C9        -0.3690   25.9420   52.5310 C.ar    0  <0>0        0.0081
     15 Br          0.3820   26.8800   55.1120 Br      0  <0>0       -0.0476
     16  C8        -0.9820   26.0280   51.2960 C.ar    0  <0>0        0.0006
     17  C7        -1.6970   27.1610   50.9560 C.ar    0  <0>0        0.0014
     18  C6        -1.7960   28.2100   51.8490 C.ar    0  <0>0        0.0210
@<TRIPOS>BOND
     1    17    16   ar
     2    17    18   ar
     3    16    14   ar
     4    18    12   ar
     5    14    13   ar
     6    12    13   ar
     7    12     1    1
     8    13    15    1
     9     3     1    2
    10     1     4    1
    11     1     2    2
    12     4     5    2
    13    11     7    1
    14     5     7   ar
    15     5     6   ar
    16     7     9   ar
    17     6     8   ar
    18     9    10    1
    19     9     8   ar

@<TRIPOS>MOLECULE
ZINC36955284_replica-1.pdb
 18 18 0 0 0
SMALL
GASTEIGER

@<TRIPOS>ATOM
      1  C6        10.8280   35.1550   60.7370 C.ar    0  <0>0        0.0566
      2  C7        10.0880   34.8890   59.5930 C.ar    0  <0>0        0.0335
      3  C8         9.1440   35.7990   59.1570 C.ar    0  <0>0        0.1070
      4  C9         8.9360   36.9720   59.8570 C.ar    0  <0>0        0.0193
      5  C10        9.6710   37.2410   60.9970 C.ar    0  <0>0        0.0140
      6  C11       10.6140   36.3330   61.4430 C.ar    0  <0>0        0.0708
      7 Cl         11.5320   36.6670   62.8780 Cl      0  <0>0       -0.0810
      8  N1        11.7840   34.2370   61.1810 N.pl3   0  <0>0       -0.3334
      9  H12       12.5940   34.0940   60.6680 H       0  <0>0        0.1468
     10  C4        11.5620   33.4900   62.4220 C.3     0  <0>0        0.0691
     11  C5        10.5550   32.3660   62.1680 C.3     0  <0>0        0.0212
     12  C3        12.8860   32.8910   62.9010 C.3     0  <0>0        0.0195
     13  C2        14.0430   33.7840   62.4470 C.3     0  <0>0        0.0017
     14  C1        15.1580   33.7440   63.4940 C.3     0  <0>0        0.0001
     15  S1         8.2030   35.4620   57.7050 S.O2    0  <0>0        0.0105
     16  O1         8.5170   36.5250   56.8160 O.2     0  <0>0       -0.1686
     17  O2         8.5230   34.1180   57.3700 O.2     0  <0>0       -0.1686
     18  C12        6.4720   35.5810   58.2330 C.3     0  <0>0        0.1816
@<TRIPOS>BOND
     1    16    15    2
     2    17    15    2
     3    15    18    1
     4    15     3    1
     5     3     2   ar
     6     3     4   ar
     7     2     1   ar
     8     4     5   ar
     9     9     8    1
    10     1     8    1
    11     1     6   ar
    12     5     6   ar
    13     8    10    1
    14     6     7    1
    15    11    10    1
    16    10    12    1
    17    13    12    1
    18    13    14    1

@<TRIPOS>MOLECULE
ZINC37890311_replica-1.pdb
 22 23 0 0 0
SMALL
GASTEIGER

@<TRIPOS>ATOM
      1  C8         7.8130   36.5210   55.3480 C.3     0  <0>0        0.1484
      2  C7         6.5640   35.6400   55.2950 C.3     0  <0>0        0.1030
      3  N1         5.4320   36.3600   55.8940 N.3     0  <0>0       -0.2924
      4  H9         4.9060   36.8570   55.1910 H       0  <0>0        0.1236
      5  C2         4.5650   35.4430   56.6480 C.3     0  <0>0        0.0830
      6  C1         4.5570   34.0730   55.9680 C.3     0  <0>0        0.0225
      7  C3         5.0860   35.3030   58.0560 C.ar    0  <0>0        0.0215
      8  S1         5.6590   33.8380   58.9010 S.2     0  <0>0       -0.0895
      9  C6         6.0660   34.5940   60.4660 C.ar    0  <0>0        0.0352
     10  C5         5.7370   35.8900   60.2450 C.ar    0  <0>0        0.0072
     11  C4         5.2340   36.2530   59.0100 C.ar    0  <0>0        0.0040
     12  C9         8.3460   36.5530   56.7560 C.ar    0  <0>0        0.0056
     13  C14        8.8280   35.3950   57.3390 C.ar    0  <0>0       -0.0022
     14  C13        9.3220   35.4260   58.6300 C.ar    0  <0>0       -0.0045
     15  C12        9.3250   36.6120   59.3420 C.ar    0  <0>0       -0.0225
     16  C11        8.8390   37.7670   58.7610 C.ar    0  <0>0       -0.0045
     17  C10        8.3480   37.7380   57.4680 C.ar    0  <0>0       -0.0022
     18  C15        9.8590   36.6430   60.7500 C.3     0  <0>0        0.0224
     19  C16        8.7170   36.9470   61.7230 C.3     0  <0>0        0.0047
     20  C17       10.4730   35.2850   61.0940 C.3     0  <0>0        0.0047
     21  O1         7.4780   37.8470   54.9350 O.3     0  <0>0       -0.3786
     22  H23        7.9460   38.1420   54.1410 H       0  <0>0        0.2108
@<TRIPOS>BOND
     1    22    21    1
     2    21     1    1
     3     4     3    1
     4     2     1    1
     5     2     3    1
     6     1    12    1
     7     3     5    1
     8     6     5    1
     9     5     7    1
    10    12    13   ar
    11    12    17   ar
    12    13    14   ar
    13    17    16   ar
    14     7     8   ar
    15     7    11   ar
    16    14    15   ar
    17    16    15   ar
    18     8     9   ar
    19    11    10   ar
    20    15    18    1
    21    10     9   ar
    22    18    20    1
    23    18    19    1

@<TRIPOS>MOLECULE
ZINC63048968_replica-1.pdb
 19 20 0 0 0
SMALL
GASTEIGER

@<TRIPOS>ATOM
      1  C6        -0.1950   30.3410   55.6810 C.3     0  <0>0        0.0972
      2  N3         1.0740   31.0500   55.5040 N.pl3   0  <0>0       -0.2777
      3  C4         1.3140   32.2230   56.1970 C.1     0  <0>0        0.0869
      4  N1         2.4670   32.8520   56.0250 N.2     0  <0>0       -0.2034
      5  N2         0.3850   32.6900   57.0190 N.2     0  <0>0       -0.1810
      6  C3         2.7280   33.9750   56.6730 C.3     0  <0>0        0.1613
      7  C2         1.7790   34.4920   57.5400 C.2     0  <0>0        0.0010
      8  C1         2.0410   35.7700   58.2960 C.3     0  <0>0        0.0301
      9  C5         0.5850   33.8050   57.7010 C.2     0  <0>0        0.1042
     10  H7         1.7460   30.6980   54.9000 H       0  <0>0        0.1583
     11  C7        -0.5330   29.5700   54.4030 C.3     0  <0>0        0.0262
     12  C8         0.1900   28.2220   54.4130 C.3     0  <0>0        0.0241
     13  C9        -0.0600   27.5190   55.7480 C.3     0  <0>0        0.0047
     14  C10       -0.3300   27.3650   53.2890 C.ar    0  <0>0       -0.0224
     15  C15       -1.1410   27.9170   52.3150 C.ar    0  <0>0       -0.0043
     16  C14       -1.6150   27.1320   51.2820 C.ar    0  <0>0       -0.0003
     17  C13       -1.2850   25.7900   51.2260 C.ar    0  <0>0       -0.0000
     18  C12       -0.4770   25.2370   52.2020 C.ar    0  <0>0       -0.0003
     19  C11       -0.0010   26.0240   53.2330 C.ar    0  <0>0       -0.0043
@<TRIPOS>BOND
     1    17    16   ar
     2    17    18   ar
     3    16    15   ar
     4    18    19   ar
     5    15    14   ar
     6    19    14   ar
     7    14    12    1
     8    11    12    1
     9    11     1    1
    10    12    13    1
    11    10     2    1
    12     2     1    1
    13     2     3    1
    14     4     3    2
    15     4     6    1
    16     3     5    2
    17     6     7    1
    18     5     9    1
    19     7     9    2
    20     7     8    1

@<TRIPOS>MOLECULE
ZINC35017132_replica-1.pdb
 20 21 0 0 0
SMALL
GASTEIGER

@<TRIPOS>ATOM
      1  N1        -0.7350   29.6480   55.7880 N.3     0  <0>0       -0.2944
      2  H8        -0.9550   30.6120   55.9860 H       0  <0>0        0.1235
      3  C3        -0.0230   29.5220   54.5090 C.3     0  <0>0        0.0731
      4  C2        -1.0370   29.4840   53.3630 C.3     0  <0>0        0.0381
      5  C1        -2.4350   29.7780   53.9080 C.3     0  <0>0        0.0061
      6  C12       -1.0220   28.1180   52.7270 C.ar    0  <0>0       -0.0212
      7  C17       -0.3160   27.0870   53.3180 C.ar    0  <0>0       -0.0042
      8  C16       -0.3060   25.8340   52.7370 C.ar    0  <0>0       -0.0003
      9  C15       -0.9940   25.6120   51.5590 C.ar    0  <0>0       -0.0000
     10  C14       -1.6960   26.6440   50.9640 C.ar    0  <0>0       -0.0003
     11  C13       -1.7100   27.8970   51.5480 C.ar    0  <0>0       -0.0042
     12  C4         0.0390   29.0490   56.8830 C.3     0  <0>0        0.0828
     13  C5         0.3310   30.0980   57.9250 C.ar    0  <0>0        0.0215
     14  S1         0.8890   31.7770   57.7020 S.2     0  <0>0       -0.0895
     15  C8         0.9600   32.2500   59.4230 C.ar    0  <0>0        0.0352
     16  C7         0.5670   31.1100   60.0420 C.ar    0  <0>0        0.0072
     17  C6         0.2440   30.0070   59.2740 C.ar    0  <0>0        0.0040
     18  C9        -0.7670   27.9120   57.5160 C.3     0  <0>0        0.0191
     19  C10       -2.2510   28.0940   57.1870 C.3     0  <0>0        0.0017
     20  C11       -0.2820   26.5720   56.9600 C.3     0  <0>0        0.0017
@<TRIPOS>BOND
     1    10    11   ar
     2    10     9   ar
     3    11     6   ar
     4     9     8   ar
     5     6     7   ar
     6     6     4    1
     7     8     7   ar
     8     4     5    1
     9     4     3    1
    10     3     1    1
    11     1     2    1
    12     1    12    1
    13    12    18    1
    14    12    13    1
    15    20    18    1
    16    19    18    1
    17    14    13   ar
    18    14    15   ar
    19    13    17   ar
    20    17    16   ar
    21    15    16   ar

@<TRIPOS>MOLECULE
ZINC67339890_replica-1.pdb
 21 23 0 0 0
SMALL
GASTEIGER

@<TRIPOS>ATOM
      1  C9        -0.4030   30.5800   54.6860 C.2     0  <0>0        0.0422
      2  C10        0.5070   30.6800   55.6860 C.2     0  <0>0        0.0612
      3  C8        -0.5400   29.3280   53.9470 C.ar    0  <0>0        0.1455
      4  C7         0.0230   28.1390   54.3040 C.ar    0  <0>0        0.0405
      5  C4        -0.3810   27.1760   53.2810 C.ar    0  <0>0        0.0381
      6  C3        -1.1770   27.8970   52.3710 C.ar    0  <0>0        0.1453
      7  C5        -0.1390   25.8150   53.0750 C.ar    0  <0>0        0.0098
      8  C2        -1.7150   27.2390   51.2730 C.ar    0  <0>0        0.0380
      9  O1        -1.2450   29.1710   52.8070 O.2     0  <0>0       -0.4535
     10  C1        -1.4650   25.8950   51.0870 C.ar    0  <0>0        0.0098
     11  C6        -0.6790   25.1890   51.9870 C.ar    0  <0>0        0.0348
     12 Br         -0.3540   23.3470   51.7060 Br      0  <0>0       -0.0490
     13  C11        0.6400   31.8960   56.4030 C.2     0  <0>0        0.2512
     14  O2        -0.1590   32.1780   57.2760 O.2     0  <0>0       -0.2698
     15  N1         1.6540   32.7370   56.1200 N.am    0  <0>0       -0.2606
     16  H7         2.2910   32.5120   55.4240 H       0  <0>0        0.1571
     17  C12        1.7860   33.9270   56.8220 C.ar    0  <0>0        0.1658
     18  S1         2.6610   34.2210   58.2290 S.2     0  <0>0       -0.0508
     19  C14        2.2750   35.9550   58.4020 C.ar    0  <0>0        0.0588
     20  C13        1.4750   36.1450   57.3240 C.ar    0  <0>0        0.1079
     21  N2         1.2520   35.0990   56.5500 N.ar    0  <0>0       -0.2224
@<TRIPOS>BOND
     1    10     8   ar
     2    10    11   ar
     3     8     6   ar
     4    12    11    1
     5    11     7   ar
     6     6     9   ar
     7     6     5   ar
     8     9     3   ar
     9     7     5   ar
    10     5     4   ar
    11     3     4   ar
    12     3     1    1
    13     1     2    2
    14    16    15    1
    15     2    13    1
    16    15    13   am
    17    15    17    1
    18    13    14    2
    19    21    17   ar
    20    21    20   ar
    21    17    18   ar
    22    20    19   ar
    23    18    19   ar

@<TRIPOS>MOLECULE
ZINC02757118_replica-1.pdb
 22 24 0 0 0
SMALL
GASTEIGER

@<TRIPOS>ATOM
      1  C6        -0.5780   29.3460   54.9460 C.ar    0  <0>0        0.0937
      2  C7        -1.2110   29.2570   53.7430 C.ar    0  <0>0        0.0685
      3  C8        -1.0930   28.0830   52.9750 C.ar    0  <0>0        0.0172
      4  C9        -1.6670   27.8020   51.7090 C.ar    0  <0>0        0.0010
      5  C10       -1.4580   26.6060   51.1010 C.ar    0  <0>0       -0.0042
      6  C11       -0.6790   25.6170   51.6890 C.ar    0  <0>0       -0.0214
      7  C12       -0.1000   25.8490   52.9210 C.ar    0  <0>0        0.0022
      8  C13       -0.3050   27.0580   53.5500 C.ar    0  <0>0        0.0301
      9  S2         0.2280   27.7610   55.0910 S.2     0  <0>0       -0.0816
     10  C14       -0.4670   24.3000   50.9880 C.3     0  <0>0        0.0310
     11 Cl         -2.1570   30.5890   53.1580 Cl      0  <0>0       -0.0816
     12  C5        -0.5650   30.4680   55.8920 C.2     0  <0>0        0.2578
     13  N3         0.5890   31.1100   56.1610 N.am    0  <0>0       -0.2588
     14  H6         1.4110   30.8310   55.7290 H       0  <0>0        0.1571
     15  O1        -1.5970   30.8180   56.4340 O.2     0  <0>0       -0.2692
     16  C4         0.6000   32.1720   57.0580 C.ar    0  <0>0        0.1880
     17  N2         0.5670   33.4780   56.8340 N.ar    0  <0>0       -0.1256
     18  N1         0.5840   34.3150   57.7780 N.ar    0  <0>0       -0.1440
     19  C3         0.6370   33.9460   59.0420 C.ar    0  <0>0        0.1123
     20  S1         0.6710   32.1670   58.8460 S.2     0  <0>0       -0.0347
     21  C2         0.6650   34.7840   60.2940 C.3     0  <0>0        0.0545
     22  C1        -0.0710   34.0490   61.4160 C.3     0  <0>0        0.0073
@<TRIPOS>BOND
     1    10     6    1
     2     5     6   ar
     3     5     4   ar
     4     6     7   ar
     5     4     3   ar
     6     7     8   ar
     7     3     8   ar
     8     3     2   ar
     9    11     2    1
    10     8     9   ar
    11     2     1   ar
    12     1     9   ar
    13     1    12    1
    14    14    13    1
    15    12    13   am
    16    12    15    2
    17    13    16    1
    18    17    16   ar
    19    17    18   ar
    20    16    20   ar
    21    18    19   ar
    22    20    19   ar
    23    19    21    1
    24    21    22    1

