@<TRIPOS>MOLECULE
ZINC56838400_replica-1.pdb
 26 28 0 0 0
SMALL
GASTEIGER

@<TRIPOS>ATOM
      1  C7         9.4320   34.0900   60.1380 C.3     0  <0>0        0.1182
      2  N2         8.4170   33.1300   60.5810 N.am    0  <0>0       -0.2829
      3  C6         8.0110   32.1480   59.7520 C.2     0  <0>0        0.3045
      4  N1         7.0060   31.3300   60.1200 N.am    0  <0>0       -0.2608
      5  O2         8.5530   32.0000   58.6750 O.2     0  <0>0       -0.2526
      6  C2         6.6260   30.1750   59.2890 C.3     0  <0>0        0.1065
      7  C5         6.2540   31.5630   61.3640 C.3     0  <0>0        0.1270
      8  C1         7.6680   29.9690   58.1880 C.3     0  <0>0        0.0242
      9  C3         6.5680   28.9330   60.1850 C.3     0  <0>0        0.1619
     10  O1         5.7340   29.2050   61.3130 O.3     0  <0>0       -0.3502
     11  C4         6.2130   30.2530   62.1580 C.3     0  <0>0        0.1637
     12  H11        8.0380   33.2020   61.4710 H       0  <0>0        0.1515
     13  C8         8.7880   35.4350   59.9160 C.ar    0  <0>0       -0.0001
     14  C13        7.8140   35.8860   60.7860 C.ar    0  <0>0       -0.0001
     15  C12        7.2260   37.1200   60.5870 C.ar    0  <0>0        0.0294
     16  C11        7.6050   37.9010   59.5080 C.ar    0  <0>0        0.1401
     17  C10        8.5770   37.4460   58.6330 C.ar    0  <0>0        0.0294
     18  F1         7.0270   39.1060   59.3090 F       0  <0>0       -0.2042
     19  C9         9.1670   36.2130   58.8380 C.ar    0  <0>0       -0.0001
     20  C14       10.5010   34.2130   61.1930 C.ar    0  <0>0       -0.0001
     21  C19       10.9160   33.0930   61.8880 C.ar    0  <0>0       -0.0001
     22  C18       11.8990   33.2030   62.8530 C.ar    0  <0>0        0.0294
     23  C17       12.4610   34.4370   63.1310 C.ar    0  <0>0        0.1401
     24  C16       12.0400   35.5590   62.4380 C.ar    0  <0>0        0.0294
     25  F2        13.4180   34.5470   64.0770 F       0  <0>0       -0.2042
     26  C15       11.0610   35.4460   61.4700 C.ar    0  <0>0       -0.0001
@<TRIPOS>BOND
     1     8     6    1
     2    17    19   ar
     3    17    16   ar
     4     5     3    2
     5    19    13   ar
     6     6     4    1
     7     6     9    1
     8    18    16    1
     9    16    15   ar
    10     3     4   am
    11     3     2   am
    12    13     1    1
    13    13    14   ar
    14     4     7    1
    15     1     2    1
    16     1    20    1
    17     9    10    1
    18     2    12    1
    19    15    14   ar
    20    20    26   ar
    21    20    21   ar
    22    10    11    1
    23     7    11    1
    24    26    24   ar
    25    21    22   ar
    26    24    23   ar
    27    22    23   ar
    28    23    25    1

@<TRIPOS>MOLECULE
ZINC19813857_replica-1.pdb
 35 38 0 0 0
SMALL
GASTEIGER

@<TRIPOS>ATOM
      1  C1         5.1240   35.3460   60.3450 C.3     0  <0>0        0.0319
      2  C2         4.6010   34.7730   59.0530 C.2     0  <0>0       -0.0063
      3  C3         3.5700   33.8280   59.0500 C.2     0  <0>0        0.1079
      4  C4         3.1100   33.3180   57.8210 C.2     0  <0>0        0.1863
      5  N1         3.6380   33.7170   56.6780 N.2     0  <0>0       -0.3861
      6  C5         4.6200   34.6140   56.6370 C.2     0  <0>0        0.1416
      7  C6         5.1310   35.1690   57.8310 C.2     0  <0>0        0.0232
      8  C7         6.1960   36.1160   57.4470 C.2     0  <0>0       -0.0188
      9  C22        6.2960   36.1040   56.0380 C.2     0  <0>0       -0.0133
     10  C23        5.3660   35.2240   55.5240 C.2     0  <0>0        0.0937
     11  C24        5.1630   34.9460   54.1340 C.1     0  <0>0        0.1027
     12  N2         5.0010   34.7260   53.0300 N.1     0  <0>0       -0.1908
     13  C25        7.2610   36.9280   55.2240 C.3     0  <0>0        0.0315
     14  C26        2.9880   33.3860   60.2820 C.1     0  <0>0        0.1040
     15  N4         2.5260   33.0350   61.2590 N.1     0  <0>0       -0.1907
     16  C8         6.9600   36.8780   58.3120 C.3     0  <0>0        0.0524
     17  C9         8.1580   36.3070   58.9250 C.ar    0  <0>0       -0.0176
     18  C14        8.6180   36.7920   60.1600 C.ar    0  <0>0       -0.0008
     19  C13        9.7370   36.2540   60.7280 C.ar    0  <0>0        0.0366
     20  C12       10.4220   35.2270   60.0860 C.ar    0  <0>0        0.1390
     21  C11        9.9720   34.7410   58.8620 C.ar    0  <0>0        0.0366
     22  C10        8.8510   35.2670   58.2860 C.ar    0  <0>0       -0.0008
     23  O1        11.5340   34.6970   60.6550 O.3     0  <0>0       -0.4706
     24  C15       11.6300   34.7650   62.0790 C.3     0  <0>0        0.2328
     25  C16       11.9220   33.3940   62.6290 C.ar    0  <0>0        0.0318
     26  C21       13.2300   33.0070   62.8630 C.ar    0  <0>0        0.0580
     27  C20       13.4980   31.7470   63.3680 C.ar    0  <0>0        0.0226
     28 Cl         14.5330   34.1030   62.5240 Cl      0  <0>0       -0.0824
     29  C19       12.4600   30.8750   63.6390 C.ar    0  <0>0        0.0585
     30  C18       11.1520   31.2630   63.4040 C.ar    0  <0>0        0.0112
     31 Cl         12.7950   29.2950   64.2730 Cl      0  <0>0       -0.0822
     32  C17       10.8840   32.5230   62.9040 C.ar    0  <0>0        0.0010
     33  N3         2.0890   32.3830   57.8100 N.pl3   0  <0>0       -0.3324
     34  H17        2.0060   31.6690   56.9760 H       0  <0>0        0.1447
     35  H18        1.3610   32.3530   58.6330 H       0  <0>0        0.1447
@<TRIPOS>BOND
     1    12    11    3
     2    11    10    1
     3    13     9    1
     4    10     9    2
     5    10     6    1
     6     9     8    1
     7     6     5    2
     8     6     7    1
     9     5     4    2
    10    34    33    1
    11     8     7    2
    12     8    16    1
    13    33     4    1
    14    33    35    1
    15     4     3    1
    16     7     2    1
    17    22    21   ar
    18    22    17   ar
    19    16    17    1
    20    21    20   ar
    21    17    18   ar
    22     3     2    2
    23     3    14    1
    24     2     1    1
    25    20    23    1
    26    20    19   ar
    27    18    19   ar
    28    14    15    3
    29    23    24    1
    30    24    25    1
    31    28    26    1
    32    25    26   ar
    33    25    32   ar
    34    26    27   ar
    35    32    30   ar
    36    27    29   ar
    37    30    29   ar
    38    29    31    1

@<TRIPOS>MOLECULE
ZINC00952461_replica-1.pdb
 31 34 0 0 0
SMALL
GASTEIGER

@<TRIPOS>ATOM
      1  C1         8.1540   36.1200   55.2770 C.3     0  <0>0        0.0626
      2  C2         7.6760   35.8230   56.6740 C.2     0  <0>0        0.1004
      3  C3         7.8110   36.7480   57.6360 C.3     0  <0>0        0.1438
      4  C4         7.3490   36.4890   59.0390 C.3     0  <0>0        0.0561
      5  C5         6.3970   35.3200   59.0910 C.3     0  <0>0        0.1109
      6  C6         6.3190   34.4480   58.0630 C.2     0  <0>0        0.0928
      7  N1         7.1070   34.6080   56.9550 N.2     0  <0>0       -0.4177
      8  C7         5.3670   33.2790   58.1050 C.3     0  <0>0        0.0552
      9  C8         5.1690   32.8290   59.5540 C.3     0  <0>0        0.0132
     10  C9         4.6380   34.0140   60.3660 C.3     0  <0>0        0.0653
     11  C10        5.5970   35.1660   60.2360 C.2     0  <0>0        0.1569
     12  O1         5.6820   35.9760   61.1370 O.2     0  <0>0       -0.2956
     13  C11        6.5080   32.3680   60.1320 C.3     0  <0>0        0.0008
     14  C12        4.1620   31.6770   59.6060 C.3     0  <0>0        0.0008
     15  C26        8.4050   38.0120   57.3170 C.1     0  <0>0        0.0793
     16  N2         8.8750   39.0140   57.0630 N.1     0  <0>0       -0.1955
     17  C13        8.5490   36.1890   59.9000 C.ar    0  <0>0       -0.0201
     18  C18        8.8510   37.0090   60.9710 C.ar    0  <0>0       -0.0011
     19  C17        9.9470   36.7320   61.7660 C.ar    0  <0>0        0.0366
     20  C16       10.7490   35.6370   61.4820 C.ar    0  <0>0        0.1390
     21  C15       10.4430   34.8160   60.4070 C.ar    0  <0>0        0.0366
     22  C14        9.3430   35.0930   59.6190 C.ar    0  <0>0       -0.0011
     23  O2        11.8310   35.3670   62.2600 O.3     0  <0>0       -0.4706
     24  C19       12.8030   34.4650   61.7290 C.3     0  <0>0        0.2320
     25  C20       12.8350   33.2120   62.5650 C.ar    0  <0>0        0.0213
     26  C25       11.6840   32.4670   62.7390 C.ar    0  <0>0        0.0016
     27  C24       11.7130   31.3170   63.5050 C.ar    0  <0>0        0.0294
     28  C23       12.8960   30.9110   64.0990 C.ar    0  <0>0        0.1401
     29  C22       14.0490   31.6590   63.9250 C.ar    0  <0>0        0.0294
     30  F1        12.9250   29.7880   64.8490 F       0  <0>0       -0.2042
     31  C21       14.0170   32.8080   63.1580 C.ar    0  <0>0        0.0016
@<TRIPOS>BOND
     1     1     2    1
     2     2     7    2
     3     2     3    1
     4     7     6    2
     5    16    15    3
     6    15     3    1
     7     3     4    1
     8     6     8    1
     9     6     5    1
    10     8     9    1
    11     4     5    1
    12     4    17    1
    13     5    11    1
    14     9    14    1
    15     9    13    1
    16     9    10    1
    17    22    17   ar
    18    22    21   ar
    19    17    18   ar
    20    11    10    1
    21    11    12    2
    22    21    20   ar
    23    18    19   ar
    24    20    19   ar
    25    20    23    1
    26    24    23    1
    27    24    25    1
    28    25    26   ar
    29    25    31   ar
    30    26    27   ar
    31    31    29   ar
    32    27    28   ar
    33    29    28   ar
    34    28    30    1

@<TRIPOS>MOLECULE
ZINC01097584_replica-1.pdb
 25 27 0 0 0
SMALL
GASTEIGER

@<TRIPOS>ATOM
      1  C1         9.3050   37.5260   60.3680 C.3     0  <0>0        0.0307
      2  C2         8.7580   36.5410   59.3680 C.ar    0  <0>0       -0.0260
      3  C3         7.6350   36.8600   58.6270 C.ar    0  <0>0       -0.0073
      4  C4         7.1320   35.9580   57.7100 C.ar    0  <0>0       -0.0048
      5  C5         7.7570   34.7310   57.5320 C.ar    0  <0>0        0.0462
      6  C6         8.8840   34.4120   58.2770 C.ar    0  <0>0        0.0098
      7  C7         9.3810   35.3180   59.1930 C.ar    0  <0>0       -0.0246
      8  C8        10.6050   34.9750   60.0030 C.3     0  <0>0        0.0307
      9  N1         7.2460   33.8170   56.6030 N.am    0  <0>0       -0.2841
     10  C9         6.4100   34.2280   55.6320 C.2     0  <0>0        0.2268
     11  O1         5.9650   33.4200   54.8430 O.2     0  <0>0       -0.2748
     12  C10        6.0220   35.6760   55.5110 C.3     0  <0>0        0.0941
     13  C11        5.9090   36.3020   56.9010 C.3     0  <0>0        0.0550
     14  H10        7.4970   32.8820   56.6600 H       0  <0>0        0.1548
     15  C12        4.6820   35.7680   57.5940 C.ar    0  <0>0       -0.0142
     16  C17        3.4360   35.9460   57.0220 C.ar    0  <0>0        0.0060
     17  C16        2.3060   35.4580   57.6540 C.ar    0  <0>0        0.0712
     18  C15        2.4220   34.7870   58.8610 C.ar    0  <0>0        0.1784
     19 Br          0.6040   35.7050   56.8690 Br      0  <0>0       -0.0457
     20  C14        3.6770   34.6070   59.4360 C.ar    0  <0>0        0.1726
     21  C13        4.8040   35.1000   58.7980 C.ar    0  <0>0        0.0361
     22  O2         1.3120   34.3110   59.4850 O.3     0  <0>0       -0.4679
     23  C18        0.9590   32.9500   59.2340 C.3     0  <0>0        0.2526
     24  O3         3.7960   33.9500   60.6200 O.3     0  <0>0       -0.4684
     25  C19        5.0920   33.4530   60.9580 C.3     0  <0>0        0.2526
@<TRIPOS>BOND
     1    11    10    2
     2    12    10    1
     3    12    13    1
     4    10     9   am
     5     9    14    1
     6     9     5    1
     7    19    17    1
     8    13    15    1
     9    13     4    1
    10    16    15   ar
    11    16    17   ar
    12     5     4   ar
    13     5     6   ar
    14    15    21   ar
    15    17    18   ar
    16     4     3   ar
    17     6     7   ar
    18     3     2   ar
    19    21    20   ar
    20    18    20   ar
    21    18    22    1
    22     7     2   ar
    23     7     8    1
    24    23    22    1
    25     2     1    1
    26    20    24    1
    27    24    25    1

@<TRIPOS>MOLECULE
ZINC02730533_replica-1.pdb
 37 40 0 0 0
SMALL
GASTEIGER

@<TRIPOS>ATOM
      1  C15        2.5560   30.9070   60.6950 C.3     0  <0>0        0.0576
      2  C16        2.5240   32.4370   60.6600 C.3     0  <0>0        0.0291
      3  C17        1.4000   32.9960   61.5000 C.3     0  <0>0        0.0051
      4  C18        0.1870   33.3690   60.6510 C.3     0  <0>0        0.0050
      5  C19        0.6250   34.4120   59.6140 C.3     0  <0>0        0.0257
      6  C20        1.6790   33.7790   58.7420 C.2     0  <0>0       -0.0297
      7  C21        2.5080   32.8740   59.2260 C.2     0  <0>0       -0.0158
      8  C22        3.4590   32.1980   58.3050 C.2     0  <0>0        0.0749
      9  C23        4.0660   31.0510   58.7010 C.2     0  <0>0        0.0545
     10  C24        3.8520   30.4240   60.0450 C.3     0  <0>0        0.1921
     11  C25        4.9860   30.7660   60.9210 C.1     0  <0>0        0.0913
     12  N1         5.8590   31.0300   61.5970 N.1     0  <0>0       -0.1945
     13  C26        3.7950   28.9610   59.8880 C.1     0  <0>0        0.0913
     14  N2         3.7500   27.8320   59.7670 N.1     0  <0>0       -0.1945
     15  C27        3.7310   32.7510   57.0130 C.1     0  <0>0        0.1011
     16  N4         3.9470   33.1900   55.9870 N.1     0  <0>0       -0.1908
     17  C5         1.3760   30.3600   59.9340 C.ar    0  <0>0       -0.0240
     18  C4         0.3480   29.7320   60.6100 C.ar    0  <0>0       -0.0261
     19  C3        -0.7370   29.2350   59.9120 C.ar    0  <0>0       -0.0090
     20  C28        0.4060   29.5930   62.1090 C.3     0  <0>0        0.0307
     21  C2        -0.7910   29.3620   58.5370 C.ar    0  <0>0       -0.0227
     22  C1        -1.9740   28.8210   57.7750 C.3     0  <0>0        0.0308
     23  C7         0.2400   29.9860   57.8600 C.ar    0  <0>0        0.0169
     24  C6         1.3250   30.4830   58.5570 C.ar    0  <0>0       -0.0055
     25  C8         0.1810   30.1250   56.3600 C.3     0  <0>0        0.2317
     26  O1         0.3580   28.8430   55.7560 O.3     0  <0>0       -0.4698
     27  C9        -0.2730   28.6280   54.5700 C.ar    0  <0>0        0.1496
     28  C14       -0.1120   27.4180   53.9090 C.ar    0  <0>0        0.0938
     29  C13       -0.7590   27.1980   52.7060 C.ar    0  <0>0        0.0441
     30 Cl          0.8930   26.1790   54.5930 Cl      0  <0>0       -0.0790
     31  C12       -1.5560   28.1880   52.1570 C.ar    0  <0>0        0.1412
     32  C11       -1.7110   29.3980   52.8140 C.ar    0  <0>0        0.0328
     33  F1        -2.1820   27.9750   50.9800 F       0  <0>0       -0.2041
     34  C10       -1.0720   29.6170   54.0180 C.ar    0  <0>0        0.0401
     35  N3         4.9180   30.4360   57.8280 N.pl3   0  <0>0       -0.3582
     36  H20        5.5020   29.5630   58.1520 H       0  <0>0        0.1421
     37  H21        5.0180   30.8130   56.7990 H       0  <0>0        0.1421
@<TRIPOS>BOND
     1    33    31    1
     2    31    29   ar
     3    31    32   ar
     4    29    28   ar
     5    32    34   ar
     6    28    27   ar
     7    28    30    1
     8    34    27   ar
     9    27    26    1
    10    26    25    1
    11    16    15    3
    12    25    23    1
    13    37    35    1
    14    15     8    1
    15    22    21    1
    16    35    36    1
    17    35     9    1
    18    23    21   ar
    19    23    24   ar
    20     8     9    2
    21     8     7    1
    22    21    19   ar
    23    24    17   ar
    24     9    10    1
    25     6     7    2
    26     6     5    1
    27     7     2    1
    28     5     4    1
    29    14    13    3
    30    13    10    1
    31    19    18   ar
    32    17    18   ar
    33    17     1    1
    34    10     1    1
    35    10    11    1
    36    18    20    1
    37     4     3    1
    38     2     1    1
    39     2     3    1
    40    11    12    3

@<TRIPOS>MOLECULE
ZINC39849831_replica-1.pdb
 31 35 0 0 0
SMALL
GASTEIGER

@<TRIPOS>ATOM
      1  N1        -1.0140   29.8880   55.6120 N.ar    0  <0>0       -0.2467
      2  C9        -1.6980   29.0690   56.4310 C.ar    0  <0>0        0.2660
      3  O1        -2.7130   28.5190   56.0440 O.2     0  <0>0       -0.2668
      4  C10       -1.2020   28.8440   57.8050 C.ar    0  <0>0        0.0746
      5  C11       -1.7770   28.0040   58.8560 C.ar    0  <0>0       -0.0136
      6  C12       -1.0920   28.0010   60.0170 C.ar    0  <0>0        0.0049
      7  S1         0.2810   29.0790   59.7310 S.2     0  <0>0       -0.0742
      8  C13       -0.0330   29.5180   58.1500 C.ar    0  <0>0        0.0981
      9  N2         0.6020   30.3370   57.2510 N.ar    0  <0>0       -0.2715
     10  C14        0.1110   30.5040   56.0080 C.ar    0  <0>0        0.3346
     11  O2         0.6970   31.2320   55.2300 O.2     0  <0>0       -0.2462
     12  C22       -1.4350   27.2450   61.2630 C.3     0  <0>0        0.0327
     13  C23       -2.8910   26.7670   61.1510 C.3     0  <0>0        0.0055
     14  C24       -3.0940   26.1170   59.7800 C.3     0  <0>0        0.0050
     15  C25       -3.0490   27.1860   58.6860 C.3     0  <0>0        0.0268
     16  C2        -1.5080   30.1100   54.2510 C.3     0  <0>0        0.1153
     17  C1        -3.0100   30.3970   54.2920 C.3     0  <0>0        0.0297
     18  C3        -1.2530   28.8800   53.4170 C.ar    0  <0>0       -0.0015
     19  C8        -1.8990   28.7210   52.2060 C.ar    0  <0>0       -0.0025
     20  C7        -1.6630   27.5950   51.4390 C.ar    0  <0>0       -0.0003
     21  C6        -0.7880   26.6240   51.8890 C.ar    0  <0>0       -0.0000
     22  C5        -0.1460   26.7810   53.1030 C.ar    0  <0>0       -0.0003
     23  C4        -0.3790   27.9100   53.8670 C.ar    0  <0>0       -0.0025
     24  C15        1.8300   31.0330   57.6450 C.3     0  <0>0        0.1385
     25  C16        1.4770   32.2430   58.4720 C.ar    0  <0>0        0.0111
     26  C21        2.0440   32.4160   59.7210 C.ar    0  <0>0        0.0555
     27  C20        1.7240   33.5310   60.4770 C.ar    0  <0>0        0.0111
     28 Cl          3.1600   31.2400   60.3390 Cl      0  <0>0       -0.0825
     29  C19        0.8310   34.4640   59.9870 C.ar    0  <0>0        0.0008
     30  C18        0.2610   34.2880   58.7390 C.ar    0  <0>0       -0.0002
     31  C17        0.5850   33.1780   57.9810 C.ar    0  <0>0       -0.0016
@<TRIPOS>BOND
     1    20    21   ar
     2    20    19   ar
     3    21    22   ar
     4    19    18   ar
     5    22    23   ar
     6    18    23   ar
     7    18    16    1
     8    16    17    1
     9    16     1    1
    10    11    10    2
    11     1    10   ar
    12     1     2   ar
    13    10     9   ar
    14     3     2    2
    15     2     4   ar
    16     9    24    1
    17     9     8   ar
    18    24    25    1
    19     4     8   ar
    20     4     5   ar
    21    31    25   ar
    22    31    30   ar
    23     8     7   ar
    24    25    26   ar
    25    15     5    1
    26    15    14    1
    27    30    29   ar
    28     5     6   ar
    29    26    28    1
    30    26    27   ar
    31     7     6   ar
    32    14    13    1
    33    29    27   ar
    34     6    12    1
    35    13    12    1

@<TRIPOS>MOLECULE
ZINC13021313_replica-1.pdb
 30 32 0 0 0
SMALL
GASTEIGER

@<TRIPOS>ATOM
      1  C9         8.2870   32.7380   59.1500 C.2     0  <0>0        0.2343
      2  O2         7.5890   32.3620   60.0670 O.2     0  <0>0       -0.2741
      3  N2         8.8610   33.9570   59.1950 N.am    0  <0>0       -0.2979
      4  H7         9.4200   34.2570   58.4600 H       0  <0>0        0.1500
      5  C8         8.5150   31.8410   57.9600 C.3     0  <0>0        0.1490
      6  S1         6.9860   31.7150   56.9990 S.3     0  <0>0       -0.0761
      7  C5         6.5740   33.4210   56.8540 C.2     0  <0>0        0.1486
      8  N1         7.4040   34.2500   56.2370 N.2     0  <0>0       -0.4035
      9  C4         7.1320   35.5330   56.1010 C.2     0  <0>0        0.1091
     10  C3         5.9660   36.0770   56.6110 C.2     0  <0>0        0.0200
     11  C23        8.1120   36.4250   55.3840 C.3     0  <0>0        0.0664
     12  C2         5.0640   35.2600   57.2700 C.2     0  <0>0       -0.0242
     13  C1         3.7860   35.8220   57.8370 C.3     0  <0>0        0.0274
     14  C6         5.3690   33.9000   57.3990 C.3     0  <0>0        0.1797
     15  C7         4.4440   32.9860   58.0910 C.2     0  <0>0        0.3753
     16  O1         4.5160   32.8470   59.2960 O.co2   0  <0>0       -0.2448
     17  O3         3.5180   32.3050   57.3880 O.co2   0  <0>0       -0.2448
     18  C10        8.6390   34.8280   60.3510 C.3     0  <0>0        0.1169
     19  C11        9.9320   34.9930   61.1100 C.ar    0  <0>0       -0.0003
     20  C16       10.2590   36.2180   61.6580 C.ar    0  <0>0       -0.0024
     21  C15       11.4440   36.3700   62.3540 C.ar    0  <0>0       -0.0003
     22  C14       12.3000   35.2950   62.5030 C.ar    0  <0>0       -0.0000
     23  C13       11.9720   34.0690   61.9560 C.ar    0  <0>0       -0.0003
     24  C12       10.7850   33.9170   61.2630 C.ar    0  <0>0       -0.0024
     25  C17        8.1590   36.1770   59.8790 C.ar    0  <0>0       -0.0003
     26  C22        6.9350   36.6600   60.3010 C.ar    0  <0>0       -0.0024
     27  C21        6.4950   37.8970   59.8680 C.ar    0  <0>0       -0.0003
     28  C20        7.2780   38.6500   59.0130 C.ar    0  <0>0       -0.0000
     29  C19        8.5020   38.1660   58.5920 C.ar    0  <0>0       -0.0003
     30  C18        8.9460   36.9320   59.0290 C.ar    0  <0>0       -0.0024
@<TRIPOS>BOND
     1    11     9    1
     2     9     8    2
     3     9    10    1
     4     8     7    2
     5    10    12    2
     6     7     6    1
     7     7    14    1
     8     6     5    1
     9    12    14    1
    10    12    13    1
    11    17    15   ar
    12    14    15    1
    13     5     1    1
    14    15    16   ar
    15     4     3    1
    16    29    28   ar
    17    29    30   ar
    18    28    27   ar
    19    30    25   ar
    20     1     3   am
    21     1     2    2
    22     3    18    1
    23    27    26   ar
    24    25    26   ar
    25    25    18    1
    26    18    19    1
    27    19    24   ar
    28    19    20   ar
    29    24    23   ar
    30    20    21   ar
    31    23    22   ar
    32    21    22   ar

@<TRIPOS>MOLECULE
ZINC02727497_replica-1.pdb
 36 39 0 0 0
SMALL
GASTEIGER

@<TRIPOS>ATOM
      1  C15        5.2840   34.1480   58.1430 C.3     0  <0>0        0.0576
      2  C16        6.2000   33.0010   58.5750 C.3     0  <0>0        0.0291
      3  C17        7.2880   32.7360   57.5610 C.3     0  <0>0        0.0051
      4  C18        6.9430   31.5610   56.6490 C.3     0  <0>0        0.0050
      5  C19        6.7360   30.3160   57.5220 C.3     0  <0>0        0.0257
      6  C20        5.5840   30.5930   58.4530 C.2     0  <0>0       -0.0297
      7  C21        5.3450   31.8110   58.8960 C.2     0  <0>0       -0.0158
      8  C22        4.1340   32.0560   59.7230 C.2     0  <0>0        0.0749
      9  C23        3.6950   33.3280   59.8980 C.2     0  <0>0        0.0545
     10  C24        4.3790   34.5280   59.3160 C.3     0  <0>0        0.1921
     11  C25        5.1920   35.1710   60.3620 C.1     0  <0>0        0.0913
     12  N1         5.8190   35.6670   61.1690 N.1     0  <0>0       -0.1945
     13  C26        3.3610   35.4820   58.8470 C.1     0  <0>0        0.0913
     14  N2         2.5760   36.2180   58.4860 N.1     0  <0>0       -0.1945
     15  C27        3.4390   30.9620   60.3310 C.1     0  <0>0        0.1011
     16  N4         2.8880   30.0930   60.8120 N.1     0  <0>0       -0.1908
     17  C5         6.1190   35.3380   57.7450 C.ar    0  <0>0       -0.0240
     18  C4         5.8570   36.0010   56.5600 C.ar    0  <0>0       -0.0261
     19  C3         6.6190   37.0960   56.1970 C.ar    0  <0>0       -0.0090
     20  C28        4.7410   35.5300   55.6650 C.3     0  <0>0        0.0307
     21  C2         7.6440   37.5270   57.0190 C.ar    0  <0>0       -0.0227
     22  C1         8.4740   38.7210   56.6240 C.3     0  <0>0        0.0308
     23  C7         7.9060   36.8640   58.2040 C.ar    0  <0>0        0.0169
     24  C6         7.1440   35.7700   58.5660 C.ar    0  <0>0       -0.0055
     25  C8         9.0220   37.3360   59.1000 C.3     0  <0>0        0.2317
     26  O1         8.8380   36.7990   60.4120 O.3     0  <0>0       -0.4707
     27  C9         9.9080   36.1840   60.9820 C.ar    0  <0>0        0.1392
     28  C14       10.3420   34.9590   60.5000 C.ar    0  <0>0        0.0392
     29  C13       11.4300   34.3350   61.0810 C.ar    0  <0>0        0.0327
     30  C12       12.0860   34.9330   62.1430 C.ar    0  <0>0        0.1403
     31  C11       11.6530   36.1560   62.6250 C.ar    0  <0>0        0.0327
     32  F1        13.1490   34.3220   62.7100 F       0  <0>0       -0.2042
     33  C10       10.5690   36.7860   62.0430 C.ar    0  <0>0        0.0392
     34  N3         2.5660   33.5260   60.6420 N.pl3   0  <0>0       -0.3582
     35  H21        2.6460   33.7030   61.7250 H       0  <0>0        0.1421
     36  H22        1.5770   33.5070   60.1590 H       0  <0>0        0.1421
@<TRIPOS>BOND
     1    20    18    1
     2    19    18   ar
     3    19    21   ar
     4    18    17   ar
     5    22    21    1
     6     4     5    1
     7     4     3    1
     8    21    23   ar
     9     5     6    1
    10     3     2    1
    11    17     1    1
    12    17    24   ar
    13     1     2    1
    14     1    10    1
    15    23    24   ar
    16    23    25    1
    17     6     7    2
    18    14    13    3
    19     2     7    1
    20    13    10    1
    21     7     8    1
    22    25    26    1
    23    10     9    1
    24    10    11    1
    25     8     9    2
    26     8    15    1
    27     9    34    1
    28    36    34    1
    29    15    16    3
    30    11    12    3
    31    26    27    1
    32    28    27   ar
    33    28    29   ar
    34    34    35    1
    35    27    33   ar
    36    29    30   ar
    37    33    31   ar
    38    30    31   ar
    39    30    32    1

@<TRIPOS>MOLECULE
ZINC07606425_replica-1.pdb
 31 34 0 0 0
SMALL
GASTEIGER

@<TRIPOS>ATOM
      1  N1         6.0140   35.1310   59.2930 N.am    0  <0>0       -0.3003
      2  C15        5.2130   34.0570   59.4450 C.2     0  <0>0        0.2018
      3  O2         5.5650   32.9750   59.0280 O.2     0  <0>0       -0.2774
      4  H15        5.7330   35.9970   59.6280 H       0  <0>0        0.1499
      5  C8         7.3100   34.9890   58.6240 C.3     0  <0>0        0.1168
      6  C5         8.4140   35.3330   59.5900 C.ar    0  <0>0       -0.0001
      7  C4         8.1720   36.2100   60.6310 C.ar    0  <0>0        0.0008
      8  C3         9.1820   36.5280   61.5180 C.ar    0  <0>0        0.0366
      9  C2        10.4400   35.9640   61.3650 C.ar    0  <0>0        0.1387
     10  C7        10.6810   35.0830   60.3200 C.ar    0  <0>0        0.0366
     11  C6         9.6660   34.7660   59.4390 C.ar    0  <0>0        0.0008
     12  O1        11.4360   36.2740   62.2370 O.3     0  <0>0       -0.4714
     13  C1        12.2710   35.2010   62.6760 C.3     0  <0>0        0.2525
     14  C9         7.3680   35.9200   57.4410 C.ar    0  <0>0       -0.0003
     15  C14        7.1180   37.2690   57.6100 C.ar    0  <0>0       -0.0024
     16  C13        7.1700   38.1230   56.5250 C.ar    0  <0>0       -0.0003
     17  C12        7.4740   37.6290   55.2700 C.ar    0  <0>0       -0.0000
     18  C11        7.7250   36.2800   55.1010 C.ar    0  <0>0       -0.0003
     19  C10        7.6770   35.4260   56.1870 C.ar    0  <0>0       -0.0024
     20  C16        3.8810   34.2040   60.1340 C.3     0  <0>0        0.0105
     21  N2         2.8030   33.7550   59.2140 N.4     0  <0>0        0.3970
     22  C17        1.7050   33.1420   59.9790 C.3     0  <0>0       -0.0762
     23  C18        0.4200   33.9220   59.6320 C.3     0  <0>0       -0.0245
     24  C19        0.7670   34.5820   58.2710 C.3     0  <0>0       -0.0182
     25  C20        2.2700   34.9050   58.4560 C.3     0  <0>0       -0.0278
     26  H27        3.1870   33.0650   58.5590 H       0  <0>0       -0.0784
     27  C21        2.9540   35.0030   57.1160 C.ar    0  <0>0       -0.0120
     28  S1         3.2810   33.7130   55.9250 S.2     0  <0>0       -0.0928
     29  C24        4.0960   34.7130   54.6900 C.ar    0  <0>0        0.0351
     30  C23        4.0710   35.9420   55.2630 C.ar    0  <0>0        0.0071
     31  C22        3.4860   36.0900   56.5060 C.ar    0  <0>0        0.0007
@<TRIPOS>BOND
     1    29    30   ar
     2    29    28   ar
     3    18    17   ar
     4    18    19   ar
     5    30    31   ar
     6    17    16   ar
     7    28    27   ar
     8    19    14   ar
     9    31    27   ar
    10    16    15   ar
    11    27    25    1
    12    14    15   ar
    13    14     5    1
    14    24    25    1
    15    24    23    1
    16    25    21    1
    17    26    21    1
    18     5     1    1
    19     5     6    1
    20     3     2    2
    21    21    22    1
    22    21    20    1
    23     1     2   am
    24     1     4    1
    25    11     6   ar
    26    11    10   ar
    27     2    20    1
    28     6     7   ar
    29    23    22    1
    30    10     9   ar
    31     7     8   ar
    32     9     8   ar
    33     9    12    1
    34    12    13    1

@<TRIPOS>MOLECULE
ZINC38655698_replica-1.pdb
 33 36 0 0 0
SMALL
GASTEIGER

@<TRIPOS>ATOM
      1  C8        10.8260   35.5290   61.3440 C.ar    0  <0>0        0.1518
      2  C9        10.9030   34.6250   60.2930 C.ar    0  <0>0        0.0375
      3  C10       10.1370   34.8160   59.1600 C.ar    0  <0>0        0.0025
      4  C11        9.2910   35.9060   59.0660 C.ar    0  <0>0        0.0213
      5  C12        9.2100   36.8130   60.1120 C.ar    0  <0>0        0.1465
      6  C13        9.9760   36.6190   61.2550 C.ar    0  <0>0        0.0748
      7  O3         8.3870   37.8870   60.0390 O.3     0  <0>0       -0.4402
      8  C14        7.9380   38.3080   58.8450 C.2     0  <0>0        0.1989
      9  C15        7.9480   37.5070   57.7530 C.2     0  <0>0        0.1026
     10  C16        8.4640   36.0970   57.8230 C.3     0  <0>0        0.0838
     11  C23        7.4570   38.0130   56.5070 C.1     0  <0>0        0.1011
     12  N1         7.0670   38.4150   55.5180 N.1     0  <0>0       -0.1910
     13  N2         7.4550   39.5870   58.7270 N.pl3   0  <0>0       -0.3284
     14  H12        8.0480   40.3440   58.8600 H       0  <0>0        0.1451
     15  H13        6.5220   39.7360   58.5120 H       0  <0>0        0.1451
     16  C17        7.3000   35.1400   57.8460 C.ar    0  <0>0       -0.0125
     17  C22        6.3520   35.2310   58.8480 C.ar    0  <0>0        0.0086
     18  C21        5.2800   34.3560   58.8670 C.ar    0  <0>0        0.0679
     19  C20        5.1640   33.3840   57.8890 C.ar    0  <0>0        0.0682
     20 Cl          4.0850   34.4740   60.1210 Cl      0  <0>0       -0.0814
     21  C19        6.1170   33.2910   56.8900 C.ar    0  <0>0        0.0119
     22 Cl          3.8230   32.2810   57.9140 Cl      0  <0>0       -0.0814
     23  C18        7.1840   34.1700   56.8690 C.ar    0  <0>0       -0.0027
     24  O2        11.5790   35.3420   62.4590 O.3     0  <0>0       -0.4209
     25  C7        12.6290   34.5020   62.3800 C.2     0  <0>0        0.3457
     26  O1        13.6580   34.8630   61.8440 O.2     0  <0>0       -0.2445
     27  C6        12.5290   33.1400   62.9430 C.ar    0  <0>0        0.0761
     28  C1        11.2860   32.5100   63.0370 C.ar    0  <0>0        0.0073
     29  C2        11.1990   31.2380   63.5630 C.ar    0  <0>0        0.0116
     30  C3        12.3410   30.5850   63.9970 C.ar    0  <0>0        0.0577
     31  C4        13.5780   31.2050   63.9060 C.ar    0  <0>0        0.0116
     32 Cl         12.2240   28.9850   64.6580 Cl      0  <0>0       -0.0822
     33  C5        13.6770   32.4770   63.3820 C.ar    0  <0>0        0.0073
@<TRIPOS>BOND
     1    12    11    3
     2    11     9    1
     3    23    21   ar
     4    23    16   ar
     5    21    19   ar
     6     9    10    1
     7     9     8    2
     8    10    16    1
     9    10     4    1
    10    16    17   ar
    11    19    22    1
    12    19    18   ar
    13    15    13    1
    14    13     8    1
    15    13    14    1
    16     8     7    1
    17    17    18   ar
    18    18    20    1
    19     4     3   ar
    20     4     5   ar
    21     3     2   ar
    22     7     5    1
    23     5     6   ar
    24     2     1   ar
    25     6     1   ar
    26     1    24    1
    27    26    25    2
    28    25    24    1
    29    25    27    1
    30    27    28   ar
    31    27    33   ar
    32    28    29   ar
    33    33    31   ar
    34    29    30   ar
    35    31    30   ar
    36    30    32    1

@<TRIPOS>MOLECULE
ZINC15230667_replica-1.pdb
 29 32 0 0 0
SMALL
GASTEIGER

@<TRIPOS>ATOM
      1  C1         2.3370   34.4510   59.2120 C.3     0  <0>0        0.0008
      2  C2         1.5000   33.2620   58.7350 C.3     0  <0>0        0.0129
      3  C3         1.9260   32.8850   57.3120 C.3     0  <0>0        0.0482
      4  C4         1.2200   31.6160   56.9060 C.ar    0  <0>0        0.0831
      5  C5         0.6620   30.7120   57.8560 C.ar    0  <0>0        0.0676
      6  C6         0.0890   29.6670   57.1530 C.ar    0  <0>0        0.0867
      7  N1         0.2980   29.9290   55.8310 N.ar    0  <0>0       -0.2277
      8  N2         1.0040   31.1350   55.7230 N.ar    0  <0>0       -0.1693
      9  C21        0.7530   30.9670   59.2970 C.2     0  <0>0        0.1757
     10  O1         0.1180   30.3300   60.1130 O.2     0  <0>0       -0.2912
     11  C22        1.7030   32.0860   59.6940 C.3     0  <0>0        0.0696
     12  C23        0.0220   33.6580   58.7290 C.3     0  <0>0        0.0008
     13  C13       -0.6100   28.5000   57.7210 C.ar    0  <0>0        0.0179
     14  C18       -2.0070   28.4330   57.6860 C.ar    0  <0>0        0.0028
     15  C17       -2.6560   27.3420   58.2180 C.ar    0  <0>0        0.0146
     16  C16       -1.9240   26.3050   58.7900 C.ar    0  <0>0        0.0479
     17  C15       -0.5340   26.3680   58.8260 C.ar    0  <0>0        0.0146
     18  C14        0.1220   27.4550   58.2920 C.ar    0  <0>0        0.0028
     19  N3        -2.5840   25.2020   59.3260 N.pl3   0  <0>0       -0.3041
     20  C19       -3.0850   25.2460   60.7020 C.3     0  <0>0        0.1122
     21  C20       -2.7780   23.9980   58.5140 C.3     0  <0>0        0.1122
     22  C7        -0.1180   29.1250   54.7600 C.ar    0  <0>0        0.1103
     23  C12       -1.0730   29.5960   53.8650 C.ar    0  <0>0        0.1599
     24  C11       -1.4810   28.8000   52.8100 C.ar    0  <0>0        0.0608
     25  F1        -1.6060   30.8260   54.0310 F       0  <0>0       -0.2025
     26  C10       -0.9390   27.5370   52.6460 C.ar    0  <0>0        0.1425
     27  C9         0.0120   27.0670   53.5360 C.ar    0  <0>0        0.0313
     28  F2        -1.3380   26.7610   51.6140 F       0  <0>0       -0.2041
     29  C8         0.4230   27.8580   54.5920 C.ar    0  <0>0        0.0237
@<TRIPOS>BOND
     1    28    26    1
     2    26    24   ar
     3    26    27   ar
     4    24    23   ar
     5    27    29   ar
     6    23    25    1
     7    23    22   ar
     8    29    22   ar
     9    22     7    1
    10     8     7   ar
    11     8     4   ar
    12     7     6   ar
    13     4     3    1
    14     4     5   ar
    15     6    13    1
    16     6     5   ar
    17     3     2    1
    18    14    13   ar
    19    14    15   ar
    20    13    18   ar
    21     5     9    1
    22    15    16   ar
    23    18    17   ar
    24    21    19    1
    25    12     2    1
    26     2     1    1
    27     2    11    1
    28    16    17   ar
    29    16    19    1
    30     9    11    1
    31     9    10    2
    32    19    20    1

@<TRIPOS>MOLECULE
ZINC05517994_replica-1.pdb
 32 34 0 0 0
SMALL
GASTEIGER

@<TRIPOS>ATOM
      1  C12        8.7860   37.2020   60.1940 C.3     0  <0>0       -0.0146
      2  C11        8.7010   38.2230   59.0580 C.3     0  <0>0       -0.0806
      3  N1         7.3090   38.2940   58.5750 N.4     0  <0>0        0.3865
      4  H30        6.6730   38.0390   59.3400 H       0  <0>0       -0.0840
      5  H31        7.1060   39.2510   58.2660 H       0  <0>0       -0.0840
      6  C10        7.1120   37.3650   57.4460 C.3     0  <0>0       -0.0543
      7  C7         5.9930   36.4120   57.7810 C.ar    0  <0>0       -0.0435
      8  C6         5.3960   36.4610   59.0270 C.ar    0  <0>0       -0.0032
      9  C5         4.3700   35.5890   59.3380 C.ar    0  <0>0        0.0365
     10  C4         3.9390   34.6640   58.3980 C.ar    0  <0>0        0.1384
     11  C9         4.5400   34.6180   57.1490 C.ar    0  <0>0        0.0365
     12  C8         5.5620   35.4950   56.8410 C.ar    0  <0>0       -0.0032
     13  O1         2.9310   33.8050   58.7010 O.3     0  <0>0       -0.4792
     14  C2         2.1440   34.1110   59.8540 C.3     0  <0>0        0.1661
     15  C1         0.7260   34.4890   59.4180 C.3     0  <0>0        0.0472
     16  C3         2.0860   32.8860   60.7700 C.3     0  <0>0        0.0472
     17  C13        9.6890   36.0420   59.7700 C.3     0  <0>0        0.0425
     18  C14        8.8420   34.8420   59.4330 C.ar    0  <0>0       -0.0183
     19  C19        7.9350   34.3570   60.3570 C.ar    0  <0>0       -0.0008
     20  C18        7.1570   33.2570   60.0510 C.ar    0  <0>0        0.0366
     21  C17        7.2860   32.6390   58.8150 C.ar    0  <0>0        0.1387
     22  C16        8.1970   33.1280   57.8890 C.ar    0  <0>0        0.0366
     23  C15        8.9680   34.2330   58.1990 C.ar    0  <0>0       -0.0008
     24  O2         6.5210   31.5580   58.5110 O.3     0  <0>0       -0.4714
     25  C20        5.3460   31.3530   59.2970 C.3     0  <0>0        0.2525
     26  C21       10.6230   35.6940   60.9020 C.ar    0  <0>0       -0.0184
     27  C26       10.7950   36.5750   61.9520 C.ar    0  <0>0       -0.0017
     28  C25       11.6510   36.2560   62.9890 C.ar    0  <0>0        0.0293
     29  C24       12.3360   35.0540   62.9750 C.ar    0  <0>0        0.1401
     30  C23       12.1630   34.1720   61.9230 C.ar    0  <0>0        0.0293
     31  F1        13.1730   34.7420   63.9900 F       0  <0>0       -0.2042
     32  C22       11.3040   34.4900   60.8890 C.ar    0  <0>0       -0.0017
@<TRIPOS>BOND
     1    12    11   ar
     2    12     7   ar
     3    11    10   ar
     4     6     7    1
     5     6     3    1
     6     7     8   ar
     7    22    23   ar
     8    22    21   ar
     9    23    18   ar
    10     5     3    1
    11    10    13    1
    12    10     9   ar
    13    24    21    1
    14    24    25    1
    15     3     2    1
    16     3     4    1
    17    13    14    1
    18    21    20   ar
    19     8     9   ar
    20     2     1    1
    21    15    14    1
    22    18    17    1
    23    18    19   ar
    24    17     1    1
    25    17    26    1
    26    14    16    1
    27    20    19   ar
    28    32    26   ar
    29    32    30   ar
    30    26    27   ar
    31    30    29   ar
    32    27    28   ar
    33    29    28   ar
    34    29    31    1

@<TRIPOS>MOLECULE
ZINC21258964_replica-1.pdb
 37 41 0 0 0
SMALL
GASTEIGER

@<TRIPOS>ATOM
      1  C11       -0.0700   31.5750   58.6230 C.3     0  <0>0        0.1186
      2  C12       -0.3610   30.9570   57.2760 C.2     0  <0>0        0.0436
      3  C13       -0.0390   31.4820   56.0810 C.2     0  <0>0        0.0262
      4  C14       -0.3940   30.7500   54.7970 C.3     0  <0>0        0.0459
      5  C15       -0.3580   29.2410   55.0290 C.3     0  <0>0        0.0386
      6  C16       -1.3740   28.9130   56.1290 C.3     0  <0>0        0.0737
      7  C17       -1.0280   29.7120   57.3500 C.2     0  <0>0        0.1722
      8  O2        -1.3330   29.2740   58.4430 O.2     0  <0>0       -0.2916
      9  N1         0.5980   32.6660   55.9030 N.pl3   0  <0>0       -0.3150
     10  C25        1.7280   33.0760   56.6030 C.ar    0  <0>0        0.0614
     11  C26        2.9330   33.3340   55.9750 C.ar    0  <0>0        0.0158
     12  C27        3.9860   33.8490   56.7120 C.ar    0  <0>0        0.0014
     13  C28        3.8340   34.1010   58.0630 C.ar    0  <0>0        0.0013
     14  C29        2.6360   33.8220   58.6970 C.ar    0  <0>0        0.0156
     15  C30        1.5860   33.2900   57.9660 C.ar    0  <0>0        0.0586
     16  N2         0.3760   32.9510   58.5680 N.pl3   0  <0>0       -0.3262
     17  H27        0.2240   33.3860   55.1590 H       0  <0>0        0.1520
     18  H32       -0.2430   33.7480   59.0070 H       0  <0>0        0.1474
     19  C8         0.9950   30.7550   59.3040 C.ar    0  <0>0       -0.0001
     20  C7         0.9720   30.5980   60.6780 C.ar    0  <0>0        0.0008
     21  C6         1.9470   29.8480   61.3050 C.ar    0  <0>0        0.0366
     22  C5         2.9480   29.2490   60.5550 C.ar    0  <0>0        0.1384
     23  C10        2.9690   29.4060   59.1770 C.ar    0  <0>0        0.0366
     24  C9         1.9890   30.1530   58.5540 C.ar    0  <0>0        0.0008
     25  O1         3.9080   28.5080   61.1700 O.3     0  <0>0       -0.4792
     26  C3         5.2670   28.8040   60.8410 C.3     0  <0>0        0.1660
     27  C4         5.9230   29.5510   62.0030 C.3     0  <0>0        0.0472
     28  C2         6.0240   27.5000   60.5800 C.3     0  <0>0        0.0435
     29  C1         5.0310   26.3380   60.5170 C.3     0  <0>0        0.0038
     30  C18       -0.7300   28.5210   53.7590 C.ar    0  <0>0        0.0123
     31  C23       -0.1670   27.2860   53.4710 C.ar    0  <0>0        0.1347
     32  C22       -0.5080   26.6270   52.2980 C.ar    0  <0>0        0.0366
     33  C21       -1.4150   27.1970   51.4250 C.ar    0  <0>0        0.0031
     34  C20       -1.9760   28.4280   51.7160 C.ar    0  <0>0       -0.0001
     35  C19       -1.6330   29.0880   52.8810 C.ar    0  <0>0       -0.0013
     36  O3         0.7210   26.7250   54.3320 O.3     0  <0>0       -0.4717
     37  C24        0.5120   25.3550   54.6800 C.3     0  <0>0        0.2525
@<TRIPOS>BOND
     1    33    34   ar
     2    33    32   ar
     3    34    35   ar
     4    32    31   ar
     5    35    30   ar
     6    31    30   ar
     7    31    36    1
     8    30     5    1
     9    36    37    1
    10     4     5    1
    11     4     3    1
    12     5     6    1
    13    17     9    1
    14     9     3    1
    15     9    10    1
    16    11    10   ar
    17    11    12   ar
    18     3     2    2
    19     6     7    1
    20    10    15   ar
    21    12    13   ar
    22     2     7    1
    23     2     1    1
    24     7     8    2
    25    15    16    1
    26    15    14   ar
    27    13    14   ar
    28    24    23   ar
    29    24    19   ar
    30    16     1    1
    31    16    18    1
    32     1    19    1
    33    23    22   ar
    34    19    20   ar
    35    29    28    1
    36    22    25    1
    37    22    21   ar
    38    28    26    1
    39    20    21   ar
    40    26    25    1
    41    26    27    1

@<TRIPOS>MOLECULE
ZINC21250647_replica-1.pdb
 36 40 0 0 0
SMALL
GASTEIGER

@<TRIPOS>ATOM
      1  C11        8.4350   36.0470   60.4320 C.3     0  <0>0        0.0356
      2  C12        7.4170   34.9390   60.6950 C.3     0  <0>0        0.0458
      3  C13        6.1030   35.2670   60.0080 C.2     0  <0>0        0.0262
      4  C14        6.0920   35.9460   58.8480 C.2     0  <0>0        0.0437
      5  C15        4.8660   36.3160   58.0480 C.3     0  <0>0        0.1208
      6  N1         3.6140   36.1170   58.7460 N.pl3   0  <0>0       -0.3261
      7  C16        3.1910   34.8410   59.1200 C.ar    0  <0>0        0.0586
      8  C17        2.0880   34.2440   58.5320 C.ar    0  <0>0        0.0156
      9  C18        1.7710   32.9360   58.8550 C.ar    0  <0>0        0.0013
     10  C19        2.5440   32.2300   59.7570 C.ar    0  <0>0        0.0014
     11  C20        3.6350   32.8300   60.3620 C.ar    0  <0>0        0.0158
     12  C21        3.9440   34.1440   60.0530 C.ar    0  <0>0        0.0614
     13  N2         4.9970   34.8210   60.6560 N.pl3   0  <0>0       -0.3150
     14  C28        7.3060   36.3870   58.2700 C.2     0  <0>0        0.1722
     15  O2         7.2680   36.9850   57.2130 O.2     0  <0>0       -0.2916
     16  C29        8.6370   36.1430   58.9150 C.3     0  <0>0        0.0736
     17  H18        2.9770   36.9800   58.9910 H       0  <0>0        0.1474
     18  H23        4.8900   34.9880   61.7390 H       0  <0>0        0.1520
     19  C8         9.7420   35.7100   61.1010 C.ar    0  <0>0       -0.0215
     20  C7        10.3160   34.4660   60.9080 C.ar    0  <0>0       -0.0011
     21  C6        11.5130   34.1550   61.5210 C.ar    0  <0>0        0.0366
     22  C5        12.1420   35.0890   62.3300 C.ar    0  <0>0        0.1385
     23  C10       11.5660   36.3370   62.5220 C.ar    0  <0>0        0.0366
     24  C9        10.3700   36.6460   61.9030 C.ar    0  <0>0       -0.0011
     25  O1        13.3200   34.7850   62.9340 O.3     0  <0>0       -0.4755
     26  C4        14.1870   33.8810   62.2460 C.3     0  <0>0        0.2053
     27  C2        14.8590   32.9490   63.2570 C.3     0  <0>0        0.0438
     28  C1        15.3320   33.7620   64.4630 C.3     0  <0>0        0.0038
     29  C3        13.8560   31.8890   63.7180 C.3     0  <0>0        0.0038
     30  C22        4.8480   35.4880   56.7890 C.ar    0  <0>0        0.0272
     31  C27        4.2180   35.9680   55.6540 C.ar    0  <0>0        0.1380
     32  C26        4.2050   35.2070   54.4970 C.ar    0  <0>0        0.0294
     33  F1         3.6170   37.1780   55.6740 F       0  <0>0       -0.2044
     34  C25        4.8150   33.9670   54.4790 C.ar    0  <0>0        0.0023
     35  C24        5.4410   33.4870   55.6160 C.ar    0  <0>0       -0.0001
     36  C23        5.4570   34.2470   56.7700 C.ar    0  <0>0       -0.0001
@<TRIPOS>BOND
     1    34    32   ar
     2    34    35   ar
     3    32    31   ar
     4    35    36   ar
     5    31    33    1
     6    31    30   ar
     7    36    30   ar
     8    30     5    1
     9    15    14    2
    10     5     6    1
    11     5     4    1
    12    14     4    1
    13    14    16    1
    14     8     9   ar
    15     8     7   ar
    16     6    17    1
    17     6     7    1
    18     4     3    2
    19     9    10   ar
    20    16     1    1
    21     7    12   ar
    22    10    11   ar
    23     3    13    1
    24     3     2    1
    25    12    11   ar
    26    12    13    1
    27     1     2    1
    28     1    19    1
    29    13    18    1
    30    20    19   ar
    31    20    21   ar
    32    19    24   ar
    33    21    22   ar
    34    24    23   ar
    35    26    25    1
    36    26    27    1
    37    22    23   ar
    38    22    25    1
    39    27    29    1
    40    27    28    1

@<TRIPOS>MOLECULE
ZINC39569791_replica-1.pdb
 27 28 0 0 0
SMALL
GASTEIGER

@<TRIPOS>ATOM
      1  C9        -0.4380   26.8580   53.3580 C.ar    0  <0>0        0.1452
      2  C10       -0.4090   25.8760   52.3780 C.ar    0  <0>0        0.0371
      3  C11       -1.0700   26.0720   51.1820 C.ar    0  <0>0        0.0031
      4  C12       -1.7670   27.2470   50.9500 C.ar    0  <0>0        0.0004
      5  C13       -1.8070   28.2330   51.9120 C.ar    0  <0>0        0.0095
      6  C14       -1.1470   28.0460   53.1290 C.ar    0  <0>0        0.1095
      7  C15       -1.1900   29.0940   54.1650 C.2     0  <0>0        0.3447
      8  O2        -2.0910   29.1050   54.9810 O.2     0  <0>0       -0.2448
      9  O3        -0.2310   30.0400   54.2070 O.3     0  <0>0       -0.4352
     10  C16       -0.6380   31.3610   54.5660 C.3     0  <0>0        0.2927
     11  C17        0.1570   31.8260   55.7580 C.2     0  <0>0        0.2670
     12  O4         0.8140   31.0310   56.3960 O.2     0  <0>0       -0.2711
     13  N1         0.1380   33.1250   56.1170 N.am    0  <0>0       -0.3044
     14  H16       -0.3890   33.7610   55.6070 H       0  <0>0        0.1494
     15  C18        0.9110   33.5770   57.2760 C.3     0  <0>0        0.0570
     16  C19        0.6730   35.0720   57.4960 C.3     0  <0>0        0.0196
     17  C20        0.4700   32.8010   58.5180 C.3     0  <0>0        0.0196
     18  C21        2.4000   33.3310   57.0220 C.3     0  <0>0        0.0196
     19  O1         0.2100   26.6660   54.5330 O.3     0  <0>0       -0.4704
     20  C8         0.7250   25.3570   54.7860 C.3     0  <0>0        0.2317
     21  C7         0.2760   24.8950   56.1480 C.ar    0  <0>0        0.0172
     22  C2         0.2130   23.5440   56.4320 C.ar    0  <0>0       -0.0223
     23  C1         0.5930   22.5330   55.3810 C.3     0  <0>0        0.0308
     24  C3        -0.1930   23.1200   57.6840 C.ar    0  <0>0       -0.0045
     25  C4        -0.5420   24.0460   58.6490 C.ar    0  <0>0       -0.0003
     26  C5        -0.4840   25.3970   58.3610 C.ar    0  <0>0       -0.0002
     27  C6        -0.0770   25.8220   57.1100 C.ar    0  <0>0       -0.0010
@<TRIPOS>BOND
     1     4     3   ar
     2     4     5   ar
     3     3     2   ar
     4     5     6   ar
     5     2     1   ar
     6     6     1   ar
     7     6     7    1
     8     1    19    1
     9     7     9    1
    10     7     8    2
    11     9    10    1
    12    19    20    1
    13    10    11    1
    14    20    21    1
    15    23    22    1
    16    14    13    1
    17    11    13   am
    18    11    12    2
    19    13    15    1
    20    21    22   ar
    21    21    27   ar
    22    22    24   ar
    23    18    15    1
    24    27    26   ar
    25    15    16    1
    26    15    17    1
    27    24    25   ar
    28    26    25   ar

@<TRIPOS>MOLECULE
ZINC09959513_replica-1.pdb
 30 34 0 0 0
SMALL
GASTEIGER

@<TRIPOS>ATOM
      1  N1        -1.1400   30.2280   56.9980 N.ar    0  <0>0       -0.2762
      2  C8        -0.8900   29.5600   58.2060 C.ar    0  <0>0        0.0752
      3  C9        -1.5520   28.3490   58.7070 C.ar    0  <0>0        0.0226
      4  C10       -2.5780   27.6040   58.0790 C.ar    0  <0>0        0.0020
      5  C11       -3.0940   26.4960   58.6730 C.ar    0  <0>0        0.0001
      6  C12       -2.6390   26.0570   59.9090 C.ar    0  <0>0        0.0005
      7  C13       -1.6440   26.7580   60.5560 C.ar    0  <0>0        0.0065
      8  C14       -1.1060   27.8820   59.9590 C.ar    0  <0>0        0.0310
      9  S1         0.1550   29.0400   60.4300 S.2     0  <0>0       -0.0807
     10  C15        0.0920   30.1050   59.0140 C.ar    0  <0>0        0.1019
     11  C16        0.7920   31.2640   58.6360 C.ar    0  <0>0        0.2755
     12  O1         1.6530   31.7290   59.3610 O.2     0  <0>0       -0.2659
     13  N2         0.4970   31.8540   57.4570 N.ar    0  <0>0       -0.2268
     14  C17       -0.4550   31.3310   56.6660 C.ar    0  <0>0        0.3379
     15  O2        -0.7050   31.8790   55.6090 O.2     0  <0>0       -0.2458
     16  C7        -2.1640   29.7120   56.0870 C.3     0  <0>0        0.1381
     17  C5        -1.5080   28.9000   55.0010 C.ar    0  <0>0        0.0111
     18  C4        -1.8280   29.1310   53.6750 C.ar    0  <0>0        0.0555
     19  C3        -1.2200   28.3900   52.6770 C.ar    0  <0>0        0.0111
     20 Cl         -2.9870   30.3560   53.2620 Cl      0  <0>0       -0.0825
     21  C2        -0.3020   27.4110   53.0060 C.ar    0  <0>0        0.0008
     22  C1         0.0150   27.1770   54.3320 C.ar    0  <0>0       -0.0002
     23  C6        -0.5880   27.9210   55.3290 C.ar    0  <0>0       -0.0016
     24  C18        1.1820   33.0110   57.0600 C.ar    0  <0>0        0.0713
     25  C23        2.3490   32.9080   56.3150 C.ar    0  <0>0        0.0201
     26  C22        3.0210   34.0500   55.9260 C.ar    0  <0>0        0.0311
     27  C21        2.5320   35.2970   56.2770 C.ar    0  <0>0        0.1402
     28  C20        1.3690   35.4020   57.0210 C.ar    0  <0>0        0.0311
     29  F1         3.1920   36.4120   55.8960 F       0  <0>0       -0.2042
     30  C19        0.6900   34.2630   57.4070 C.ar    0  <0>0        0.0201
@<TRIPOS>BOND
     1    19    21   ar
     2    19    18   ar
     3    21    22   ar
     4    20    18    1
     5    18    17   ar
     6    22    23   ar
     7    17    23   ar
     8    17    16    1
     9    15    14    2
    10    29    27    1
    11    26    27   ar
    12    26    25   ar
    13    16     1    1
    14    27    28   ar
    15    25    24   ar
    16    14     1   ar
    17    14    13   ar
    18     1     2   ar
    19    28    30   ar
    20    24    30   ar
    21    24    13    1
    22    13    11   ar
    23     4     5   ar
    24     4     3   ar
    25     2     3   ar
    26     2    10   ar
    27    11    10   ar
    28    11    12    2
    29     5     6   ar
    30     3     8   ar
    31    10     9   ar
    32     6     7   ar
    33     8     9   ar
    34     8     7   ar

@<TRIPOS>MOLECULE
ZINC21243116_replica-1.pdb
 37 41 0 0 0
SMALL
GASTEIGER

@<TRIPOS>ATOM
      1  C10        0.6840   32.9540   59.2020 C.3     0  <0>0        0.1186
      2  C11        0.3260   32.1120   58.0030 C.2     0  <0>0        0.0436
      3  C12        0.2820   32.5350   56.7270 C.2     0  <0>0        0.0262
      4  C13       -0.1140   31.5830   55.6110 C.3     0  <0>0        0.0458
      5  C14        0.3420   30.1640   55.9490 C.3     0  <0>0        0.0356
      6  C15       -0.3330   29.7580   57.2640 C.3     0  <0>0        0.0736
      7  C16        0.0240   30.7660   58.3160 C.2     0  <0>0        0.1722
      8  O2         0.0540   30.4130   59.4780 O.2     0  <0>0       -0.2916
      9  N2         0.5580   33.8010   56.3270 N.pl3   0  <0>0       -0.3150
     10  C25        1.6530   34.5470   56.7480 C.ar    0  <0>0        0.0614
     11  C26        2.6410   34.9670   55.8730 C.ar    0  <0>0        0.0158
     12  C27        3.6560   35.7840   56.3390 C.ar    0  <0>0        0.0014
     13  C28        3.6860   36.1740   57.6650 C.ar    0  <0>0        0.0013
     14  C29        2.7060   35.7460   58.5430 C.ar    0  <0>0        0.0156
     15  C30        1.6990   34.9140   58.0840 C.ar    0  <0>0        0.0586
     16  N3         0.7420   34.3780   58.9460 N.pl3   0  <0>0       -0.3262
     17  H28       -0.1100   34.3130   55.6190 H       0  <0>0        0.1520
     18  H33        0.0260   35.0540   59.4350 H       0  <0>0        0.1474
     19  C7         2.0290   32.5070   59.7150 C.ar    0  <0>0       -0.0001
     20  C6         2.9010   31.8420   58.8730 C.ar    0  <0>0        0.0008
     21  C5         4.1340   31.4310   59.3390 C.ar    0  <0>0        0.0366
     22  C4         4.4980   31.6860   60.6530 C.ar    0  <0>0        0.1385
     23  C9         3.6210   32.3540   61.4960 C.ar    0  <0>0        0.0366
     24  C8         2.3910   32.7670   61.0230 C.ar    0  <0>0        0.0008
     25  O1         5.7110   31.2820   61.1150 O.3     0  <0>0       -0.4755
     26  C3         6.3200   30.1710   60.4560 C.3     0  <0>0        0.2054
     27  C2         6.9930   29.2680   61.4930 C.3     0  <0>0        0.0473
     28  C1         6.0190   28.9970   62.6410 C.3     0  <0>0        0.0040
     29  C17       -0.0690   29.2200   54.8490 C.ar    0  <0>0       -0.0216
     30  C22       -1.0150   29.6130   53.9200 C.ar    0  <0>0       -0.0030
     31  C21       -1.3930   28.7500   52.9100 C.ar    0  <0>0        0.0142
     32  C20       -0.8230   27.4860   52.8290 C.ar    0  <0>0        0.0479
     33  C19        0.1270   27.0950   53.7630 C.ar    0  <0>0        0.0142
     34  C18        0.5050   27.9650   54.7670 C.ar    0  <0>0       -0.0030
     35  N1        -1.2040   26.6110   51.8090 N.pl3   0  <0>0       -0.3041
     36  C23       -2.0270   27.0950   50.6980 C.3     0  <0>0        0.1122
     37  C24       -0.7820   25.2090   51.8520 C.3     0  <0>0        0.1122
@<TRIPOS>BOND
     1    36    35    1
     2    35    37    1
     3    35    32    1
     4    32    31   ar
     5    32    33   ar
     6    31    30   ar
     7    33    34   ar
     8    30    29   ar
     9    34    29   ar
    10    29     5    1
    11     4     5    1
    12     4     3    1
    13    17     9    1
    14    11    12   ar
    15    11    10   ar
    16     5     6    1
    17     9     3    1
    18     9    10    1
    19    12    13   ar
    20     3     2    2
    21    10    15   ar
    22     6     7    1
    23    13    14   ar
    24     2     7    1
    25     2     1    1
    26    15    14   ar
    27    15    16    1
    28     7     8    2
    29    20    21   ar
    30    20    19   ar
    31    16     1    1
    32    16    18    1
    33     1    19    1
    34    21    22   ar
    35    19    24   ar
    36    26    25    1
    37    26    27    1
    38    22    25    1
    39    22    23   ar
    40    24    23   ar
    41    27    28    1

@<TRIPOS>MOLECULE
ZINC35400530_replica-1.pdb
 31 35 0 0 0
SMALL
GASTEIGER

@<TRIPOS>ATOM
      1  N1         0.4860   30.0720   58.3440 N.pl3   0  <0>0       -0.2928
      2  C9         0.0210   29.5770   59.5460 C.ar    0  <0>0        0.0499
      3  C10        0.5220   29.6350   60.8440 C.ar    0  <0>0        0.0169
      4  C11       -0.1660   29.0380   61.8760 C.ar    0  <0>0        0.0309
      5  C12       -1.3640   28.3740   61.6360 C.ar    0  <0>0        0.1403
      6  C13       -1.8780   28.3050   60.3590 C.ar    0  <0>0        0.0321
      7  C14       -1.1890   28.9050   59.3040 C.ar    0  <0>0        0.0309
      8  C15       -1.4480   29.0170   57.8620 C.2     0  <0>0        0.0838
      9  C16       -0.3890   29.7480   57.3260 C.3     0  <0>0        0.1906
     10  C17       -0.3920   30.0080   55.9360 C.2     0  <0>0        0.2512
     11  O1         0.5140   30.6400   55.4180 O.2     0  <0>0       -0.2726
     12  N2        -1.4210   29.5400   55.1960 N.am    0  <0>0       -0.2529
     13  C18       -2.4240   28.8380   55.7790 C.3     0  <0>0        0.2219
     14  N3        -2.4330   28.5810   57.0570 N.2     0  <0>0       -0.2501
     15  F1        -2.0270   27.7940   62.6610 F       0  <0>0       -0.2042
     16  C8         1.7250   30.8350   58.1750 C.3     0  <0>0        0.1180
     17  C7         1.5080   32.2530   58.6400 C.ar    0  <0>0       -0.0063
     18  C2         2.2650   32.7630   59.6780 C.ar    0  <0>0       -0.0242
     19  C1         3.3060   31.9010   60.3450 C.3     0  <0>0        0.0308
     20  C3         2.0710   34.0640   60.1000 C.ar    0  <0>0       -0.0045
     21  C4         1.1160   34.8540   59.4880 C.ar    0  <0>0       -0.0003
     22  C5         0.3550   34.3430   58.4530 C.ar    0  <0>0       -0.0003
     23  C6         0.5500   33.0410   58.0310 C.ar    0  <0>0       -0.0029
     24  C19       -1.4530   29.7940   53.7530 C.3     0  <0>0        0.1229
     25  C20       -1.2500   28.4970   53.0120 C.ar    0  <0>0        0.0083
     26  C25       -1.9450   28.2530   51.8410 C.ar    0  <0>0        0.0553
     27  C24       -1.7530   27.0650   51.1580 C.ar    0  <0>0        0.0111
     28 Cl         -3.0540   29.4390   51.2260 Cl      0  <0>0       -0.0825
     29  C23       -0.8750   26.1190   51.6500 C.ar    0  <0>0        0.0008
     30  C22       -0.1840   26.3620   52.8240 C.ar    0  <0>0       -0.0002
     31  C21       -0.3720   27.5500   53.5040 C.ar    0  <0>0       -0.0018
@<TRIPOS>BOND
     1    27    29   ar
     2    27    26   ar
     3    28    26    1
     4    29    30   ar
     5    26    25   ar
     6    30    31   ar
     7    25    31   ar
     8    25    24    1
     9    24    12    1
    10    12    13    1
    11    12    10   am
    12    11    10    2
    13    13    14    1
    14    10     9    1
    15    14     8    2
    16     9     8    1
    17     9     1    1
    18     8     7    1
    19    23    22   ar
    20    23    17   ar
    21    16     1    1
    22    16    17    1
    23     1     2    1
    24    22    21   ar
    25    17    18   ar
    26     7     2   ar
    27     7     6   ar
    28    21    20   ar
    29     2     3   ar
    30    18    20   ar
    31    18    19    1
    32     6     5   ar
    33     3     4   ar
    34     5     4   ar
    35     5    15    1

@<TRIPOS>MOLECULE
ZINC30780836_replica-1.pdb
 27 30 0 0 0
SMALL
GASTEIGER

@<TRIPOS>ATOM
      1  C10        7.0160   35.5260   57.9160 C.3     0  <0>0        0.0975
      2  C11        8.0890   34.5860   57.3640 C.3     0  <0>0        0.0538
      3  C12        7.4510   33.5420   56.4530 C.3     0  <0>0        0.0073
      4  C13        6.5460   32.6180   57.2770 C.3     0  <0>0        0.0322
      5  C14        7.3760   31.9910   58.4030 C.3     0  <0>0        0.1425
      6  O3         7.9270   33.0300   59.2130 O.3     0  <0>0       -0.3518
      7  C15        8.8160   33.9130   58.5250 C.3     0  <0>0        0.1404
      8  C16        9.3060   34.9560   59.4980 C.ar    0  <0>0        0.0186
      9  C17       10.3430   34.6350   60.3570 C.ar    0  <0>0        0.0107
     10  C18       10.8110   35.5690   61.2630 C.ar    0  <0>0        0.0575
     11  C19       10.2450   36.8300   61.3160 C.ar    0  <0>0        0.0126
     12  C20        9.2110   37.1580   60.4600 C.ar    0  <0>0        0.0149
     13  C21        8.7400   36.2210   59.5470 C.ar    0  <0>0        0.0431
     14  N1         7.6990   36.5790   58.6820 N.pl3   0  <0>0       -0.3306
     15 Cl         12.1120   35.1580   62.3370 Cl      0  <0>0       -0.0823
     16  H24        7.3890   37.6290   58.5720 H       0  <0>0        0.1471
     17  C4         6.0800   34.7630   58.8160 C.ar    0  <0>0        0.0325
     18  C3         4.8400   34.3600   58.3460 C.ar    0  <0>0        0.1697
     19  C8         3.9770   33.6560   59.1800 C.ar    0  <0>0        0.1721
     20  C7         4.3620   33.3600   60.4780 C.ar    0  <0>0        0.0400
     21  C6         5.5990   33.7650   60.9410 C.ar    0  <0>0        0.0030
     22  C5         6.4590   34.4610   60.1110 C.ar    0  <0>0        0.0005
     23  O1         4.4670   34.6530   57.0720 O.3     0  <0>0       -0.4727
     24  C2         3.7020   35.8450   56.8770 C.3     0  <0>0        0.2057
     25  C1         4.0510   36.4590   55.5190 C.3     0  <0>0        0.0512
     26  O2         2.7600   33.2570   58.7230 O.3     0  <0>0       -0.4684
     27  C9         1.6110   33.8440   59.3370 C.3     0  <0>0        0.2526
@<TRIPOS>BOND
     1    25    24    1
     2     3     4    1
     3     3     2    1
     4    24    23    1
     5    23    18    1
     6     4     5    1
     7     2     1    1
     8     2     7    1
     9     1    14    1
    10     1    17    1
    11    18    17   ar
    12    18    19   ar
    13     5     6    1
    14     7     6    1
    15     7     8    1
    16    16    14    1
    17    14    13    1
    18    26    19    1
    19    26    27    1
    20    17    22   ar
    21    19    20   ar
    22     8    13   ar
    23     8     9   ar
    24    13    12   ar
    25    22    21   ar
    26     9    10   ar
    27    12    11   ar
    28    20    21   ar
    29    10    11   ar
    30    10    15    1

@<TRIPOS>MOLECULE
ZINC23138007_replica-1.pdb
 28 30 0 0 0
SMALL
GASTEIGER

@<TRIPOS>ATOM
      1  C8         6.9500   36.2880   60.0940 C.1     0  <0>0        0.1787
      2  N1         7.9080   36.1410   61.0510 N.2     0  <0>0       -0.2640
      3  C9         9.0530   36.8520   60.9680 C.1     0  <0>0        0.1980
      4  O1         9.9220   36.7330   61.8170 O.2     0  <0>0       -0.2130
      5  C10        9.2240   37.7340   59.8870 C.3     0  <0>0        0.1910
      6  C11        8.2290   37.8400   58.9580 C.2     0  <0>0        0.1265
      7  N2         7.1190   37.1180   59.0820 N.2     0  <0>0       -0.3415
      8  C12        8.3890   38.7790   57.7890 C.3     0  <0>0        0.1414
      9  C13        7.8310   38.1330   56.5470 C.2     0  <0>0        0.2296
     10  O2         7.1560   38.7820   55.7760 O.2     0  <0>0       -0.2746
     11  N3         8.0820   36.8330   56.2940 N.am    0  <0>0       -0.3001
     12  H11        8.6940   36.2450   56.9930 H       0  <0>0        0.1498
     13  C14        7.5400   36.2030   55.0860 C.3     0  <0>0        0.1163
     14  C15        6.4470   35.2400   55.4690 C.ar    0  <0>0       -0.0025
     15  C20        6.7140   34.2030   56.3450 C.ar    0  <0>0       -0.0018
     16  C19        5.7120   33.3190   56.6950 C.ar    0  <0>0        0.0111
     17  C18        4.4410   33.4720   56.1720 C.ar    0  <0>0        0.0577
     18  C17        4.1730   34.5090   55.2960 C.ar    0  <0>0        0.0111
     19 Cl          3.1800   32.3620   56.6130 Cl      0  <0>0       -0.0822
     20  C16        5.1750   35.3960   54.9500 C.ar    0  <0>0       -0.0018
     21  S1         5.4610   35.3540   60.2090 S.3     0  <0>0       -0.0127
     22  C7         4.5180   36.0990   58.8560 C.3     0  <0>0        0.1006
     23  C4         3.1440   35.4810   58.8000 C.ar    0  <0>0       -0.0103
     24  C3         2.1950   35.9810   57.9280 C.ar    0  <0>0       -0.0034
     25  C2         0.9360   35.4140   57.8760 C.ar    0  <0>0       -0.0003
     26  C1         0.6250   34.3470   58.6980 C.ar    0  <0>0       -0.0000
     27  C6         1.5730   33.8460   59.5700 C.ar    0  <0>0       -0.0003
     28  C5         2.8340   34.4100   59.6170 C.ar    0  <0>0       -0.0034
@<TRIPOS>BOND
     1    20    18   ar
     2    20    14   ar
     3    13    14    1
     4    13    11    1
     5    18    17   ar
     6    14    15   ar
     7    10     9    2
     8    17    19    1
     9    17    16   ar
    10    11     9   am
    11    11    12    1
    12    15    16   ar
    13     9     8    1
    14     8     6    1
    15    25    24   ar
    16    25    26   ar
    17    24    23   ar
    18    26    27   ar
    19    23    22    1
    20    23    28   ar
    21    22    21    1
    22     6     7    2
    23     6     5    1
    24     7     1    2
    25    27    28   ar
    26     5     3    1
    27     1    21    1
    28     1     2    2
    29     3     2    2
    30     3     4    2

@<TRIPOS>MOLECULE
ZINC63492758_replica-1.pdb
 31 34 0 0 0
SMALL
GASTEIGER

@<TRIPOS>ATOM
      1  N1         0.8380   30.7070   55.6500 N.am    0  <0>0       -0.3043
      2  C10        0.6410   31.3500   56.8180 C.2     0  <0>0        0.2228
      3  O1        -0.2050   32.2170   56.8970 O.2     0  <0>0       -0.2751
      4  H11        1.5150   30.0140   55.5870 H       0  <0>0        0.1494
      5  C9         0.0310   31.0520   54.4770 C.3     0  <0>0        0.0901
      6  C8        -0.9340   29.9050   54.1680 C.3     0  <0>0        0.0300
      7  C7        -0.2440   28.5680   54.4510 C.3     0  <0>0        0.0462
      8  C4        -0.5570   27.5980   53.3420 C.ar    0  <0>0       -0.0184
      9  C3        -0.0940   26.2960   53.4110 C.ar    0  <0>0       -0.0040
     10  C2        -0.3820   25.4060   52.3940 C.ar    0  <0>0       -0.0003
     11  C1        -1.1330   25.8150   51.3080 C.ar    0  <0>0       -0.0000
     12  C6        -1.5960   27.1150   51.2400 C.ar    0  <0>0       -0.0003
     13  C5        -1.3080   28.0070   52.2550 C.ar    0  <0>0       -0.0040
     14  C21       -0.7420   28.0130   55.7610 C.ar    0  <0>0       -0.0184
     15  C26        0.0330   27.1150   56.4690 C.ar    0  <0>0       -0.0040
     16  C25       -0.4220   26.6090   57.6730 C.ar    0  <0>0       -0.0003
     17  C24       -1.6550   26.9950   58.1620 C.ar    0  <0>0       -0.0000
     18  C23       -2.4330   27.8890   57.4500 C.ar    0  <0>0       -0.0003
     19  C22       -1.9760   28.3980   56.2490 C.ar    0  <0>0       -0.0040
     20  C11        1.4710   30.9960   58.0240 C.3     0  <0>0        0.0898
     21  C12        0.6910   30.0250   58.9130 C.3     0  <0>0        0.0375
     22  C13        0.4590   30.6550   60.2620 C.ar    0  <0>0       -0.0033
     23  C20        1.1300   31.8920   60.8150 C.ar    0  <0>0        0.0681
     24  N2         0.5630   32.0940   62.1540 N.ar    0  <0>0       -0.3523
     25  C19       -0.3010   31.1360   62.3900 C.ar    0  <0>0        0.0563
     26  H27        0.7940   32.8110   62.7640 H       0  <0>0        0.1660
     27  C14       -0.3860   30.2240   61.2260 C.ar    0  <0>0        0.0131
     28  C18       -1.1190   30.8570   63.5180 C.ar    0  <0>0        0.0170
     29  C15       -1.3090   29.0840   61.3040 C.ar    0  <0>0        0.0012
     30  C16       -2.0410   28.9100   62.4270 C.ar    0  <0>0        0.0001
     31  C17       -1.9440   29.7880   63.5150 C.ar    0  <0>0        0.0015
@<TRIPOS>BOND
     1    12    11   ar
     2    12    13   ar
     3    11    10   ar
     4    13     8   ar
     5    10     9   ar
     6     8     9   ar
     7     8     7    1
     8     6     7    1
     9     6     5    1
    10     7    14    1
    11     5     1    1
    12     4     1    1
    13     1     2   am
    14    14    19   ar
    15    14    15   ar
    16    19    18   ar
    17    15    16   ar
    18     2     3    2
    19     2    20    1
    20    18    17   ar
    21    16    17   ar
    22    20    21    1
    23    21    22    1
    24    22    23   ar
    25    22    27   ar
    26    23    24   ar
    27    27    29   ar
    28    27    25   ar
    29    29    30   ar
    30    24    25   ar
    31    24    26    1
    32    25    28   ar
    33    30    31   ar
    34    31    28   ar

@<TRIPOS>MOLECULE
ZINC46078225_replica-1.pdb
 27 29 0 0 0
SMALL
GASTEIGER

@<TRIPOS>ATOM
      1  N1         6.4660   35.1600   57.1370 N.ar    0  <0>0       -0.1943
      2  C9         7.0720   33.9720   57.3520 C.ar    0  <0>0        0.1809
      3  N2         6.6160   33.1370   56.4550 N.ar    0  <0>0       -0.1107
      4  N3         5.7630   33.7150   55.6890 N.ar    0  <0>0       -0.0226
      5  N4         5.6110   34.9460   56.0410 N.ar    0  <0>0       -0.0388
      6  C10        8.0850   33.6670   58.4240 C.3     0  <0>0        0.1089
      7  C11        7.4170   33.7510   59.7980 C.3     0  <0>0        0.0274
      8  C12        8.6420   32.2570   58.2140 C.3     0  <0>0        0.0253
      9  C13        8.1310   31.3360   59.3230 C.3     0  <0>0        0.0022
     10  N5         9.1790   34.6380   58.3520 N.pl3   0  <0>0       -0.3296
     11  H17        9.4560   34.9940   57.4940 H       0  <0>0        0.1471
     12  C14        9.8220   35.0540   59.5200 C.ar    0  <0>0        0.0448
     13  C19        9.5960   36.3290   60.0240 C.ar    0  <0>0        0.0140
     14  C18       10.2300   36.7340   61.1810 C.ar    0  <0>0       -0.0030
     15  C17       11.0970   35.8770   61.8340 C.ar    0  <0>0       -0.0218
     16  C16       11.3290   34.6090   61.3330 C.ar    0  <0>0       -0.0030
     17  C20       11.7910   36.3260   63.0950 C.3     0  <0>0        0.0310
     18  C15       10.6930   34.1950   60.1790 C.ar    0  <0>0        0.0140
     19  C8         6.6460   36.3500   57.8570 C.ar    0  <0>0        0.0779
     20  C3         5.9090   36.5840   59.0100 C.ar    0  <0>0       -0.0047
     21  C4         6.0930   37.7540   59.7210 C.ar    0  <0>0       -0.0028
     22  C5         7.0060   38.6940   59.2820 C.ar    0  <0>0       -0.0005
     23  C6         7.7380   38.4670   58.1300 C.ar    0  <0>0       -0.0028
     24  C7         7.5580   37.2990   57.4150 C.ar    0  <0>0       -0.0044
     25  C21        8.3550   37.0530   56.1610 C.3     0  <0>0        0.0326
     26  C2         4.9130   35.5590   59.4890 C.3     0  <0>0        0.0279
     27  C1         3.5430   35.8510   58.8720 C.3     0  <0>0        0.0051
@<TRIPOS>BOND
     1     4     5   ar
     2     4     3   ar
     3     5     1   ar
     4    25    24    1
     5     3     2   ar
     6     1     2   ar
     7     1    19    1
     8     2     6    1
     9    24    19   ar
    10    24    23   ar
    11    11    10    1
    12    19    20   ar
    13    23    22   ar
    14     8     6    1
    15     8     9    1
    16    10     6    1
    17    10    12    1
    18     6     7    1
    19    27    26    1
    20    20    26    1
    21    20    21   ar
    22    22    21   ar
    23    12    13   ar
    24    12    18   ar
    25    13    14   ar
    26    18    16   ar
    27    14    15   ar
    28    16    15   ar
    29    15    17    1

@<TRIPOS>MOLECULE
CHEMBL441373_replica-1.pdb
 28 31 0 0 0
SMALL
GASTEIGER

@<TRIPOS>ATOM
      1  N1         1.0880   31.0030   55.5880 N.am    0  <0>0       -0.2839
      2  C13        0.9970   31.0040   56.9330 C.2     0  <0>0        0.2278
      3  O1         0.0520   30.4730   57.4770 O.2     0  <0>0       -0.2747
      4  H10        1.8790   31.3600   55.1550 H       0  <0>0        0.1549
      5  C11        0.0410   30.4880   54.8160 C.ar    0  <0>0        0.0503
      6  C10       -1.1070   31.2440   54.6090 C.ar    0  <0>0        0.0147
      7  C9        -2.1430   30.7390   53.8470 C.ar    0  <0>0        0.0013
      8  C8        -2.0440   29.4820   53.2870 C.ar    0  <0>0        0.0001
      9  C7        -0.8960   28.7160   53.4880 C.ar    0  <0>0        0.0012
     10  C12        0.1460   29.2220   54.2610 C.ar    0  <0>0        0.0147
     11  C4        -0.7880   27.3640   52.8870 C.ar    0  <0>0        0.0000
     12  C3        -1.3840   27.0980   51.6560 C.ar    0  <0>0        0.0000
     13  C2        -1.2790   25.8380   51.1010 C.ar    0  <0>0        0.0000
     14  C1        -0.5840   24.8430   51.7630 C.ar    0  <0>0        0.0000
     15  C6         0.0100   25.1020   52.9850 C.ar    0  <0>0        0.0000
     16  C5        -0.0890   26.3580   53.5500 C.ar    0  <0>0        0.0000
     17  C14        2.0690   31.6650   57.7610 C.3     0  <0>0        0.1056
     18  C17        2.8240   32.7330   56.9370 C.3     0  <0>0        0.1029
     19  N2         3.1160   33.8190   57.8800 N.am    0  <0>0       -0.2807
     20  C16        2.3530   33.7280   58.9820 C.2     0  <0>0        0.2261
     21  C15        1.4470   32.5200   58.8900 C.3     0  <0>0        0.0961
     22  O2         2.3860   34.5010   59.9170 O.2     0  <0>0       -0.2749
     23  C18        4.1110   34.8690   57.6470 C.3     0  <0>0        0.0753
     24  C23        5.5010   34.3430   58.0070 C.3     0  <0>0        0.0198
     25  C22        6.5400   35.4390   57.7640 C.3     0  <0>0        0.0017
     26  C21        6.5160   35.8470   56.2890 C.3     0  <0>0        0.0001
     27  C20        5.1260   36.3730   55.9290 C.3     0  <0>0        0.0017
     28  C19        4.0870   35.2770   56.1730 C.3     0  <0>0        0.0198
@<TRIPOS>BOND
     1    13    12   ar
     2    13    14   ar
     3    12    11   ar
     4    14    15   ar
     5    11     9    1
     6    11    16   ar
     7    15    16   ar
     8     8     9   ar
     9     8     7   ar
    10     9    10   ar
    11     7     6   ar
    12    10     5   ar
    13     6     5   ar
    14     5     1    1
    15     4     1    1
    16     1     2   am
    17    27    28    1
    18    27    26    1
    19    28    23    1
    20    26    25    1
    21     2     3    2
    22     2    17    1
    23    18    17    1
    24    18    19    1
    25    23    19    1
    26    23    24    1
    27    17    21    1
    28    25    24    1
    29    19    20   am
    30    21    20    1
    31    20    22    2

@<TRIPOS>MOLECULE
ZINC49897647_replica-1.pdb
 24 26 0 0 0
SMALL
GASTEIGER

@<TRIPOS>ATOM
      1  C10       10.5780   36.3620   61.4100 C.3     0  <0>0        0.0550
      2  C9        11.1000   34.9460   61.1550 C.3     0  <0>0        0.0899
      3  N1        12.1680   34.6400   62.1100 N.pl3   0  <0>0       -0.3328
      4  H11       12.8030   35.3280   62.3630 H       0  <0>0        0.1468
      5  C5        12.2720   33.3590   62.6550 C.ar    0  <0>0        0.0406
      6  C4        11.1330   32.5810   62.8270 C.ar    0  <0>0        0.0137
      7  C3        11.2390   31.3140   63.3660 C.ar    0  <0>0       -0.0030
      8  C2        12.4760   30.8190   63.7340 C.ar    0  <0>0       -0.0221
      9  C1        12.5880   29.4360   64.3220 C.3     0  <0>0        0.0310
     10  C7        13.6100   31.5920   63.5690 C.ar    0  <0>0       -0.0073
     11  C6        13.5120   32.8580   63.0260 C.ar    0  <0>0       -0.0091
     12  C8        14.7510   33.6970   62.8410 C.3     0  <0>0        0.0323
     13  C11        9.0570   36.3820   61.2440 C.3     0  <0>0        0.1344
     14  C12        8.7100   36.8580   59.8560 C.ar    0  <0>0        0.0040
     15  C17        8.7750   35.9830   58.7900 C.ar    0  <0>0       -0.0065
     16  C16        8.4510   36.4160   57.5140 C.ar    0  <0>0       -0.0264
     17  C15        8.0730   37.7290   57.3080 C.ar    0  <0>0       -0.0261
     18  C18        8.4360   35.6660   56.1990 C.3     0  <0>0        0.0264
     19  C14        8.0140   38.6050   58.3780 C.ar    0  <0>0       -0.0048
     20  C20        7.7790   37.9520   55.8400 C.3     0  <0>0        0.0264
     21  C13        8.3310   38.1710   59.6500 C.ar    0  <0>0       -0.0023
     22  C19        7.5940   36.5390   55.2460 C.3     0  <0>0        0.0093
     23  O1         8.4840   37.2660   62.2080 O.3     0  <0>0       -0.3800
     24  H25        9.1360   37.7760   62.7100 H       0  <0>0        0.2108
@<TRIPOS>BOND
     1    22    20    1
     2    22    18    1
     3    20    17    1
     4    18    16    1
     5    17    16   ar
     6    17    19   ar
     7    16    15   ar
     8    19    21   ar
     9    15    14   ar
    10    21    14   ar
    11    14    13    1
    12     2     1    1
    13     2     3    1
    14    13     1    1
    15    13    23    1
    16     3     4    1
    17     3     5    1
    18    23    24    1
    19     5     6   ar
    20     5    11   ar
    21     6     7   ar
    22    12    11    1
    23    11    10   ar
    24     7     8   ar
    25    10     8   ar
    26     8     9    1

@<TRIPOS>MOLECULE
ZINC66170284_replica-1.pdb
 25 27 0 0 0
SMALL
GASTEIGER

@<TRIPOS>ATOM
      1  C8        10.2700   35.6590   60.4120 C.ar    0  <0>0        0.0451
      2  C9        10.0570   34.8760   59.2860 C.ar    0  <0>0        0.0174
      3  C10        9.2860   35.3580   58.2460 C.ar    0  <0>0        0.0382
      4  C11        8.7250   36.6240   58.3270 C.ar    0  <0>0        0.1386
      5  C12        8.9380   37.4070   59.4510 C.ar    0  <0>0        0.0382
      6  C13        9.7040   36.9250   60.4940 C.ar    0  <0>0        0.0174
      7  N1        11.0500   35.1720   61.4670 N.pl3   0  <0>0       -0.3290
      8  H7        11.6570   35.7660   61.9360 H       0  <0>0        0.1471
      9  C7        10.9510   33.7650   61.8620 C.3     0  <0>0        0.1165
     10  C5        12.2590   33.3180   62.4620 C.ar    0  <0>0        0.0249
     11  C4        12.3380   32.1060   63.1250 C.ar    0  <0>0        0.1377
     12  C3        13.5420   31.6970   63.6760 C.ar    0  <0>0        0.0294
     13  F1        11.2430   31.3230   63.2370 F       0  <0>0       -0.2044
     14  C2        14.6620   32.4970   63.5610 C.ar    0  <0>0        0.0023
     15  C1        14.5810   33.7080   62.8970 C.ar    0  <0>0       -0.0001
     16  C6        13.3800   34.1180   62.3480 C.ar    0  <0>0       -0.0004
     17  O1         7.9660   37.0970   57.3020 O.3     0  <0>0       -0.4755
     18  C14        7.3430   36.1280   56.4550 C.3     0  <0>0        0.2054
     19  C15        5.9970   36.6680   55.9670 C.3     0  <0>0        0.0473
     20  C16        4.8640   35.8830   56.6300 C.3     0  <0>0        0.0037
     21  C21        4.8810   36.1380   58.1390 C.3     0  <0>0        0.0001
     22  C20        3.7480   35.3530   58.8020 C.3     0  <0>0        0.0000
     23  C19        2.4060   35.8070   58.2230 C.3     0  <0>0        0.0000
     24  C18        2.3880   35.5530   56.7140 C.3     0  <0>0        0.0000
     25  C17        3.5220   36.3380   56.0520 C.3     0  <0>0        0.0001
@<TRIPOS>BOND
     1    19    18    1
     2    19    20    1
     3    25    20    1
     4    25    24    1
     5    18    17    1
     6    20    21    1
     7    24    23    1
     8    17     4    1
     9    21    22    1
    10    23    22    1
    11     3     4   ar
    12     3     2   ar
    13     4     5   ar
    14     2     1   ar
    15     5     6   ar
    16     1     6   ar
    17     1     7    1
    18     7     9    1
    19     7     8    1
    20     9    10    1
    21    16    10   ar
    22    16    15   ar
    23    10    11   ar
    24    15    14   ar
    25    11    13    1
    26    11    12   ar
    27    14    12   ar

@<TRIPOS>MOLECULE
ZINC21237752_replica-1.pdb
 36 40 0 0 0
SMALL
GASTEIGER

@<TRIPOS>ATOM
      1  C11        8.1490   35.2250   59.9640 C.3     0  <0>0        0.0356
      2  C12        6.9600   35.0980   60.9140 C.3     0  <0>0        0.0458
      3  C13        5.6620   35.2650   60.1440 C.2     0  <0>0        0.0262
      4  C14        5.6040   36.0710   59.0700 C.2     0  <0>0        0.0436
      5  C15        4.3840   36.3280   58.2180 C.3     0  <0>0        0.1186
      6  N1         3.1450   35.8350   58.7800 N.pl3   0  <0>0       -0.3262
      7  C16        2.9320   34.4700   58.9660 C.ar    0  <0>0        0.0586
      8  C17        1.9910   33.7770   58.2240 C.ar    0  <0>0        0.0156
      9  C18        1.8920   32.4030   58.3640 C.ar    0  <0>0        0.0013
     10  C19        2.7230   31.7260   59.2380 C.ar    0  <0>0        0.0014
     11  C20        3.6510   32.4200   59.9970 C.ar    0  <0>0        0.0158
     12  C21        3.7380   33.7960   59.8710 C.ar    0  <0>0        0.0614
     13  N2         4.6120   34.5590   60.6360 N.pl3   0  <0>0       -0.3150
     14  C28        6.7600   36.7660   58.6390 C.2     0  <0>0        0.1722
     15  O2         6.6740   37.5090   57.6810 O.2     0  <0>0       -0.2916
     16  C29        8.0860   36.6160   59.3210 C.3     0  <0>0        0.0736
     17  H18        2.3520   36.5420   59.0670 H       0  <0>0        0.1474
     18  H23        4.4060   34.5630   61.7170 H       0  <0>0        0.1520
     19  C8         9.4370   35.0750   60.7330 C.ar    0  <0>0       -0.0215
     20  C7         9.9750   33.8180   60.9390 C.ar    0  <0>0       -0.0011
     21  C6        11.1550   33.6780   61.6450 C.ar    0  <0>0        0.0366
     22  C5        11.8000   34.8010   62.1460 C.ar    0  <0>0        0.1385
     23  C10       11.2570   36.0600   61.9370 C.ar    0  <0>0        0.0366
     24  C9        10.0800   36.1950   61.2270 C.ar    0  <0>0       -0.0011
     25  O1        12.9600   34.6650   62.8400 O.3     0  <0>0       -0.4755
     26  C4        14.0520   34.0400   62.1630 C.3     0  <0>0        0.2053
     27  C2        14.7580   33.0740   63.1160 C.3     0  <0>0        0.0438
     28  C1        15.2800   33.8450   64.3300 C.3     0  <0>0        0.0038
     29  C3        13.7690   32.0010   63.5780 C.3     0  <0>0        0.0038
     30  C22        4.5930   35.6730   56.8760 C.ar    0  <0>0       -0.0001
     31  C27        3.9290   36.1520   55.7630 C.ar    0  <0>0       -0.0001
     32  C26        4.1200   35.5540   54.5320 C.ar    0  <0>0        0.0294
     33  C25        4.9770   34.4730   54.4140 C.ar    0  <0>0        0.1401
     34  C24        5.6420   33.9940   55.5300 C.ar    0  <0>0        0.0294
     35  F1         5.1640   33.8860   53.2120 F       0  <0>0       -0.2042
     36  C23        5.4540   34.5970   56.7590 C.ar    0  <0>0       -0.0001
@<TRIPOS>BOND
     1    35    33    1
     2    33    32   ar
     3    33    34   ar
     4    32    31   ar
     5    34    36   ar
     6    31    30   ar
     7    36    30   ar
     8    30     5    1
     9    15    14    2
    10     5     6    1
    11     5     4    1
    12     8     9   ar
    13     8     7   ar
    14     9    10   ar
    15    14     4    1
    16    14    16    1
    17     6     7    1
    18     6    17    1
    19     7    12   ar
    20     4     3    2
    21    10    11   ar
    22    16     1    1
    23    12    11   ar
    24    12    13    1
    25     1    19    1
    26     1     2    1
    27     3    13    1
    28     3     2    1
    29    13    18    1
    30    19    20   ar
    31    19    24   ar
    32    20    21   ar
    33    24    23   ar
    34    21    22   ar
    35    23    22   ar
    36    22    25    1
    37    26    25    1
    38    26    27    1
    39    27    29    1
    40    27    28    1

@<TRIPOS>MOLECULE
ZINC21246281_replica-1.pdb
 37 41 0 0 0
SMALL
GASTEIGER

@<TRIPOS>ATOM
      1  C10        5.4920   35.1470   59.1020 C.3     0  <0>0        0.1215
      2  C11        5.5140   33.8320   59.8410 C.2     0  <0>0        0.0437
      3  C12        4.4740   33.2710   60.4830 C.2     0  <0>0        0.0262
      4  C13        4.6370   31.9430   61.2030 C.3     0  <0>0        0.0458
      5  C14        5.6690   31.0800   60.4780 C.3     0  <0>0        0.0356
      6  C15        6.9950   31.8500   60.4690 C.3     0  <0>0        0.0736
      7  C16        6.7690   33.1810   59.8150 C.2     0  <0>0        0.1722
      8  O2         7.6970   33.7180   59.2430 O.2     0  <0>0       -0.2916
      9  N2         3.2340   33.8170   60.5680 N.pl3   0  <0>0       -0.3150
     10  C25        2.5310   34.3630   59.5000 C.ar    0  <0>0        0.0614
     11  C26        1.3510   33.8100   59.0300 C.ar    0  <0>0        0.0158
     12  C27        0.6760   34.4320   57.9940 C.ar    0  <0>0        0.0014
     13  C28        1.1750   35.5960   57.4370 C.ar    0  <0>0        0.0013
     14  C29        2.3630   36.1400   57.8930 C.ar    0  <0>0        0.0156
     15  C30        3.0520   35.5060   58.9150 C.ar    0  <0>0        0.0586
     16  N3         4.3060   35.9450   59.3300 N.pl3   0  <0>0       -0.3261
     17  H28        2.7110   33.8480   61.5350 H       0  <0>0        0.1520
     18  H33        4.3870   36.9170   59.8400 H       0  <0>0        0.1474
     19  C9         5.6000   34.8670   57.6250 C.ar    0  <0>0        0.0337
     20  C4         6.2060   35.7890   56.7850 C.ar    0  <0>0        0.1362
     21  C5         6.3070   35.5240   55.4260 C.ar    0  <0>0        0.0366
     22  C6         5.7960   34.3500   54.9120 C.ar    0  <0>0        0.0031
     23  C7         5.1920   33.4310   55.7520 C.ar    0  <0>0       -0.0001
     24  C8         5.0940   33.6890   57.1060 C.ar    0  <0>0        0.0007
     25  O1         6.7050   36.9470   57.2920 O.3     0  <0>0       -0.4794
     26  C2         8.1060   37.1750   57.1320 C.3     0  <0>0        0.1661
     27  C1         8.3620   38.6730   56.9540 C.3     0  <0>0        0.0472
     28  C3         8.8480   36.6750   58.3730 C.3     0  <0>0        0.0472
     29  C17        5.8430   29.7730   61.2070 C.ar    0  <0>0       -0.0216
     30  C22        7.0990   29.3830   61.6330 C.ar    0  <0>0       -0.0030
     31  C21        7.2620   28.1850   62.3020 C.ar    0  <0>0        0.0142
     32  C20        6.1620   27.3710   62.5450 C.ar    0  <0>0        0.0479
     33  C19        4.9020   27.7660   62.1140 C.ar    0  <0>0        0.0142
     34  C18        4.7450   28.9680   61.4520 C.ar    0  <0>0       -0.0030
     35  N1         6.3240   26.1600   63.2190 N.pl3   0  <0>0       -0.3041
     36  C23        7.1440   25.0980   62.6320 C.3     0  <0>0        0.1122
     37  C24        5.6740   25.9510   64.5150 C.3     0  <0>0        0.1122
@<TRIPOS>BOND
     1    22    21   ar
     2    22    23   ar
     3    21    20   ar
     4    23    24   ar
     5    20    25    1
     6    20    19   ar
     7    27    26    1
     8    24    19   ar
     9    26    25    1
    10    26    28    1
    11    13    14   ar
    12    13    12   ar
    13    19     1    1
    14    14    15   ar
    15    12    11   ar
    16    15    16    1
    17    15    10   ar
    18    11    10   ar
    19     1    16    1
    20     1     2    1
    21     8     7    2
    22    16    18    1
    23    10     9    1
    24     7     2    1
    25     7     6    1
    26     2     3    2
    27     6     5    1
    28     5     4    1
    29     5    29    1
    30     3     9    1
    31     3     4    1
    32     9    17    1
    33    29    34   ar
    34    29    30   ar
    35    34    33   ar
    36    30    31   ar
    37    33    32   ar
    38    31    32   ar
    39    32    35    1
    40    36    35    1
    41    35    37    1

@<TRIPOS>MOLECULE
ZINC10237044_replica-1.pdb
 30 33 0 0 0
SMALL
GASTEIGER

@<TRIPOS>ATOM
      1  C11        8.9200   36.2150   58.1250 C.2     0  <0>0        0.0476
      2  C12        8.3060   37.3980   58.1000 C.2     0  <0>0        0.0501
      3  S1         8.6960   38.0500   59.7160 S.3     0  <0>0       -0.0383
      4  C13        9.6570   36.6730   60.3000 C.2     0  <0>0        0.2182
      5  N2         9.6200   35.8060   59.2390 N.pl3   0  <0>0       -0.2532
      6  C14       10.3580   34.7020   59.6500 C.3     0  <0>0        0.1569
      7  C15       10.7930   34.9450   60.9100 C.2     0  <0>0        0.1315
      8  N3        10.3520   36.1660   61.2760 N.2     0  <0>0       -0.3829
      9  C10        8.8430   35.3110   56.9220 C.3     0  <0>0        0.1269
     10  C9         7.5810   35.6040   56.1520 C.2     0  <0>0        0.2284
     11  N1         6.4130   35.0550   56.5390 N.am    0  <0>0       -0.3019
     12  H8         6.3840   34.4720   57.3130 H       0  <0>0        0.1497
     13  O1         7.6170   36.3340   55.1840 O.2     0  <0>0       -0.2747
     14  C2         5.1870   35.3360   55.7870 C.3     0  <0>0        0.0942
     15  C1         4.9250   34.1990   54.7970 C.3     0  <0>0        0.0262
     16  C3         4.0260   35.4480   56.7410 C.ar    0  <0>0       -0.0021
     17  C8         2.7680   35.7610   56.2640 C.ar    0  <0>0        0.0293
     18  C7         1.7010   35.8640   57.1400 C.ar    0  <0>0        0.1671
     19  C6         1.8970   35.6520   58.4960 C.ar    0  <0>0        0.1674
     20  F1         0.4700   36.1690   56.6740 F       0  <0>0       -0.2018
     21  C5         3.1590   35.3390   58.9720 C.ar    0  <0>0        0.0317
     22  F2         0.8570   35.7510   59.3540 F       0  <0>0       -0.2018
     23  C4         4.2210   35.2320   58.0930 C.ar    0  <0>0       -0.0002
     24  C16       11.6190   34.0330   61.7380 C.ar    0  <0>0        0.0273
     25  C21       12.9500   34.3470   62.0080 C.ar    0  <0>0        0.0046
     26  C20       13.7140   33.4950   62.7800 C.ar    0  <0>0        0.0297
     27  C19       13.1610   32.3300   63.2850 C.ar    0  <0>0        0.1401
     28  C18       11.8390   32.0140   63.0200 C.ar    0  <0>0        0.0297
     29  F3        13.9140   31.5000   64.0400 F       0  <0>0       -0.2042
     30  C17       11.0650   32.8620   62.2520 C.ar    0  <0>0        0.0046
@<TRIPOS>BOND
     1    15    14    1
     2    13    10    2
     3    14    11    1
     4    14    16    1
     5    10    11   am
     6    10     9    1
     7    17    16   ar
     8    17    18   ar
     9    11    12    1
    10    20    18    1
    11    16    23   ar
    12     9     1    1
    13    18    19   ar
    14    23    21   ar
    15     2     1    2
    16     2     3    1
    17     1     5    1
    18    19    21   ar
    19    19    22    1
    20     5     6    1
    21     5     4    1
    22     6     7    1
    23     3     4    1
    24     4     8    2
    25     7     8    2
    26     7    24    1
    27    24    25   ar
    28    24    30   ar
    29    25    26   ar
    30    30    28   ar
    31    26    27   ar
    32    28    27   ar
    33    27    29    1

@<TRIPOS>MOLECULE
ZINC40722295_replica-1.pdb
 31 35 0 0 0
SMALL
GASTEIGER

@<TRIPOS>ATOM
      1  C9         3.1100   34.0430   59.9890 C.ar    0  <0>0        0.1666
      2  C10        3.2940   35.0460   59.0510 C.ar    0  <0>0       -0.0066
      3  C11        2.2010   35.6440   58.4530 C.ar    0  <0>0       -0.0032
      4  C12        0.9210   35.2430   58.7880 C.ar    0  <0>0        0.0029
      5  C13        0.7290   34.2430   59.7230 C.ar    0  <0>0        0.0400
      6  C14        1.8210   33.6360   60.3220 C.ar    0  <0>0        0.1720
      7  C16        4.6880   35.4860   58.6840 C.3     0  <0>0       -0.0509
      8  N1         5.3820   35.9700   59.8850 N.4     0  <0>0        0.3891
      9  H18        4.9140   36.7920   60.2350 H       0  <0>0       -0.0838
     10  H34        5.3710   35.2500   60.5920 H       0  <0>0       -0.0838
     11  C17        6.7720   36.3030   59.5470 C.3     0  <0>0       -0.0453
     12  C22        7.7160   35.6170   60.5360 C.3     0  <0>0       -0.0195
     13  C21        9.1640   35.9640   60.1840 C.3     0  <0>0       -0.0020
     14  C20        9.3580   37.4800   60.2600 C.3     0  <0>0       -0.0001
     15  C23        9.4740   35.4820   58.7650 C.3     0  <0>0       -0.0001
     16  C19        8.4140   38.1660   59.2710 C.3     0  <0>0       -0.0020
     17  C18        6.9660   37.8190   59.6230 C.3     0  <0>0       -0.0195
     18  C25        8.7230   37.6840   57.8520 C.3     0  <0>0       -0.0001
     19  C24        8.5300   36.1680   57.7760 C.3     0  <0>0       -0.0020
     20  C26        7.0820   35.8200   58.1280 C.3     0  <0>0       -0.0195
     21  O1         4.1840   33.4540   60.5790 O.3     0  <0>0       -0.4680
     22  C8         4.5340   32.1440   60.1310 C.3     0  <0>0        0.2318
     23  C7         6.0010   32.1050   59.7890 C.ar    0  <0>0        0.0172
     24  C2         6.4050   32.1250   58.4670 C.ar    0  <0>0       -0.0223
     25  C1         5.3770   32.1880   57.3670 C.3     0  <0>0        0.0308
     26  C3         7.7510   32.0940   58.1550 C.ar    0  <0>0       -0.0045
     27  C4         8.6930   32.0360   59.1640 C.ar    0  <0>0       -0.0003
     28  C5         8.2900   32.0100   60.4860 C.ar    0  <0>0       -0.0002
     29  C6         6.9440   32.0420   60.7990 C.ar    0  <0>0       -0.0010
     30  O2         1.6340   32.6480   61.2380 O.3     0  <0>0       -0.4684
     31  C15        0.6770   32.8930   62.2710 C.3     0  <0>0        0.2526
@<TRIPOS>BOND
     1    25    24    1
     2    19    18    1
     3    19    20    1
     4    19    15    1
     5    18    16    1
     6    20    11    1
     7    26    24   ar
     8    26    27   ar
     9     3     4   ar
    10     3     2   ar
    11    24    23   ar
    12     7     2    1
    13     7     8    1
    14    15    13    1
    15     4     5   ar
    16     2     1   ar
    17    27    28   ar
    18    16    17    1
    19    16    14    1
    20    11    17    1
    21    11     8    1
    22    11    12    1
    23     5     6   ar
    24    23    22    1
    25    23    29   ar
    26     8     9    1
    27     8    10    1
    28     1     6   ar
    29     1    21    1
    30    22    21    1
    31    13    14    1
    32    13    12    1
    33     6    30    1
    34    28    29   ar
    35    30    31    1

@<TRIPOS>MOLECULE
CHEMBL217594_replica-1.pdb
 31 35 0 0 0
SMALL
GASTEIGER

@<TRIPOS>ATOM
      1  C1         6.5180   35.5280   60.0660 C.3     0  <0>0        0.1152
      2  N1         7.5320   35.4080   59.0150 N.am    0  <0>0       -0.2736
      3  C17        8.8400   35.4030   59.3390 C.2     0  <0>0        0.2276
      4  O1         9.6810   35.4070   58.4660 O.2     0  <0>0       -0.2748
      5  C2         7.1240   35.2960   57.6140 C.3     0  <0>0        0.1202
      6  C3         6.1070   34.1920   57.4720 C.ar    0  <0>0       -0.0023
      7  C12        6.4840   32.8640   57.6580 C.ar    0  <0>0       -0.0024
      8  C11        5.4930   31.7910   57.5270 C.ar    0  <0>0       -0.0003
      9  C13        7.8150   32.5210   57.9800 C.ar    0  <0>0       -0.0003
     10  C10        4.1710   32.0910   57.2030 C.ar    0  <0>0       -0.0000
     11  C16        5.9080   30.4560   57.7280 C.ar    0  <0>0       -0.0000
     12  C9         3.7970   33.4200   57.0110 C.ar    0  <0>0       -0.0003
     13  C4         4.7860   34.4940   57.1490 C.ar    0  <0>0       -0.0024
     14  C8         2.4660   33.7610   56.6830 C.ar    0  <0>0       -0.0000
     15  C5         4.3710   35.8280   56.9480 C.ar    0  <0>0       -0.0003
     16  C6         3.0760   36.0870   56.6340 C.ar    0  <0>0       -0.0000
     17  C7         2.1340   35.0650   56.5030 C.ar    0  <0>0       -0.0000
     18  C15        7.2070   30.1950   58.0220 C.ar    0  <0>0       -0.0000
     19  C14        8.1480   31.2170   58.1540 C.ar    0  <0>0       -0.0000
     20  C18        9.2580   35.3920   60.7870 C.3     0  <0>0        0.1055
     21  C21       10.1330   34.1580   61.1010 C.3     0  <0>0        0.1029
     22  N2        11.1350   34.6250   62.0670 N.am    0  <0>0       -0.2807
     23  C20       11.2150   35.9670   62.0790 C.2     0  <0>0        0.2261
     24  C19       10.2300   36.5540   61.0920 C.3     0  <0>0        0.0961
     25  O2        11.9650   36.6120   62.7800 O.2     0  <0>0       -0.2749
     26  C22       11.9440   33.7410   62.9100 C.3     0  <0>0        0.0753
     27  C27       11.3550   32.3290   62.8810 C.3     0  <0>0        0.0198
     28  C26       12.2000   31.4060   63.7620 C.3     0  <0>0        0.0017
     29  C25       13.6350   31.3700   63.2320 C.3     0  <0>0        0.0001
     30  C24       14.2240   32.7810   63.2600 C.3     0  <0>0        0.0017
     31  C23       13.3790   33.7040   62.3800 C.3     0  <0>0        0.0198
@<TRIPOS>BOND
     1    17    16   ar
     2    17    14   ar
     3    16    15   ar
     4    14    12   ar
     5    15    13   ar
     6    12    13   ar
     7    12    10   ar
     8    13     6   ar
     9    10     8   ar
    10     6     5    1
    11     6     7   ar
    12     8     7   ar
    13     8    11   ar
    14     5     2    1
    15     7     9   ar
    16    11    18   ar
    17     9    19   ar
    18    18    19   ar
    19     4     3    2
    20     2     3   am
    21     2     1    1
    22     3    20    1
    23    20    24    1
    24    20    21    1
    25    24    23    1
    26    21    22    1
    27    22    23   am
    28    22    26    1
    29    23    25    2
    30    31    26    1
    31    31    30    1
    32    27    26    1
    33    27    28    1
    34    29    30    1
    35    29    28    1

@<TRIPOS>MOLECULE
ZINC35400227_replica-1.pdb
 31 35 0 0 0
SMALL
GASTEIGER

@<TRIPOS>ATOM
      1  C1        -1.1270   28.6720   61.6480 C.ar    0  <0>0        0.0001
      2  C2         0.0870   29.3230   61.8210 C.ar    0  <0>0        0.0013
      3  C3         0.7560   29.8580   60.7440 C.ar    0  <0>0        0.0146
      4  C4         0.2150   29.7470   59.4660 C.ar    0  <0>0        0.0498
      5  C5        -1.0130   29.0840   59.2950 C.ar    0  <0>0        0.0286
      6  C6        -1.6750   28.5500   60.4030 C.ar    0  <0>0        0.0025
      7  C7        -1.3160   29.1300   57.8580 C.2     0  <0>0        0.0838
      8  C8        -0.2610   29.8110   57.2550 C.3     0  <0>0        0.1906
      9  N1         0.6490   30.1740   58.2290 N.pl3   0  <0>0       -0.2928
     10  C16       -0.3010   29.9980   55.8530 C.2     0  <0>0        0.2512
     11  O1         0.5980   30.5870   55.2770 O.2     0  <0>0       -0.2726
     12  N2        -1.3570   29.5090   55.1690 N.am    0  <0>0       -0.2529
     13  C17       -2.3540   28.8550   55.8170 C.3     0  <0>0        0.2219
     14  N3        -2.3340   28.6740   57.1070 N.2     0  <0>0       -0.2501
     15  C9         1.8930   30.9070   57.9830 C.3     0  <0>0        0.1192
     16  C10        1.7220   32.3440   58.4050 C.ar    0  <0>0        0.0083
     17  C15        2.5250   32.8720   59.4000 C.ar    0  <0>0        0.0575
     18  C14        2.3710   34.1920   59.7840 C.ar    0  <0>0        0.0408
     19 Cl          3.7300   31.8820   60.1610 Cl      0  <0>0       -0.0824
     20  C13        1.4070   34.9800   59.1790 C.ar    0  <0>0        0.1410
     21  C12        0.6010   34.4470   58.1880 C.ar    0  <0>0        0.0294
     22  F1         1.2530   36.2690   59.5560 F       0  <0>0       -0.2041
     23  C11        0.7590   33.1300   57.8020 C.ar    0  <0>0        0.0005
     24  C18       -1.4270   29.6870   53.7160 C.3     0  <0>0        0.1220
     25  C19       -1.1800   28.3660   53.0350 C.ar    0  <0>0       -0.0021
     26  C24       -0.3740   27.4190   53.6360 C.ar    0  <0>0       -0.0003
     27  C23       -0.1500   26.2050   53.0140 C.ar    0  <0>0        0.0294
     28  C22       -0.7260   25.9430   51.7820 C.ar    0  <0>0        0.1401
     29  C21       -1.5280   26.8960   51.1770 C.ar    0  <0>0        0.0294
     30  F2        -0.5030   24.7600   51.1700 F       0  <0>0       -0.2042
     31  C20       -1.7550   28.1060   51.8040 C.ar    0  <0>0       -0.0003
@<TRIPOS>BOND
     1    30    28    1
     2    29    28   ar
     3    29    31   ar
     4    28    27   ar
     5    31    25   ar
     6    27    26   ar
     7    25    26   ar
     8    25    24    1
     9    24    12    1
    10    12    13    1
    11    12    10   am
    12    11    10    2
    13    13    14    1
    14    10     8    1
    15    14     7    2
    16     8     7    1
    17     8     9    1
    18    23    21   ar
    19    23    16   ar
    20     7     5    1
    21    15     9    1
    22    15    16    1
    23    21    20   ar
    24     9     4    1
    25    16    17   ar
    26    20    22    1
    27    20    18   ar
    28     5     4   ar
    29     5     6   ar
    30    17    18   ar
    31    17    19    1
    32     4     3   ar
    33     6     1   ar
    34     3     2   ar
    35     1     2   ar

@<TRIPOS>MOLECULE
ZINC06734306_replica-1.pdb
 31 34 0 0 0
SMALL
GASTEIGER

@<TRIPOS>ATOM
      1  C11       -0.4070   30.2900   56.7270 C.3     0  <0>0        0.0582
      2  C10       -0.7090   29.6480   55.3970 C.ar    0  <0>0        0.0005
      3  C7        -0.2770   28.3220   54.9510 C.ar    0  <0>0        0.0130
      4  C6         0.4680   27.2960   55.5360 C.ar    0  <0>0        0.0012
      5  C8        -0.7960   28.1600   53.6540 C.ar    0  <0>0        0.0523
      6  C5         0.6980   26.1430   54.8400 C.ar    0  <0>0       -0.0002
      7  C4         0.1920   25.9800   53.5580 C.ar    0  <0>0       -0.0028
      8  C3        -0.5500   26.9770   52.9640 C.ar    0  <0>0       -0.0066
      9  N1        -1.4820   29.3120   53.3430 N.ar    0  <0>0       -0.3525
     10  H1        -1.9420   29.4790   52.5050 H       0  <0>0        0.1660
     11  C9        -1.4200   30.1880   54.3940 C.ar    0  <0>0        0.0684
     12  C2        -1.0920   26.7880   51.5700 C.3     0  <0>0        0.0278
     13  C1        -1.0880   25.2990   51.2180 C.3     0  <0>0        0.0051
     14  C12       -1.0700   31.6670   56.7910 C.3     0  <0>0        0.0939
     15  C13       -0.0300   32.7100   57.1090 C.2     0  <0>0        0.2231
     16  O1         1.0550   32.6690   56.5680 O.2     0  <0>0       -0.2751
     17  N2        -0.3050   33.6890   57.9940 N.am    0  <0>0       -0.3043
     18  H14       -1.1730   33.7230   58.4260 H       0  <0>0        0.1494
     19  C14        0.7060   34.7040   58.3020 C.3     0  <0>0        0.0893
     20  C15        1.2230   34.4900   59.7250 C.3     0  <0>0        0.0196
     21  C16        0.1410   33.8090   60.5650 C.3     0  <0>0        0.0017
     22  C17        2.4710   33.6050   59.6880 C.3     0  <0>0        0.0017
     23  C18       -0.9440   29.4220   57.8350 C.ar    0  <0>0        0.0192
     24  C23       -0.4170   29.5250   59.1130 C.ar    0  <0>0        0.1727
     25  C22       -0.9150   28.7210   60.1350 C.ar    0  <0>0        0.1761
     26  O2         0.5720   30.3150   59.6220 O.3     0  <0>0       -0.4349
     27  C21       -1.9360   27.8230   59.8700 C.ar    0  <0>0        0.0402
     28  O3        -0.2350   29.0050   61.2840 O.3     0  <0>0       -0.4346
     29  C20       -2.4570   27.7260   58.5930 C.ar    0  <0>0        0.0030
     30  C19       -1.9620   28.5230   57.5780 C.ar    0  <0>0       -0.0007
     31  C24        0.9530   29.7000   60.8670 C.3     0  <0>0        0.4294
@<TRIPOS>BOND
     1    13    12    1
     2    12     8    1
     3    10     9    1
     4     8     7   ar
     5     8     5   ar
     6     9     5   ar
     7     9    11   ar
     8     7     6   ar
     9     5     3   ar
    10    11     2   ar
    11     6     4   ar
    12     3     2   ar
    13     3     4   ar
    14     2     1    1
    15    16    15    2
    16     1    14    1
    17     1    23    1
    18    14    15    1
    19    15    17   am
    20    30    23   ar
    21    30    29   ar
    22    23    24   ar
    23    17    19    1
    24    17    18    1
    25    19    20    1
    26    29    27   ar
    27    24    26    1
    28    24    25   ar
    29    26    31    1
    30    22    20    1
    31    20    21    1
    32    27    25   ar
    33    25    28    1
    34    31    28    1

@<TRIPOS>MOLECULE
ZINC04933865_replica-1.pdb
 32 36 0 0 0
SMALL
GASTEIGER

@<TRIPOS>ATOM
      1  C10        0.1840   28.9320   56.5080 C.3     0  <0>0        0.1281
      2  C11       -0.4340   29.3880   55.2150 C.ar    0  <0>0        0.0411
      3  C12       -0.8260   29.0680   53.9550 C.ar    0  <0>0        0.0733
      4  N1        -1.3490   30.2050   53.4070 N.ar    0  <0>0       -0.2759
      5  H2        -1.7100   30.2760   52.5090 H       0  <0>0        0.1889
      6  N2        -1.2910   31.1680   54.2570 N.ar    0  <0>0       -0.1683
      7  C13       -0.7480   30.7560   55.3850 C.ar    0  <0>0        0.1536
      8  C14       -0.3390   31.1480   56.7460 C.2     0  <0>0        0.2724
      9  O1        -0.4690   32.2620   57.2140 O.2     0  <0>0       -0.2678
     10  N3         0.1990   30.1010   57.3960 N.am    0  <0>0       -0.2477
     11  C7        -0.6440   27.8310   57.1170 C.ar    0  <0>0        0.0003
     12  C6        -0.0440   26.6470   57.5050 C.ar    0  <0>0       -0.0027
     13  C5        -0.8040   25.6370   58.0640 C.ar    0  <0>0       -0.0045
     14  C4        -2.1640   25.8110   58.2380 C.ar    0  <0>0       -0.0225
     15  C9        -2.7660   26.9920   57.8460 C.ar    0  <0>0       -0.0045
     16  C8        -2.0060   28.0050   57.2910 C.ar    0  <0>0       -0.0027
     17  C2        -2.9930   24.7100   58.8480 C.3     0  <0>0        0.0224
     18  C1        -2.3310   23.3590   58.5690 C.3     0  <0>0        0.0047
     19  C3        -3.0940   24.9260   60.3590 C.3     0  <0>0        0.0047
     20  C15        0.6930   30.1210   58.7030 C.ar    0  <0>0        0.0547
     21  C20        2.0560   30.2640   58.9300 C.ar    0  <0>0        0.0149
     22  C19        2.5400   30.2890   60.2240 C.ar    0  <0>0        0.0013
     23  C18        1.6710   30.1630   61.2920 C.ar    0  <0>0        0.0001
     24  C17        0.3140   30.0150   61.0690 C.ar    0  <0>0        0.0013
     25  C16       -0.1770   29.9950   59.7780 C.ar    0  <0>0        0.0149
     26  C21       -0.7090   27.7460   53.3020 C.ar    0  <0>0        0.0170
     27  C26        0.0130   26.7230   53.9140 C.ar    0  <0>0        0.0038
     28  C25        0.1140   25.4900   53.3050 C.ar    0  <0>0        0.0297
     29  C24       -0.4920   25.2710   52.0780 C.ar    0  <0>0        0.1401
     30  C23       -1.2070   26.2850   51.4610 C.ar    0  <0>0        0.0297
     31  F1        -0.3860   24.0640   51.4810 F       0  <0>0       -0.2042
     32  C22       -1.3180   27.5190   52.0660 C.ar    0  <0>0        0.0038
@<TRIPOS>BOND
     1    30    32   ar
     2    30    29   ar
     3    31    29    1
     4    32    26   ar
     5    29    28   ar
     6     5     4    1
     7    26    27   ar
     8    26     3    1
     9    28    27   ar
    10     4     3   ar
    11     4     6   ar
    12     3     2   ar
    13     6     7   ar
    14     2     7   ar
    15     2     1    1
    16     7     8    1
    17     1    11    1
    18     1    10    1
    19     8     9    2
    20     8    10   am
    21    11    16   ar
    22    11    12   ar
    23    16    15   ar
    24    10    20    1
    25    12    13   ar
    26    15    14   ar
    27    13    14   ar
    28    14    17    1
    29    18    17    1
    30    20    21   ar
    31    20    25   ar
    32    17    19    1
    33    21    22   ar
    34    25    24   ar
    35    22    23   ar
    36    24    23   ar

@<TRIPOS>MOLECULE
ZINC46651384_replica-1.pdb
 31 32 0 0 0
SMALL
GASTEIGER

@<TRIPOS>ATOM
      1  C3         0.5780   32.4790   58.5490 C.ar    0  <0>0       -0.0032
      2  C4         1.1480   31.5760   59.4270 C.ar    0  <0>0       -0.0026
      3  C5         0.9400   30.2190   59.2590 C.ar    0  <0>0        0.0010
      4  C6         0.1630   29.7620   58.2120 C.ar    0  <0>0        0.0147
      5  C7        -0.4100   30.6670   57.3280 C.ar    0  <0>0        0.0500
      6  C8        -0.2040   32.0290   57.5030 C.ar    0  <0>0        0.0120
      7  C2         0.8050   33.9570   58.7370 C.3     0  <0>0        0.0956
      8  C1         0.5810   34.3260   60.2050 C.3     0  <0>0        0.0262
      9  N2         2.1790   34.2920   58.3540 N.am    0  <0>0       -0.2866
     10  C17        2.4140   34.9770   57.2160 C.2     0  <0>0        0.3046
     11  O2         1.4860   35.3140   56.5080 O.2     0  <0>0       -0.2526
     12  N3         3.6770   35.2840   56.8640 N.am    0  <0>0       -0.2560
     13  H16        2.9200   34.0230   58.9190 H       0  <0>0        0.1512
     14  C18        4.7960   34.8770   57.7190 C.3     0  <0>0        0.1217
     15  C19        5.5300   36.1000   58.2020 C.2     0  <0>0       -0.0046
     16  C20        5.3480   36.5350   59.4240 C.2     0  <0>0       -0.0031
     17  C21        3.9330   36.0280   55.6280 C.3     0  <0>0        0.1217
     18  C22        4.0780   35.0630   54.4800 C.2     0  <0>0       -0.0046
     19  C23        5.2450   34.5280   54.2170 C.2     0  <0>0       -0.0031
     20  N1        -1.1970   30.2070   56.2660 N.am    0  <0>0       -0.2836
     21  C9        -0.6650   30.0920   55.0330 C.2     0  <0>0        0.2306
     22  O1         0.5200   30.2950   54.8630 O.2     0  <0>0       -0.2744
     23  H9        -2.1250   29.9710   56.4180 H       0  <0>0        0.1549
     24  C10       -1.5400   29.7120   53.8670 C.3     0  <0>0        0.1139
     25  C11       -1.1180   28.3630   53.3420 C.ar    0  <0>0        0.0144
     26  C16       -1.5120   27.9590   52.0780 C.ar    0  <0>0        0.1366
     27  C15       -1.1180   26.7220   51.5940 C.ar    0  <0>0        0.0293
     28  F1        -2.2740   28.7720   51.3140 F       0  <0>0       -0.2045
     29  C14       -0.3430   25.8900   52.3770 C.ar    0  <0>0        0.0023
     30  C13        0.0460   26.2930   53.6420 C.ar    0  <0>0       -0.0002
     31  C12       -0.3420   27.5290   54.1240 C.ar    0  <0>0       -0.0016
@<TRIPOS>BOND
     1    28    26    1
     2    27    26   ar
     3    27    29   ar
     4    26    25   ar
     5    29    30   ar
     6    25    24    1
     7    25    31   ar
     8    30    31   ar
     9    24    21    1
    10    19    18    2
    11    18    17    1
    12    22    21    2
    13    21    20   am
    14    17    12    1
    15    20    23    1
    16    20     5    1
    17    11    10    2
    18    12    10   am
    19    12    14    1
    20    10     9   am
    21     5     6   ar
    22     5     4   ar
    23     6     1   ar
    24    14    15    1
    25    15    16    2
    26     4     3   ar
    27     9     7    1
    28     9    13    1
    29     1     7    1
    30     1     2   ar
    31     7     8    1
    32     3     2   ar

@<TRIPOS>MOLECULE
ZINC21218695_replica-1.pdb
 36 40 0 0 0
SMALL
GASTEIGER

@<TRIPOS>ATOM
      1  C11        6.2230   36.6540   58.2660 C.3     0  <0>0        0.1186
      2  C12        7.4180   36.1630   59.0490 C.2     0  <0>0        0.0436
      3  C13        8.4310   35.4280   58.5620 C.2     0  <0>0        0.0262
      4  C14        9.5610   34.9770   59.4730 C.3     0  <0>0        0.0458
      5  C15        9.8100   36.0270   60.5530 C.3     0  <0>0        0.0356
      6  C16        8.5140   36.1890   61.3560 C.3     0  <0>0        0.0736
      7  C17        7.4090   36.5530   60.4090 C.2     0  <0>0        0.1722
      8  O2         6.4720   37.2060   60.8250 O.2     0  <0>0       -0.2916
      9  N1         8.5510   35.0230   57.2710 N.pl3   0  <0>0       -0.3150
     10  C24        7.5290   34.4480   56.5220 C.ar    0  <0>0        0.0614
     11  C25        7.6050   33.1540   56.0380 C.ar    0  <0>0        0.0158
     12  C26        6.5890   32.6700   55.2330 C.ar    0  <0>0        0.0014
     13  C27        5.4990   33.4670   54.9320 C.ar    0  <0>0        0.0013
     14  C28        5.4060   34.7500   55.4420 C.ar    0  <0>0        0.0156
     15  C29        6.4240   35.2390   56.2470 C.ar    0  <0>0        0.0586
     16  N2         6.3440   36.5010   56.8310 N.pl3   0  <0>0       -0.3262
     17  H24        9.5090   35.1440   56.7450 H       0  <0>0        0.1520
     18  H29        6.3750   37.3900   56.1840 H       0  <0>0        0.1474
     19  C8         5.0080   35.8910   58.7280 C.ar    0  <0>0       -0.0001
     20  C7         3.7430   36.3850   58.4650 C.ar    0  <0>0        0.0008
     21  C6         2.6270   35.6870   58.8860 C.ar    0  <0>0        0.0366
     22  C5         2.7770   34.4920   59.5740 C.ar    0  <0>0        0.1384
     23  C10        4.0470   34.0000   59.8370 C.ar    0  <0>0        0.0366
     24  C9         5.1580   34.6980   59.4090 C.ar    0  <0>0        0.0008
     25  O1         1.6810   33.8050   59.9890 O.3     0  <0>0       -0.4792
     26  C3         1.8720   32.8430   61.0290 C.3     0  <0>0        0.1660
     27  C4         1.7750   31.4330   60.4420 C.3     0  <0>0        0.0472
     28  C2         0.7940   33.0260   62.0980 C.3     0  <0>0        0.0435
     29  C1        -0.2430   34.0380   61.6090 C.3     0  <0>0        0.0038
     30  C18       10.9210   35.5700   61.4640 C.ar    0  <0>0       -0.0216
     31  C23       11.3240   36.3720   62.5160 C.ar    0  <0>0       -0.0034
     32  C22       12.3430   35.9530   63.3520 C.ar    0  <0>0        0.0111
     33  C21       12.9590   34.7330   63.1350 C.ar    0  <0>0        0.0577
     34  C20       12.5540   33.9330   62.0820 C.ar    0  <0>0        0.0111
     35 Cl         14.2380   34.2080   64.1840 Cl      0  <0>0       -0.0822
     36  C19       11.5320   34.3490   61.2510 C.ar    0  <0>0       -0.0034
@<TRIPOS>BOND
     1    13    12   ar
     2    13    14   ar
     3    12    11   ar
     4    14    15   ar
     5    11    10   ar
     6    18    16    1
     7    15    10   ar
     8    15    16    1
     9    10     9    1
    10    17     9    1
    11    16     1    1
    12     9     3    1
    13     1    19    1
    14     1     2    1
    15    20    19   ar
    16    20    21   ar
    17     3     2    2
    18     3     4    1
    19    19    24   ar
    20    21    22   ar
    21     2     7    1
    22    24    23   ar
    23     4     5    1
    24    22    23   ar
    25    22    25    1
    26    25    26    1
    27     7     8    2
    28     7     6    1
    29    27    26    1
    30     5     6    1
    31     5    30    1
    32    26    28    1
    33    36    30   ar
    34    36    34   ar
    35    30    31   ar
    36    29    28    1
    37    34    33   ar
    38    31    32   ar
    39    33    32   ar
    40    33    35    1

@<TRIPOS>MOLECULE
ZINC11886586_replica-1.pdb
 25 26 0 0 0
SMALL
GASTEIGER

@<TRIPOS>ATOM
      1  O2         1.0170   32.2240   57.1440 O.3     0  <0>0       -0.4683
      2  C10       -0.1650   31.8530   56.4320 C.3     0  <0>0        0.2526
      3  C9         0.2010   30.8870   55.3040 C.3     0  <0>0        0.2525
      4  O1        -0.9900   30.3160   54.7600 O.3     0  <0>0       -0.4714
      5  C4        -0.8600   29.1420   54.0870 C.ar    0  <0>0        0.1382
      6  C3        -1.4440   28.9910   52.8380 C.ar    0  <0>0        0.0335
      7  C2        -1.3060   27.7990   52.1530 C.ar    0  <0>0       -0.0086
      8  C1        -1.9340   27.6350   50.7920 C.3     0  <0>0        0.0320
      9  C7        -0.5930   26.7550   52.7150 C.ar    0  <0>0        0.0499
     10  C6        -0.0150   26.9030   53.9640 C.ar    0  <0>0       -0.0086
     11 Cl         -0.4210   25.2580   51.8520 Cl      0  <0>0       -0.0829
     12  C5        -0.1510   28.0930   54.6520 C.ar    0  <0>0        0.0335
     13  C8         0.7610   25.7640   54.5730 C.3     0  <0>0        0.0320
     14  C11        0.8580   32.6400   58.4280 C.ar    0  <0>0        0.1739
     15  C16        0.8080   31.7120   59.4620 C.ar    0  <0>0        0.1724
     16  C15        0.6460   32.1410   60.7700 C.ar    0  <0>0        0.0400
     17  C14        0.5340   33.4920   61.0540 C.ar    0  <0>0        0.0034
     18  C13        0.5810   34.4230   60.0390 C.ar    0  <0>0        0.0049
     19  C12        0.7500   34.0060   58.7160 C.ar    0  <0>0        0.0594
     20  O3         0.9180   30.3850   59.1900 O.3     0  <0>0       -0.4684
     21  C17       -0.2640   29.5930   59.3310 C.3     0  <0>0        0.2526
     22  C18        0.8090   35.0010   57.6280 C.2     0  <0>0        0.1429
     23  N1         1.9450   35.5100   57.2780 N.2     0  <0>0       -0.0846
     24  O4         3.1080   35.2350   58.0370 O.2     0  <0>0       -0.4087
     25  H20        4.0190   34.8720   57.5370 H       0  <0>0        0.3278
@<TRIPOS>BOND
     1     8     7    1
     2    11     9    1
     3     7     9   ar
     4     7     6   ar
     5     9    10   ar
     6     6     5   ar
     7    10    13    1
     8    10    12   ar
     9     5    12   ar
    10     5     4    1
    11     4     3    1
    12     3     2    1
    13     2     1    1
    14     1    14    1
    15    23    22    2
    16    23    24    1
    17    25    24    1
    18    22    19    1
    19    14    19   ar
    20    14    15   ar
    21    19    18   ar
    22    20    21    1
    23    20    15    1
    24    15    16   ar
    25    18    17   ar
    26    16    17   ar

@<TRIPOS>MOLECULE
ZINC02150695_replica-1.pdb
 36 41 0 0 0
SMALL
GASTEIGER

@<TRIPOS>ATOM
      1  C8        -0.4850   30.6230   57.6990 C.2     0  <0>0       -0.0074
      2  C9         0.3050   31.7820   57.9840 C.3     0  <0>0        0.1168
      3  C10        0.6640   32.8240   57.1090 C.2     0  <0>0        0.0389
      4  C11        1.4420   33.8660   57.5820 C.2     0  <0>0        0.0799
      5  S1         1.7050   33.4220   59.2890 S.3     0  <0>0       -0.0550
      6  C12        0.7880   31.8980   59.3100 C.2     0  <0>0        0.1476
      7  N1         0.5390   31.0070   60.2420 N.2     0  <0>0       -0.3958
      8  C13       -0.1880   29.9280   60.0020 C.2     0  <0>0        0.1700
      9  C14       -0.7230   29.7030   58.7210 C.2     0  <0>0        0.0297
     10  C15       -1.4860   28.4300   58.7420 C.ar    0  <0>0        0.0054
     11  C16       -2.1980   27.7610   57.7550 C.ar    0  <0>0        0.0002
     12  C17       -2.8250   26.5620   58.0460 C.ar    0  <0>0        0.0000
     13  C18       -2.7600   26.0270   59.3190 C.ar    0  <0>0        0.0001
     14  C19       -2.0560   26.6790   60.3150 C.ar    0  <0>0        0.0033
     15  C20       -1.4150   27.8830   60.0360 C.ar    0  <0>0        0.0416
     16  C21       -0.6040   28.7960   60.8710 C.2     0  <0>0        0.2248
     17  O2        -0.3280   28.6480   62.0440 O.2     0  <0>0       -0.2838
     18  C5        -1.0370   30.4040   56.3460 C.ar    0  <0>0       -0.0029
     19  C4        -0.2830   29.7310   55.3820 C.ar    0  <0>0        0.0028
     20  C3        -0.8020   29.5290   54.1210 C.ar    0  <0>0        0.0369
     21  C2        -2.0730   29.9940   53.8090 C.ar    0  <0>0        0.1387
     22  C7        -2.8250   30.6660   54.7640 C.ar    0  <0>0        0.0369
     23  C6        -2.3160   30.8660   56.0290 C.ar    0  <0>0        0.0028
     24  O1        -2.5810   29.7940   52.5650 O.3     0  <0>0       -0.4714
     25  C1        -2.1000   28.6600   51.8420 C.3     0  <0>0        0.2525
     26  N2         0.2430   32.8050   55.7880 N.pl3   0  <0>0       -0.3592
     27  H17        0.0440   33.6370   55.3300 H       0  <0>0        0.1421
     28  H18        0.1450   31.9610   55.3210 H       0  <0>0        0.1421
     29  C22        1.9140   35.0050   56.8830 C.2     0  <0>0        0.2024
     30  O3         1.1970   35.9810   56.7550 O.2     0  <0>0       -0.2860
     31  C23        3.2780   35.0090   56.3110 C.ar    0  <0>0        0.0395
     32  C28        3.5970   34.1580   55.2510 C.ar    0  <0>0        0.0032
     33  C27        4.8720   34.1670   54.7230 C.ar    0  <0>0        0.0001
     34  C26        5.8320   35.0180   55.2400 C.ar    0  <0>0        0.0000
     35  C25        5.5230   35.8650   56.2900 C.ar    0  <0>0        0.0001
     36  C24        4.2500   35.8700   56.8240 C.ar    0  <0>0        0.0032
@<TRIPOS>BOND
     1    25    24    1
     2    24    21    1
     3    21    20   ar
     4    21    22   ar
     5    20    19   ar
     6    33    34   ar
     7    33    32   ar
     8    22    23   ar
     9    34    35   ar
    10    32    31   ar
    11    28    26    1
    12    27    26    1
    13    19    18   ar
    14    26     3    1
    15    23    18   ar
    16    35    36   ar
    17    31    36   ar
    18    31    29    1
    19    18     1    1
    20    30    29    2
    21    29     4    1
    22     3     4    2
    23     3     2    1
    24     4     5    1
    25     1     2    1
    26     1     9    2
    27    11    12   ar
    28    11    10   ar
    29     2     6    1
    30    12    13   ar
    31     9    10    1
    32     9     8    1
    33    10    15   ar
    34     5     6    1
    35     6     7    2
    36    13    14   ar
    37     8     7    2
    38     8    16    1
    39    15    14   ar
    40    15    16    1
    41    16    17    2

@<TRIPOS>MOLECULE
ZINC48287569_replica-1.pdb
 32 36 0 0 0
SMALL
GASTEIGER

@<TRIPOS>ATOM
      1  C1         7.4940   34.2120   60.3420 C.3     0  <0>0        0.1158
      2  N1         7.9820   34.4830   58.9860 N.am    0  <0>0       -0.2672
      3  C14        7.4360   33.8430   57.9340 C.2     0  <0>0        0.2463
      4  O1         7.9020   33.9940   56.8220 O.2     0  <0>0       -0.2702
      5  C15        6.2690   32.9550   58.1320 C.2     0  <0>0        0.0443
      6  C19        6.4310   31.5080   58.2860 C.3     0  <0>0        0.1009
      7  C18        5.2760   30.7110   58.4800 C.2     0  <0>0        0.1169
      8  C20        7.6940   30.9080   58.2530 C.2     0  <0>0       -0.0149
      9  N3         4.0690   31.2790   58.5070 N.2     0  <0>0       -0.4051
     10  C23        5.4270   29.3200   58.6360 C.2     0  <0>0        0.0282
     11  C17        3.9000   32.5790   58.3630 C.2     0  <0>0        0.1368
     12  C16        4.9790   33.4600   58.1730 C.2     0  <0>0        0.0335
     13  C22        6.6680   28.7660   58.5860 C.2     0  <0>0        0.0020
     14  C21        7.8020   29.5560   58.4020 C.2     0  <0>0       -0.0038
     15  C24        2.5310   33.1280   58.4060 C.ar    0  <0>0        0.0590
     16  S1         1.2150   32.9630   57.2100 S.2     0  <0>0       -0.0839
     17  C27       -0.0270   33.9160   58.0690 C.ar    0  <0>0        0.0355
     18  C26        0.6350   34.3000   59.1920 C.ar    0  <0>0        0.0076
     19  C25        1.9390   33.9010   59.3720 C.ar    0  <0>0        0.0096
     20  C2         9.0640   35.4480   58.7760 C.3     0  <0>0        0.1384
     21  C3         9.9590   35.4710   59.9880 C.ar    0  <0>0        0.0014
     22  C8        10.7500   34.3770   60.2840 C.ar    0  <0>0       -0.0023
     23  C7        11.5750   34.4000   61.3920 C.ar    0  <0>0       -0.0003
     24  C6        11.6030   35.5140   62.2100 C.ar    0  <0>0       -0.0000
     25  C5        10.8080   36.6060   61.9170 C.ar    0  <0>0       -0.0003
     26  C4         9.9850   36.5850   60.8060 C.ar    0  <0>0       -0.0023
     27  C9         8.4780   36.8190   58.5580 C.ar    0  <0>0        0.0813
     28  N2         7.6520   37.3250   59.4530 N.ar    0  <0>0       -0.2462
     29  C13        7.1190   38.5230   59.3070 C.ar    0  <0>0        0.0985
     30  C12        7.4030   39.2920   58.1950 C.ar    0  <0>0        0.0207
     31  C11        8.2630   38.7920   57.2290 C.ar    0  <0>0        0.0029
     32  C10        8.8080   37.5310   57.4200 C.ar    0  <0>0        0.0167
@<TRIPOS>BOND
     1     4     3    2
     2    16    17   ar
     3    16    15   ar
     4    31    32   ar
     5    31    30   ar
     6    32    27   ar
     7     3     5    1
     8     3     2   am
     9    17    18   ar
    10     5    12    2
    11     5     6    1
    12    12    11    1
    13    30    29   ar
    14     8     6    1
    15     8    14    2
    16     6     7    1
    17    11    15    1
    18    11     9    2
    19    14    13    1
    20    15    19   ar
    21     7     9    2
    22     7    10    1
    23    27    20    1
    24    27    28   ar
    25    13    10    2
    26    20     2    1
    27    20    21    1
    28     2     1    1
    29    18    19   ar
    30    29    28   ar
    31    21    22   ar
    32    21    26   ar
    33    22    23   ar
    34    26    25   ar
    35    23    24   ar
    36    25    24   ar

@<TRIPOS>MOLECULE
ZINC09241795_replica-1.pdb
 28 31 0 0 0
SMALL
GASTEIGER

@<TRIPOS>ATOM
      1  C7         7.3560   34.4370   60.1170 C.2     0  <0>0        0.2595
      2  O1         6.4670   34.1240   60.8870 O.2     0  <0>0       -0.2693
      3  N1         7.1630   34.3350   58.7870 N.am    0  <0>0       -0.2208
      4  C8         8.2680   34.6040   57.8640 C.3     0  <0>0        0.1295
      5  C9         7.9510   35.8290   57.0450 C.ar    0  <0>0        0.0173
      6  C13        7.5990   35.7080   55.7140 C.ar    0  <0>0        0.0962
      7  N2         7.3210   36.7740   54.9900 N.ar    0  <0>0       -0.2426
      8  C12        7.3660   37.9900   55.5000 C.ar    0  <0>0        0.0989
      9  C11        7.7030   38.1880   56.8250 C.ar    0  <0>0        0.0204
     10  C10        8.0090   37.0910   57.6160 C.ar    0  <0>0        0.0005
     11  C14        5.9190   33.9780   58.2940 C.2     0  <0>0        0.2209
     12  S1         5.3590   32.3830   57.7160 S.3     0  <0>0       -0.0374
     13  C20        3.7020   32.8650   57.2980 C.2     0  <0>0        0.0599
     14  C15        3.6960   34.2400   57.6280 C.2     0  <0>0        0.1391
     15  C19        2.6030   32.2240   56.7820 C.2     0  <0>0        0.0033
     16  N3         4.8540   34.7270   58.1260 N.2     0  <0>0       -0.3797
     17  C16        2.4860   34.9330   57.3980 C.2     0  <0>0        0.0296
     18  C17        1.3930   34.2850   56.8840 C.2     0  <0>0       -0.0032
     19  C18        1.4350   32.9320   56.5710 C.3     0  <0>0        0.1244
     20 Cl          0.0340   32.1400   55.9190 Cl      0  <0>0       -0.1053
     21  C4         8.6460   34.9250   60.6400 C.ar    0  <0>0        0.1087
     22  C3         8.7910   36.2650   61.0140 C.ar    0  <0>0        0.1467
     23  C2        10.0030   36.7140   61.5020 C.ar    0  <0>0        0.0299
     24  F2         7.7490   37.1180   60.8970 F       0  <0>0       -0.2039
     25  C1        11.0710   35.8440   61.6220 C.ar    0  <0>0        0.0046
     26  C6        10.9360   34.5170   61.2560 C.ar    0  <0>0        0.0299
     27  C5         9.7300   34.0490   60.7690 C.ar    0  <0>0        0.1467
     28  F1         9.5980   32.7520   60.4170 F       0  <0>0       -0.2039
@<TRIPOS>BOND
     1     7     8   ar
     2     7     6   ar
     3     8     9   ar
     4     6     5   ar
     5    20    19    1
     6    19    15    1
     7    19    18    1
     8    15    13    2
     9     9    10   ar
    10    18    17    2
    11     5    10   ar
    12     5     4    1
    13    13    14    1
    14    13    12    1
    15    17    14    1
    16    14    16    2
    17    12    11    1
    18     4     3    1
    19    16    11    2
    20    11     3    1
    21     3     1   am
    22     1    21    1
    23     1     2    2
    24    28    27    1
    25    21    27   ar
    26    21    22   ar
    27    27    26   ar
    28    24    22    1
    29    22    23   ar
    30    26    25   ar
    31    23    25   ar

@<TRIPOS>MOLECULE
ZINC36096228_replica-1.pdb
 29 30 0 0 0
SMALL
GASTEIGER

@<TRIPOS>ATOM
      1  N1         0.1430   30.6500   58.0240 N.4     0  <0>0        0.3914
      2  H31       -0.5810   31.3450   58.1220 H       0  <0>0       -0.0791
      3  C5        -0.3820   29.3370   58.4220 C.3     0  <0>0       -0.0768
      4  C4        -1.7030   29.0760   57.6980 C.3     0  <0>0       -0.0228
      5  C2        -1.8360   27.5800   57.4020 C.3     0  <0>0       -0.0021
      6  C1        -0.4700   26.9080   57.5520 C.3     0  <0>0       -0.0001
      7  C3        -2.8250   26.9510   58.3850 C.3     0  <0>0       -0.0001
      8  C6         1.2830   31.0030   58.8810 C.3     0  <0>0       -0.0467
      9  C7         0.8170   31.9180   59.9840 C.ar    0  <0>0       -0.0092
     10  C12        0.5380   33.2490   59.7100 C.ar    0  <0>0        0.1327
     11  C11        0.1040   34.0880   60.7260 C.ar    0  <0>0        0.0365
     12  C10       -0.0380   33.5990   62.0100 C.ar    0  <0>0        0.0031
     13  C9         0.2470   32.2730   62.2830 C.ar    0  <0>0       -0.0002
     14  C8         0.6750   31.4340   61.2700 C.ar    0  <0>0       -0.0034
     15  O1         0.6830   33.7300   58.4470 O.3     0  <0>0       -0.4718
     16  C13        0.8430   35.1420   58.3050 C.3     0  <0>0        0.2524
     17  C14        0.5830   30.5970   56.6230 C.3     0  <0>0       -0.0431
     18  C15       -0.4070   31.3680   55.7470 C.3     0  <0>0        0.1335
     19  C16       -0.3240   30.8540   54.3090 C.3     0  <0>0        0.2321
     20  O2        -1.4580   30.0290   54.0320 O.3     0  <0>0       -0.4729
     21  C17       -1.2240   28.8530   53.3930 C.ar    0  <0>0        0.1387
     22  C22       -0.4560   27.8720   54.0060 C.ar    0  <0>0        0.0378
     23  C21       -0.2230   26.6750   53.3590 C.ar    0  <0>0        0.0145
     24  C20       -0.7450   26.4560   52.0960 C.ar    0  <0>0        0.0579
     25  C19       -1.5060   27.4350   51.4810 C.ar    0  <0>0        0.0145
     26 Cl         -0.4440   24.9530   51.2820 Cl      0  <0>0       -0.0822
     27  C18       -1.7460   28.6320   52.1280 C.ar    0  <0>0        0.0378
     28  O3        -0.0840   32.7590   55.7760 O.3     0  <0>0       -0.3828
     29  H30       -0.7480   33.3090   56.2140 H       0  <0>0        0.2104
@<TRIPOS>BOND
     1    26    24    1
     2    25    24   ar
     3    25    27   ar
     4    24    23   ar
     5    27    21   ar
     6    23    22   ar
     7    21    22   ar
     8    21    20    1
     9    20    19    1
    10    19    18    1
    11    18    28    1
    12    18    17    1
    13    28    29    1
    14    17     1    1
    15     5     6    1
    16     5     4    1
    17     5     7    1
    18     4     3    1
    19     1     2    1
    20     1     3    1
    21     1     8    1
    22    16    15    1
    23    15    10    1
    24     8     9    1
    25    10     9   ar
    26    10    11   ar
    27     9    14   ar
    28    11    12   ar
    29    14    13   ar
    30    12    13   ar

@<TRIPOS>MOLECULE
ZINC23446562_replica-1.pdb
 29 32 0 0 0
SMALL
GASTEIGER

@<TRIPOS>ATOM
      1  N2         8.6980   33.9570   59.0440 N.am    0  <0>0       -0.2625
      2  C17        8.0450   32.9390   58.4480 C.2     0  <0>0        0.2497
      3  O2         8.1920   32.7380   57.2590 O.2     0  <0>0       -0.2699
      4  C9         8.5630   34.1690   60.4880 C.3     0  <0>0        0.1942
      5  C8         9.8530   33.8010   61.1730 C.2     0  <0>0        0.2780
      6  N1        10.8800   34.5870   61.2950 N.2     0  <0>0       -0.3666
      7  C6        11.8620   33.9270   61.9660 C.2     0  <0>0        0.1681
      8  C5        11.3580   32.6500   62.2550 C.2     0  <0>0        0.1734
      9  C7        13.1530   34.2690   62.3730 C.2     0  <0>0        0.0272
     10  C4        12.1440   31.7380   62.9420 C.2     0  <0>0        0.0184
     11  O1        10.1070   32.6130   61.7440 O.2     0  <0>0       -0.4270
     12  C3        13.4180   32.0890   63.3390 C.3     0  <0>0        0.0513
     13  C2        13.9190   33.3510   63.0550 C.2     0  <0>0       -0.0368
     14  C1        15.3120   33.7180   63.4950 C.3     0  <0>0        0.0268
     15  C10        9.5430   34.8510   58.2480 C.3     0  <0>0        0.1218
     16  C11        8.9510   36.2350   58.2490 C.ar    0  <0>0        0.0083
     17  C16        8.2640   36.6950   57.1410 C.ar    0  <0>0        0.0553
     18  C15        7.7200   37.9670   57.1420 C.ar    0  <0>0        0.0111
     19 Cl          8.0850   35.6750   55.7470 Cl      0  <0>0       -0.0825
     20  C14        7.8620   38.7780   58.2520 C.ar    0  <0>0        0.0008
     21  C13        8.5490   38.3180   59.3610 C.ar    0  <0>0       -0.0002
     22  C12        9.0890   37.0470   59.3610 C.ar    0  <0>0       -0.0018
     23  C18        7.1520   32.0690   59.2420 C.ar    0  <0>0        0.0558
     24  C23        7.6610   30.9340   59.8760 C.ar    0  <0>0        0.0341
     25  C22        6.8200   30.1250   60.6170 C.ar    0  <0>0        0.1403
     26  C21        5.4760   30.4400   60.7300 C.ar    0  <0>0        0.0296
     27  F1         7.3110   29.0270   61.2310 F       0  <0>0       -0.2042
     28  C20        4.9670   31.5630   60.1030 C.ar    0  <0>0        0.0025
     29  C19        5.7970   32.3810   59.3660 C.ar    0  <0>0        0.0047
@<TRIPOS>BOND
     1    19    17    1
     2    17    18   ar
     3    17    16   ar
     4    18    20   ar
     5     3     2    2
     6    15    16    1
     7    15     1    1
     8    16    22   ar
     9    20    21   ar
    10     2     1   am
    11     2    23    1
    12     1     4    1
    13    23    29   ar
    14    23    24   ar
    15    22    21   ar
    16    29    28   ar
    17    24    25   ar
    18    28    26   ar
    19     4     5    1
    20    25    26   ar
    21    25    27    1
    22     5     6    2
    23     5    11    1
    24     6     7    2
    25    11     8    1
    26     7     8    1
    27     7     9    1
    28     8    10    2
    29     9    13    2
    30    10    12    1
    31    13    12    1
    32    13    14    1

@<TRIPOS>MOLECULE
ZINC04866886_replica-1.pdb
 28 31 0 0 0
SMALL
GASTEIGER

@<TRIPOS>ATOM
      1  N1        -0.4180   29.5990   57.8760 N.am    0  <0>0       -0.2120
      2  C8        -0.4220   30.0680   56.5860 C.2     0  <0>0        0.1924
      3  N2        -0.0890   31.3000   56.2730 N.2     0  <0>0       -0.3898
      4  C9         0.2820   32.1910   57.2120 C.2     0  <0>0        0.1231
      5  C10        0.6360   33.5020   56.8740 C.2     0  <0>0        0.0284
      6  C11        1.0070   34.3780   57.8550 C.2     0  <0>0        0.0020
      7  C12        1.0400   33.9880   59.1880 C.2     0  <0>0       -0.0036
      8  C13        0.6970   32.7040   59.5510 C.2     0  <0>0       -0.0103
      9  C14        0.3150   31.7920   58.5690 C.3     0  <0>0        0.1514
     10  C15       -0.0660   30.4120   58.8990 C.2     0  <0>0        0.2453
     11  O1        -0.0610   30.0150   60.0490 O.2     0  <0>0       -0.2733
     12  C16       -0.8150   29.1560   55.5110 C.2     0  <0>0        0.0484
     13  C17        0.1290   28.5550   54.7580 C.2     0  <0>0        0.0040
     14  C18       -0.2660   27.6380   53.6780 C.ar    0  <0>0        0.0003
     15  C23        0.1360   26.2980   53.7140 C.ar    0  <0>0        0.0031
     16  C22       -0.2420   25.4410   52.7030 C.ar    0  <0>0        0.0366
     17  C21       -1.0100   25.9090   51.6430 C.ar    0  <0>0        0.1337
     18  C20       -1.4070   27.2410   51.6010 C.ar    0  <0>0        0.0366
     19  C19       -1.0400   28.1030   52.6090 C.ar    0  <0>0        0.0031
     20  O2        -1.3750   25.0620   50.6470 O.3     0  <0>0       -0.5055
     21  H18       -2.2930   25.1620   50.3620 H       0  <0>0        0.2922
     22  C7        -0.7870   28.2730   58.1370 C.ar    0  <0>0        0.0564
     23  C2         0.1880   27.2890   58.2420 C.ar    0  <0>0       -0.0078
     24  C1         1.6430   27.6460   58.0780 C.3     0  <0>0        0.0323
     25  C3        -0.1780   25.9820   58.5050 C.ar    0  <0>0       -0.0030
     26  C4        -1.5120   25.6540   58.6560 C.ar    0  <0>0       -0.0002
     27  C5        -2.4850   26.6310   58.5450 C.ar    0  <0>0        0.0013
     28  C6        -2.1260   27.9380   58.2840 C.ar    0  <0>0        0.0150
@<TRIPOS>BOND
     1    21    20    1
     2    20    17    1
     3    18    17   ar
     4    18    19   ar
     5    17    16   ar
     6    19    14   ar
     7    16    15   ar
     8    14    15   ar
     9    14    13    1
    10    13    12    2
    11    12     2    1
    12     3     2    2
    13     3     4    2
    14     2     1    1
    15     5     4    1
    16     5     6    2
    17     4     9    1
    18     6     7    1
    19     1    22    1
    20     1    10   am
    21    24    23    1
    22    22    23   ar
    23    22    28   ar
    24    23    25   ar
    25    28    27   ar
    26    25    26   ar
    27    27    26   ar
    28     9    10    1
    29     9     8    1
    30    10    11    2
    31     7     8    2

@<TRIPOS>MOLECULE
CHEMBL425259_replica-1.pdb
 24 26 0 0 0
SMALL
GASTEIGER

@<TRIPOS>ATOM
      1  C9         9.9400   36.8970   60.9250 C.3     0  <0>0        0.1056
      2  C10        8.5480   36.9280   61.5970 C.3     0  <0>0        0.0961
      3  C11        7.5770   36.9770   60.4370 C.2     0  <0>0        0.2261
      4  O2         6.4090   37.2900   60.5220 O.2     0  <0>0       -0.2749
      5  N2         8.1990   36.6250   59.2980 N.am    0  <0>0       -0.2807
      6  C12        9.6090   36.2960   59.5410 C.3     0  <0>0        0.1029
      7  C8        10.8860   36.0070   61.6880 C.2     0  <0>0        0.2278
      8  N1        11.2210   34.7980   61.1940 N.am    0  <0>0       -0.2841
      9  H7        10.9050   34.5280   60.3170 H       0  <0>0        0.1548
     10  O1        11.3460   36.3780   62.7470 O.2     0  <0>0       -0.2747
     11  C7        12.0230   33.9330   61.9460 C.ar    0  <0>0        0.0471
     12  C2        11.5130   32.7190   62.3890 C.ar    0  <0>0       -0.0083
     13  C1        10.0940   32.3330   62.0600 C.3     0  <0>0        0.0323
     14  C3        12.3090   31.8640   63.1250 C.ar    0  <0>0       -0.0022
     15  C4        13.6110   32.2170   63.4280 C.ar    0  <0>0        0.0112
     16  C5        14.1210   33.4280   62.9930 C.ar    0  <0>0        0.0589
     17  C6        13.3290   34.2880   62.2560 C.ar    0  <0>0        0.0257
     18 Cl         15.7570   33.8680   63.3760 Cl      0  <0>0       -0.0822
     19  C13        7.5520   36.5740   57.9850 C.3     0  <0>0        0.0753
     20  C18        7.9460   37.8100   57.1740 C.3     0  <0>0        0.0198
     21  C17        7.2690   37.7560   55.8030 C.3     0  <0>0        0.0017
     22  C16        7.7190   36.4960   55.0620 C.3     0  <0>0        0.0001
     23  C15        7.3250   35.2600   55.8730 C.3     0  <0>0        0.0017
     24  C14        8.0010   35.3130   57.2440 C.3     0  <0>0        0.0198
@<TRIPOS>BOND
     1    22    21    1
     2    22    23    1
     3    21    20    1
     4    23    24    1
     5    20    19    1
     6    24    19    1
     7    19     5    1
     8     5     6    1
     9     5     3   am
    10     6     1    1
    11     9     8    1
    12     3     4    2
    13     3     2    1
    14     1     2    1
    15     1     7    1
    16     8     7   am
    17     8    11    1
    18     7    10    2
    19    11    17   ar
    20    11    12   ar
    21    13    12    1
    22    17    16   ar
    23    12    14   ar
    24    16    18    1
    25    16    15   ar
    26    14    15   ar

@<TRIPOS>MOLECULE
ZINC04808936_replica-1.pdb
 30 32 0 0 0
SMALL
GASTEIGER

@<TRIPOS>ATOM
      1  C7         9.5560   35.7900   59.9530 C.3     0  <0>0        0.0204
      2  C4         8.7470   34.5200   59.6790 C.3     0  <0>0        0.0088
      3  C3         8.7840   34.1990   58.1820 C.3     0  <0>0        0.0276
      4  C2         7.9100   32.9730   57.9080 C.3     0  <0>0        0.0929
      5  C1         8.4770   31.7650   58.6560 C.3     0  <0>0        0.0296
      6  O1         6.5780   33.2290   58.3580 O.3     0  <0>0       -0.3585
      7  C24        7.8940   32.6830   56.4060 C.3     0  <0>0        0.0296
      8  C6         6.4750   33.4890   59.7600 C.3     0  <0>0        0.1420
      9  C5         7.2920   34.7360   60.1080 C.3     0  <0>0        0.0325
     10  C8         8.6140   36.9080   60.4010 C.3     0  <0>0       -0.0190
     11  C9         9.0120   38.2160   59.7140 C.3     0  <0>0       -0.0809
     12  N1         7.9550   38.6020   58.7600 N.4     0  <0>0        0.3865
     13  H32        7.7250   39.5940   58.8940 H       0  <0>0       -0.0840
     14  H33        7.1190   38.0320   58.9330 H       0  <0>0       -0.0840
     15  C10        8.4110   38.3900   57.3750 C.3     0  <0>0       -0.0543
     16  C11        7.5200   37.3710   56.7110 C.ar    0  <0>0       -0.0435
     17  C16        6.3760   36.9340   57.3530 C.ar    0  <0>0       -0.0032
     18  C15        5.5580   36.0000   56.7460 C.ar    0  <0>0        0.0365
     19  C14        5.8850   35.5010   55.4940 C.ar    0  <0>0        0.1387
     20  C13        7.0340   35.9420   54.8530 C.ar    0  <0>0        0.0365
     21  C12        7.8460   36.8800   55.4610 C.ar    0  <0>0       -0.0032
     22  O2         5.0820   34.5820   54.8970 O.3     0  <0>0       -0.4714
     23  C17        4.1990   33.8440   55.7440 C.3     0  <0>0        0.2525
     24  C18       10.5660   35.5170   61.0380 C.ar    0  <0>0       -0.0224
     25  C23       10.8740   36.5030   61.9580 C.ar    0  <0>0       -0.0020
     26  C22       11.8010   36.2540   62.9530 C.ar    0  <0>0        0.0293
     27  C21       12.4180   35.0170   63.0300 C.ar    0  <0>0        0.1401
     28  C20       12.1080   34.0310   62.1080 C.ar    0  <0>0        0.0293
     29  F1        13.3240   34.7720   64.0020 F       0  <0>0       -0.2042
     30  C19       11.1780   34.2810   61.1160 C.ar    0  <0>0       -0.0020
@<TRIPOS>BOND
     1    20    21   ar
     2    20    19   ar
     3    22    19    1
     4    22    23    1
     5    21    16   ar
     6    19    18   ar
     7     7     4    1
     8    16    17   ar
     9    16    15    1
    10    18    17   ar
    11    15    12    1
    12     4     3    1
    13     4     6    1
    14     4     5    1
    15     3     2    1
    16     6     8    1
    17    12    13    1
    18    12    14    1
    19    12    11    1
    20     2     1    1
    21     2     9    1
    22    11    10    1
    23     8     9    1
    24     1    10    1
    25     1    24    1
    26    24    30   ar
    27    24    25   ar
    28    30    28   ar
    29    25    26   ar
    30    28    27   ar
    31    26    27   ar
    32    27    29    1

@<TRIPOS>MOLECULE
ZINC21237687_replica-1.pdb
 35 39 0 0 0
SMALL
GASTEIGER

@<TRIPOS>ATOM
      1  C9         6.3910   30.1500   58.5440 C.3     0  <0>0        0.0356
      2  C10        5.2020   31.0840   58.7650 C.3     0  <0>0        0.0458
      3  C11        5.0930   32.0630   57.6050 C.2     0  <0>0        0.0262
      4  C12        6.2000   32.5060   56.9890 C.2     0  <0>0        0.0436
      5  C13        6.2450   33.5080   55.8590 C.3     0  <0>0        0.1186
      6  N1         4.9540   33.7980   55.2700 N.pl3   0  <0>0       -0.3262
      7  C14        3.9490   34.4150   56.0110 C.ar    0  <0>0        0.0586
      8  C15        3.5000   35.6890   55.6960 C.ar    0  <0>0        0.0156
      9  C16        2.5330   36.2840   56.4860 C.ar    0  <0>0        0.0013
     10  C17        2.0170   35.6200   57.5840 C.ar    0  <0>0        0.0014
     11  C18        2.4500   34.3400   57.8900 C.ar    0  <0>0        0.0158
     12  C19        3.4000   33.7350   57.0880 C.ar    0  <0>0        0.0614
     13  N2         3.8230   32.4250   57.2920 N.pl3   0  <0>0       -0.3150
     14  C26        7.4740   32.0320   57.3810 C.2     0  <0>0        0.1722
     15  O2         8.4600   32.4670   56.8170 O.2     0  <0>0       -0.2916
     16  C27        7.6560   31.0150   58.4670 C.3     0  <0>0        0.0736
     17  H14        4.7550   33.5300   54.2220 H       0  <0>0        0.1474
     18  H19        3.0430   31.6580   57.1820 H       0  <0>0        0.1520
     19  C6         6.5020   29.1840   59.6950 C.ar    0  <0>0       -0.0215
     20  C5         6.9910   29.6170   60.9140 C.ar    0  <0>0       -0.0011
     21  C4         7.0930   28.7340   61.9720 C.ar    0  <0>0        0.0366
     22  C3         6.7040   27.4120   61.8100 C.ar    0  <0>0        0.1385
     23  C8         6.2130   26.9810   60.5860 C.ar    0  <0>0        0.0366
     24  C7         6.1080   27.8690   59.5340 C.ar    0  <0>0       -0.0011
     25  O1         6.8040   26.5420   62.8490 O.3     0  <0>0       -0.4755
     26  C2         5.6400   26.3620   63.6580 C.3     0  <0>0        0.2055
     27  C1         5.8700   26.9970   65.0310 C.3     0  <0>0        0.0512
     28  C20        6.8320   34.7940   56.3810 C.ar    0  <0>0        0.0006
     29  C25        6.6450   35.1530   57.7020 C.ar    0  <0>0        0.0099
     30  C24        7.1860   36.3310   58.1830 C.ar    0  <0>0        0.0679
     31  C23        7.9080   37.1550   57.3370 C.ar    0  <0>0        0.0682
     32 Cl          6.9570   36.7780   59.8450 Cl      0  <0>0       -0.0814
     33  C22        8.0920   36.7970   56.0130 C.ar    0  <0>0        0.0120
     34 Cl          8.5850   38.6380   57.9370 Cl      0  <0>0       -0.0814
     35  C21        7.5530   35.6170   55.5360 C.ar    0  <0>0       -0.0014
@<TRIPOS>BOND
     1    17     6    1
     2     6     5    1
     3     6     7    1
     4    35    33   ar
     5    35    28   ar
     6     8     7   ar
     7     8     9   ar
     8     5    28    1
     9     5     4    1
    10     7    12   ar
    11    33    31   ar
    12    28    29   ar
    13     9    10   ar
    14    15    14    2
    15     4    14    1
    16     4     3    2
    17    12    13    1
    18    12    11   ar
    19    18    13    1
    20    13     3    1
    21    31    34    1
    22    31    30   ar
    23    14    16    1
    24    10    11   ar
    25     3     2    1
    26    29    30   ar
    27    30    32    1
    28    16     1    1
    29     1     2    1
    30     1    19    1
    31    24    19   ar
    32    24    23   ar
    33    19    20   ar
    34    23    22   ar
    35    20    21   ar
    36    22    21   ar
    37    22    25    1
    38    25    26    1
    39    26    27    1

@<TRIPOS>MOLECULE
ZINC34912878_replica-1.pdb
 28 31 0 0 0
SMALL
GASTEIGER

@<TRIPOS>ATOM
      1  C8        -0.2680   29.0360   57.8530 C.2     0  <0>0        0.1481
      2  C9         0.1690   29.5370   56.6440 C.3     0  <0>0        0.2089
      3  N1         0.5740   30.8240   56.8730 N.pl3   0  <0>0       -0.2408
      4  C10        1.0900   31.7870   56.0500 C.2     0  <0>0        0.0687
      5  C11        1.4150   33.0020   56.5340 C.2     0  <0>0        0.0121
      6  C12        1.2280   33.2970   57.8970 C.2     0  <0>0       -0.0167
      7  C13        0.7170   32.3510   58.7280 C.2     0  <0>0        0.0438
      8  C14        0.3800   31.0830   58.2090 C.2     0  <0>0        0.1879
      9  N2        -0.1300   30.0020   58.7790 N.2     0  <0>0       -0.3875
     10  C15        1.5940   34.6570   58.4330 C.3     0  <0>0        0.0312
     11  N3         0.1910   28.8630   55.4240 N.am    0  <0>0       -0.2807
     12  C16       -0.9480   28.6990   54.7230 C.2     0  <0>0        0.2494
     13  O1        -1.9790   29.2150   55.1090 O.2     0  <0>0       -0.2700
     14  H14        1.0280   28.5120   55.0800 H       0  <0>0        0.1516
     15  C17       -0.9440   27.8920   53.4870 C.ar    0  <0>0        0.0808
     16  C22       -1.5720   28.3720   52.3330 C.ar    0  <0>0        0.1444
     17  C21       -1.5570   27.6130   51.1760 C.ar    0  <0>0        0.0298
     18  F1        -2.1870   29.5750   52.3460 F       0  <0>0       -0.2040
     19  C20       -0.9350   26.3790   51.1640 C.ar    0  <0>0        0.0023
     20  C19       -0.3170   25.8970   52.3060 C.ar    0  <0>0        0.0003
     21  C18       -0.3170   26.6450   53.4640 C.ar    0  <0>0        0.0068
     22  C5        -0.7990   27.6730   58.0900 C.ar    0  <0>0        0.0288
     23  C4        -2.1690   27.4780   58.2700 C.ar    0  <0>0        0.0020
     24  C3        -2.6590   26.2070   58.4890 C.ar    0  <0>0       -0.0042
     25  C2        -1.7940   25.1270   58.5300 C.ar    0  <0>0       -0.0218
     26  C1        -2.3350   23.7420   58.7710 C.3     0  <0>0        0.0310
     27  C7        -0.4350   25.3160   58.3580 C.ar    0  <0>0       -0.0042
     28  C6         0.0660   26.5810   58.1330 C.ar    0  <0>0        0.0020
@<TRIPOS>BOND
     1    19    17   ar
     2    19    20   ar
     3    17    16   ar
     4    20    21   ar
     5    16    18    1
     6    16    15   ar
     7    21    15   ar
     8    15    12    1
     9    12    13    2
    10    12    11   am
    11    14    11    1
    12    11     2    1
    13     4     5    2
    14     4     3    1
    15     5     6    1
    16     2     3    1
    17     2     1    1
    18     3     8    1
    19     1    22    1
    20     1     9    2
    21     6    10    1
    22     6     7    2
    23    22    28   ar
    24    22    23   ar
    25    28    27   ar
    26     8     7    1
    27     8     9    2
    28    23    24   ar
    29    27    25   ar
    30    24    25   ar
    31    25    26    1

@<TRIPOS>MOLECULE
ZINC59367351_replica-1.pdb
 28 31 0 0 0
SMALL
GASTEIGER

@<TRIPOS>ATOM
      1  C8         0.2270   32.9600   57.1290 C.3     0  <0>0        0.1244
      2  C9        -0.6770   31.8880   56.4880 C.3     0  <0>0        0.0737
      3  C10        0.2410   31.1620   55.5320 C.2     0  <0>0        0.0785
      4  N1         1.4190   31.6800   55.5880 N.2     0  <0>0       -0.1821
      5  N2         1.5330   32.7430   56.4870 N.pl3   0  <0>0       -0.2090
      6  C5         0.3250   32.7500   58.6170 C.ar    0  <0>0       -0.0018
      7  C4         0.4570   31.4710   59.1260 C.ar    0  <0>0        0.0005
      8  C3         0.5460   31.2730   60.4910 C.ar    0  <0>0        0.0366
      9  C2         0.5050   32.3610   61.3510 C.ar    0  <0>0        0.1387
     10  C7         0.3670   33.6430   60.8380 C.ar    0  <0>0        0.0366
     11  C6         0.2840   33.8350   59.4730 C.ar    0  <0>0        0.0005
     12  O1         0.5930   32.1700   62.6940 O.3     0  <0>0       -0.4714
     13  C1        -0.3390   31.2600   63.2820 C.3     0  <0>0        0.2525
     14  C11        2.6930   33.4780   56.7380 C.ar    0  <0>0        0.0694
     15  C16        2.6950   34.8570   56.5640 C.ar    0  <0>0        0.0168
     16  C15        3.8420   35.5810   56.8200 C.ar    0  <0>0        0.0080
     17  C14        4.9920   34.9350   57.2360 C.ar    0  <0>0        0.0346
     18  C13        4.9960   33.5610   57.4040 C.ar    0  <0>0        0.0080
     19 Br          6.5630   35.9300   57.5770 Br      0  <0>0       -0.0490
     20  C12        3.8500   32.8310   57.1560 C.ar    0  <0>0        0.0168
     21  C17       -0.1530   30.0330   54.6670 C.ar    0  <0>0        0.0153
     22  C22       -1.2400   30.1610   53.8010 C.ar    0  <0>0        0.0043
     23  C21       -1.6010   29.1060   52.9900 C.ar    0  <0>0        0.0369
     24  C20       -0.8920   27.9130   53.0430 C.ar    0  <0>0        0.1387
     25  C19        0.1870   27.7790   53.9070 C.ar    0  <0>0        0.0369
     26  C18        0.5580   28.8310   54.7170 C.ar    0  <0>0        0.0043
     27  O2        -1.2550   26.8730   52.2470 O.3     0  <0>0       -0.4714
     28  C23       -0.4710   25.6830   52.3380 C.3     0  <0>0        0.2525
@<TRIPOS>BOND
     1    27    28    1
     2    27    24    1
     3    23    24   ar
     4    23    22   ar
     5    24    25   ar
     6    22    21   ar
     7    25    26   ar
     8    21    26   ar
     9    21     3    1
    10     3     4    2
    11     3     2    1
    12     4     5    1
    13     5    14    1
    14     5     1    1
    15     2     1    1
    16    15    14   ar
    17    15    16   ar
    18    14    20   ar
    19    16    17   ar
    20     1     6    1
    21    20    18   ar
    22    17    18   ar
    23    17    19    1
    24     6     7   ar
    25     6    11   ar
    26     7     8   ar
    27    11    10   ar
    28     8     9   ar
    29    10     9   ar
    30     9    12    1
    31    12    13    1

@<TRIPOS>MOLECULE
ZINC15861662_replica-1.pdb
 29 32 0 0 0
SMALL
GASTEIGER

@<TRIPOS>ATOM
      1  C12        7.2990   35.6040   58.6350 C.ar    0  <0>0        0.0531
      2  C13        7.1770   36.5970   59.6020 C.ar    0  <0>0        0.0156
      3  C14        8.1950   36.8120   60.5030 C.ar    0  <0>0        0.0116
      4  C15        9.3550   36.0350   60.4420 C.ar    0  <0>0        0.0685
      5  C16        9.4770   35.0420   59.4650 C.ar    0  <0>0        0.0116
      6  C17        8.4540   34.8330   58.5680 C.ar    0  <0>0        0.0156
      7  C18       10.4170   36.2530   61.3780 C.1     0  <0>0        0.1004
      8  N3        11.2580   36.4280   62.1210 N.1     0  <0>0       -0.1908
      9  N2         6.2620   35.3870   57.7250 N.am    0  <0>0       -0.2676
     10  C4         5.1890   34.5810   57.9950 C.3     0  <0>0        0.1860
     11  C3         4.2660   34.5800   56.7950 C.3     0  <0>0        0.1024
     12  C2         4.9760   35.5030   55.7850 C.3     0  <0>0        0.0546
     13  C1         4.0970   36.7100   55.4520 C.3     0  <0>0        0.0077
     14  C11        6.2290   35.9430   56.5080 C.2     0  <0>0        0.0668
     15  C23        5.3340   34.7340   54.5120 C.3     0  <0>0        0.0077
     16  S1         7.3430   36.9230   55.9110 S.2     0  <0>0       -0.0391
     17  N1         4.9930   33.9260   59.1010 N.pl3   0  <0>0       -0.2175
     18  C5         4.8430   32.5630   59.0730 C.ar    0  <0>0        0.0672
     19  C10        5.8590   31.7580   58.5560 C.ar    0  <0>0        0.0170
     20  C9         5.7030   30.3870   58.5310 C.ar    0  <0>0        0.0127
     21  C8         4.5430   29.8100   59.0190 C.ar    0  <0>0        0.0578
     22  C7         3.5320   30.6040   59.5340 C.ar    0  <0>0        0.0127
     23 Cl          4.3550   28.0840   58.9850 Cl      0  <0>0       -0.0822
     24  C6         3.6790   31.9750   59.5680 C.ar    0  <0>0        0.0170
     25  N4         2.9480   35.1220   57.1520 N.3     0  <0>0       -0.2707
     26  C22        2.9530   35.6640   58.5270 C.3     0  <0>0        0.0722
     27  C21        1.5560   35.4000   59.1220 C.3     0  <0>0        0.0188
     28  C20        0.7810   34.6520   58.0140 C.3     0  <0>0        0.0188
     29  C19        1.9130   34.0560   57.1400 C.3     0  <0>0        0.0722
@<TRIPOS>BOND
     1    15    12    1
     2    13    12    1
     3    12    14    1
     4    12    11    1
     5    16    14    2
     6    14     9    1
     7    11    25    1
     8    11    10    1
     9    29    25    1
    10    29    28    1
    11    25    26    1
    12     9    10    1
    13     9     1    1
    14    10    17    1
    15    28    27    1
    16    26    27    1
    17    20    19   ar
    18    20    21   ar
    19    19    18   ar
    20     6     1   ar
    21     6     5   ar
    22     1     2   ar
    23    23    21    1
    24    21    22   ar
    25    18    17    1
    26    18    24   ar
    27     5     4   ar
    28    22    24   ar
    29     2     3   ar
    30     4     3   ar
    31     4     7    1
    32     7     8    3

@<TRIPOS>MOLECULE
ZINC56778695_replica-1.pdb
 31 33 0 0 0
SMALL
GASTEIGER

@<TRIPOS>ATOM
      1  N1         5.9650   33.3510   57.1670 N.am    0  <0>0       -0.2866
      2  C9         4.8750   33.3010   56.3750 C.2     0  <0>0        0.3042
      3  O1         4.9630   33.5970   55.1990 O.2     0  <0>0       -0.2526
      4  N2         3.6870   32.9220   56.8880 N.am    0  <0>0       -0.2625
      5  C10        3.5800   32.5650   58.3050 C.3     0  <0>0        0.1164
      6  H9         5.8930   33.1160   58.1050 H       0  <0>0        0.1512
      7  C11        2.5020   32.8660   56.0280 C.3     0  <0>0        0.0954
      8  C12        1.5290   31.8160   56.5680 C.3     0  <0>0        0.0278
      9  C13        0.0920   32.3000   56.3610 C.3     0  <0>0        0.0470
     10  C14       -0.6700   31.2800   55.5540 C.ar    0  <0>0        0.0531
     11  N4        -2.0130   31.1960   55.4450 N.ar    0  <0>0       -0.2798
     12  N3        -2.3150   30.1170   54.6040 N.ar    0  <0>0       -0.1730
     13  H2        -2.6570   31.7820   55.8720 H       0  <0>0        0.1886
     14  C16       -1.1830   29.5630   54.2260 C.ar    0  <0>0        0.1018
     15  C15       -0.1280   30.2850   54.8170 C.ar    0  <0>0        0.0349
     16  C17       -1.0420   28.3850   53.3340 C.ar    0  <0>0        0.0194
     17  C22       -1.6820   28.3640   52.0970 C.ar    0  <0>0        0.0016
     18  C21       -1.5430   27.2680   51.2700 C.ar    0  <0>0        0.0000
     19  C20       -0.7800   26.1870   51.6710 C.ar    0  <0>0        0.0000
     20  C19       -0.1470   26.2000   52.9010 C.ar    0  <0>0        0.0000
     21  C18       -0.2740   27.2930   53.7340 C.ar    0  <0>0        0.0016
     22  C2         7.2550   33.7630   56.6100 C.3     0  <0>0        0.0978
     23  C1         8.2310   32.5860   56.6590 C.3     0  <0>0        0.0263
     24  C3         7.8080   34.9080   57.4180 C.ar    0  <0>0        0.0232
     25  C8         7.2690   36.1760   57.2810 C.ar    0  <0>0        0.1399
     26  C7         7.7740   37.2270   58.0280 C.ar    0  <0>0        0.0590
     27  F1         6.2480   36.3870   56.4230 F       0  <0>0       -0.2044
     28  C6         8.8250   37.0110   58.9030 C.ar    0  <0>0        0.1424
     29  C5         9.3660   35.7420   59.0340 C.ar    0  <0>0        0.0295
     30  F2         9.3210   38.0360   59.6300 F       0  <0>0       -0.2041
     31  C4         8.8570   34.6930   58.2930 C.ar    0  <0>0        0.0019
@<TRIPOS>BOND
     1    18    19   ar
     2    18    17   ar
     3    19    20   ar
     4    17    16   ar
     5    20    21   ar
     6    16    21   ar
     7    16    14    1
     8    14    12   ar
     9    14    15   ar
    10    12    11   ar
    11    15    10   ar
    12     3     2    2
    13    11    10   ar
    14    11    13    1
    15    10     9    1
    16     7     8    1
    17     7     4    1
    18     9     8    1
    19     2     4   am
    20     2     1   am
    21    27    25    1
    22    22    23    1
    23    22     1    1
    24    22    24    1
    25     4     5    1
    26     1     6    1
    27    25    24   ar
    28    25    26   ar
    29    24    31   ar
    30    26    28   ar
    31    31    29   ar
    32    28    29   ar
    33    28    30    1

@<TRIPOS>MOLECULE
ZINC06762831_replica-1.pdb
 28 30 0 0 0
SMALL
GASTEIGER

@<TRIPOS>ATOM
      1  C8        -1.1280   29.9660   55.4430 C.3     0  <0>0        0.0551
      2  C7         0.3900   30.1540   55.3910 C.3     0  <0>0        0.0938
      3  C6         0.7450   31.5290   55.8970 C.2     0  <0>0        0.2231
      4  N1         2.0370   31.8970   55.9980 N.am    0  <0>0       -0.3059
      5  H14        2.7390   31.2770   55.7460 H       0  <0>0        0.1494
      6  O1        -0.1330   32.3030   56.2130 O.2     0  <0>0       -0.2751
      7  C2         2.3810   33.2330   56.4900 C.3     0  <0>0        0.0716
      8  C1         3.3930   33.8800   55.5420 C.3     0  <0>0        0.0213
      9  C3         2.9920   33.1190   57.8890 C.3     0  <0>0        0.0180
     10  C4         1.8800   33.1800   58.9370 C.3     0  <0>0        0.0017
     11  C5         3.7380   31.7890   58.0130 C.3     0  <0>0        0.0017
     12  C9        -1.4640   28.8540   56.4030 C.ar    0  <0>0       -0.0177
     13  C14       -0.4520   28.1070   56.9760 C.ar    0  <0>0       -0.0016
     14  C13       -0.7590   27.0910   57.8610 C.ar    0  <0>0        0.0293
     15  C12       -2.0820   26.8140   58.1640 C.ar    0  <0>0        0.1401
     16  C11       -3.0940   27.5580   57.5850 C.ar    0  <0>0        0.0293
     17  F1        -2.3830   25.8160   59.0250 F       0  <0>0       -0.2042
     18  C10       -2.7850   28.5780   56.7040 C.ar    0  <0>0       -0.0016
     19  C15       -1.6380   29.6160   54.0690 C.ar    0  <0>0        0.0004
     20  C18       -1.2870   28.4300   53.2850 C.ar    0  <0>0        0.0134
     21  C17       -2.0050   28.5330   52.0800 C.ar    0  <0>0        0.0563
     22  C19       -0.4530   27.3320   53.5070 C.ar    0  <0>0        0.0012
     23  N2        -2.7270   29.7050   52.1370 N.ar    0  <0>0       -0.3522
     24  C22       -1.8760   27.5340   51.1220 C.ar    0  <0>0        0.0170
     25  C16       -2.4950   30.3360   53.3290 C.ar    0  <0>0        0.0684
     26  H3        -3.3120   30.0330   51.4360 H       0  <0>0        0.1660
     27  C21       -1.0410   26.4630   51.3570 C.ar    0  <0>0        0.0015
     28  C20       -0.3380   26.3640   52.5500 C.ar    0  <0>0        0.0001
@<TRIPOS>BOND
     1    24    27   ar
     2    24    21   ar
     3    27    28   ar
     4    26    23    1
     5    21    23   ar
     6    21    20   ar
     7    23    25   ar
     8    28    22   ar
     9    20    22   ar
    10    20    19   ar
    11    25    19   ar
    12    19     1    1
    13     2     1    1
    14     2     3    1
    15     1    12    1
    16     8     7    1
    17     5     4    1
    18     3     4   am
    19     3     6    2
    20     4     7    1
    21    12    18   ar
    22    12    13   ar
    23     7     9    1
    24    18    16   ar
    25    13    14   ar
    26    16    15   ar
    27    14    15   ar
    28     9    11    1
    29     9    10    1
    30    15    17    1

@<TRIPOS>MOLECULE
ZINC49924670_replica-1.pdb
 25 26 0 0 0
SMALL
GASTEIGER

@<TRIPOS>ATOM
      1  C11       10.1670   35.3650   60.2320 C.3     0  <0>0        0.1344
      2  C8        10.9010   34.4340   61.1610 C.ar    0  <0>0        0.0043
      3  C7        12.1310   34.7990   61.6760 C.ar    0  <0>0       -0.0023
      4  C6        12.8040   33.9450   62.5300 C.ar    0  <0>0       -0.0045
      5  C5        12.2470   32.7270   62.8700 C.ar    0  <0>0       -0.0225
      6  C10       11.0180   32.3600   62.3520 C.ar    0  <0>0       -0.0045
      7  C9        10.3430   33.2160   61.5010 C.ar    0  <0>0       -0.0023
      8  C3        12.9800   31.7960   63.8010 C.3     0  <0>0        0.0223
      9  C4        14.4610   32.1750   63.8380 C.3     0  <0>0        0.0047
     10  C2        12.8340   30.3570   63.3010 C.3     0  <0>0        0.0044
     11  C1        12.2400   29.4890   64.4130 C.3     0  <0>0        0.0003
     12  C12        9.9330   36.7050   60.9320 C.3     0  <0>0        0.0550
     13  C13        8.4670   36.8080   61.3600 C.3     0  <0>0        0.0899
     14  N1         7.7670   37.7500   60.4840 N.pl3   0  <0>0       -0.3328
     15  H19        7.7910   38.7000   60.6760 H       0  <0>0        0.1468
     16  C14        7.0640   37.2790   59.3730 C.ar    0  <0>0        0.0406
     17  C19        7.4790   37.6180   58.0920 C.ar    0  <0>0       -0.0091
     18  C18        6.7860   37.1450   56.9940 C.ar    0  <0>0       -0.0073
     19  C20        8.6890   38.4960   57.8980 C.3     0  <0>0        0.0323
     20  C17        5.6730   36.3450   57.1710 C.ar    0  <0>0       -0.0221
     21  C16        5.2530   36.0100   58.4460 C.ar    0  <0>0       -0.0030
     22  C21        4.9150   35.8360   55.9710 C.3     0  <0>0        0.0310
     23  C15        5.9450   36.4740   59.5460 C.ar    0  <0>0        0.0137
     24  O1         8.9090   34.7880   59.8750 O.3     0  <0>0       -0.3800
     25  H29        8.9410   33.8330   59.7280 H       0  <0>0        0.2108
@<TRIPOS>BOND
     1    22    20    1
     2    18    20   ar
     3    18    17   ar
     4    20    21   ar
     5    19    17    1
     6    17    16   ar
     7    21    23   ar
     8    16    23   ar
     9    16    14    1
    10    25    24    1
    11    24     1    1
    12     1    12    1
    13     1     2    1
    14    14    15    1
    15    14    13    1
    16    12    13    1
    17     2     7   ar
    18     2     3   ar
    19     7     6   ar
    20     3     4   ar
    21     6     5   ar
    22     4     5   ar
    23     5     8    1
    24    10     8    1
    25    10    11    1
    26     8     9    1

@<TRIPOS>MOLECULE
ZINC21259903_replica-1.pdb
 35 39 0 0 0
SMALL
GASTEIGER

@<TRIPOS>ATOM
      1  C9         9.6370   34.5040   60.7200 C.3     0  <0>0        0.0356
      2  C10       10.0300   34.7300   59.2620 C.3     0  <0>0        0.0458
      3  C11        8.8270   35.2110   58.4690 C.2     0  <0>0        0.0262
      4  C12        7.8800   35.9650   59.0530 C.2     0  <0>0        0.0436
      5  C13        6.6470   36.5180   58.3800 C.3     0  <0>0        0.1186
      6  N1         6.6470   36.4050   56.9370 N.pl3   0  <0>0       -0.3262
      7  C14        6.6280   35.1580   56.3160 C.ar    0  <0>0        0.0586
      8  C15        5.5520   34.7500   55.5430 C.ar    0  <0>0        0.0156
      9  C16        5.5580   33.4830   54.9850 C.ar    0  <0>0        0.0013
     10  C17        6.6260   32.6290   55.1980 C.ar    0  <0>0        0.0014
     11  C18        7.7100   33.0410   55.9540 C.ar    0  <0>0        0.0158
     12  C19        7.7150   34.3150   56.4940 C.ar    0  <0>0        0.0614
     13  N2         8.8170   34.8340   57.1650 N.pl3   0  <0>0       -0.3150
     14  C28        7.9870   36.3060   60.4220 C.2     0  <0>0        0.1722
     15  O2         7.1260   37.0040   60.9220 O.2     0  <0>0       -0.2916
     16  C29        9.1250   35.8370   61.2790 C.3     0  <0>0        0.0736
     17  H14        6.6620   37.3120   56.3150 H       0  <0>0        0.1474
     18  H19        9.7280   34.9290   56.5570 H       0  <0>0        0.1520
     19  C20        5.4430   35.7870   58.9160 C.ar    0  <0>0       -0.0001
     20  C25        5.6070   34.6010   59.6090 C.ar    0  <0>0        0.0008
     21  C24        4.5050   33.9330   60.1070 C.ar    0  <0>0        0.0366
     22  C23        3.2330   34.4450   59.9000 C.ar    0  <0>0        0.1385
     23  C22        3.0700   35.6340   59.2040 C.ar    0  <0>0        0.0366
     24  C21        4.1760   36.3020   58.7130 C.ar    0  <0>0        0.0008
     25  O1         2.1470   33.7860   60.3830 O.3     0  <0>0       -0.4755
     26  C26        0.8740   34.4130   60.2020 C.3     0  <0>0        0.2055
     27  C27       -0.0560   34.0170   61.3500 C.3     0  <0>0        0.0512
     28  C6        10.8380   34.0480   61.5090 C.ar    0  <0>0       -0.0217
     29  C5        11.9150   34.8970   61.6790 C.ar    0  <0>0       -0.0046
     30  C4        13.0160   34.4800   62.4030 C.ar    0  <0>0       -0.0046
     31  C3        13.0410   33.2130   62.9570 C.ar    0  <0>0       -0.0222
     32  C8        11.9620   32.3650   62.7870 C.ar    0  <0>0       -0.0046
     33  C7        10.8600   32.7840   62.0670 C.ar    0  <0>0       -0.0046
     34  C2        14.2420   32.7580   63.7440 C.3     0  <0>0        0.0264
     35  C1        15.3940   33.7410   63.5300 C.3     0  <0>0        0.0050
@<TRIPOS>BOND
     1     9    10   ar
     2     9     8   ar
     3    10    11   ar
     4     8     7   ar
     5    11    12   ar
     6    17     6    1
     7     7    12   ar
     8     7     6    1
     9    12    13    1
    10    18    13    1
    11     6     5    1
    12    13     3    1
    13     5    19    1
    14     5     4    1
    15     3     4    2
    16     3     2    1
    17    24    19   ar
    18    24    23   ar
    19    19    20   ar
    20     4    14    1
    21    23    22   ar
    22     2     1    1
    23    20    21   ar
    24    22    21   ar
    25    22    25    1
    26    26    25    1
    27    26    27    1
    28    14    15    2
    29    14    16    1
    30     1    16    1
    31     1    28    1
    32    28    29   ar
    33    28    33   ar
    34    29    30   ar
    35    33    32   ar
    36    30    31   ar
    37    32    31   ar
    38    31    34    1
    39    35    34    1

@<TRIPOS>MOLECULE
ZINC59367357_replica-1.pdb
 32 35 0 0 0
SMALL
GASTEIGER

@<TRIPOS>ATOM
      1  C8         8.1500   33.5760   58.8700 C.3     0  <0>0        0.1245
      2  C9         8.9830   32.8290   59.9320 C.3     0  <0>0        0.0737
      3  C10       10.0100   33.8470   60.3720 C.2     0  <0>0        0.0785
      4  N1         9.8320   34.9470   59.7230 N.2     0  <0>0       -0.1819
      5  N2         8.7730   34.9080   58.8140 N.pl3   0  <0>0       -0.2045
      6  C11        8.3680   35.9610   57.9860 C.ar    0  <0>0        0.1287
      7  C16        8.0460   37.1960   58.5370 C.ar    0  <0>0        0.1869
      8  C15        7.6510   38.2380   57.7160 C.ar    0  <0>0        0.1983
      9  F1         8.1220   37.3810   59.8740 F       0  <0>0       -0.2003
     10  C14        7.5670   38.0480   56.3450 C.ar    0  <0>0        0.1992
     11  F2         7.3430   39.4400   58.2500 F       0  <0>0       -0.1993
     12  C13        7.8820   36.8160   55.7940 C.ar    0  <0>0        0.1983
     13  F3         7.1770   39.0650   55.5450 F       0  <0>0       -0.1993
     14  C12        8.2830   35.7720   56.6110 C.ar    0  <0>0        0.1869
     15  F4         7.8000   36.6330   54.4570 F       0  <0>0       -0.1993
     16  F5         8.5920   34.5730   56.0730 F       0  <0>0       -0.2003
     17  C5         6.7110   33.6810   59.3030 C.ar    0  <0>0       -0.0018
     18  C4         5.7130   33.1400   58.5150 C.ar    0  <0>0        0.0005
     19  C3         4.3910   33.2340   58.9100 C.ar    0  <0>0        0.0366
     20  C2         4.0680   33.8740   60.0970 C.ar    0  <0>0        0.1387
     21  C7         5.0710   34.4210   60.8840 C.ar    0  <0>0        0.0366
     22  C6         6.3920   34.3190   60.4880 C.ar    0  <0>0        0.0005
     23  O1         2.7700   33.9690   60.4880 O.3     0  <0>0       -0.4714
     24  C1         1.8500   34.5320   59.5500 C.3     0  <0>0        0.2525
     25  C17       11.0550   33.6180   61.3860 C.ar    0  <0>0        0.0153
     26  C22       12.1190   34.5140   61.5120 C.ar    0  <0>0        0.0043
     27  C21       13.0900   34.2980   62.4660 C.ar    0  <0>0        0.0369
     28  C20       13.0200   33.1860   63.2930 C.ar    0  <0>0        0.1387
     29  C19       11.9660   32.2890   63.1680 C.ar    0  <0>0        0.0369
     30  C18       10.9870   32.4990   62.2220 C.ar    0  <0>0        0.0043
     31  O2        13.9820   32.9730   64.2280 O.3     0  <0>0       -0.4714
     32  C23       15.2010   33.7060   64.0820 C.3     0  <0>0        0.2525
@<TRIPOS>BOND
     1    15    12    1
     2    13    10    1
     3    12    10   ar
     4    12    14   ar
     5    16    14    1
     6    10     8   ar
     7    14     6   ar
     8     8    11    1
     9     8     7   ar
    10     6     7   ar
    11     6     5    1
    12    18    19   ar
    13    18    17   ar
    14     7     9    1
    15     5     1    1
    16     5     4    1
    17     1    17    1
    18     1     2    1
    19    19    20   ar
    20    17    22   ar
    21    24    23    1
    22     4     3    2
    23     2     3    1
    24    20    23    1
    25    20    21   ar
    26     3    25    1
    27    22    21   ar
    28    25    26   ar
    29    25    30   ar
    30    26    27   ar
    31    30    29   ar
    32    27    28   ar
    33    29    28   ar
    34    28    31    1
    35    32    31    1

@<TRIPOS>MOLECULE
ZINC13468963_replica-1.pdb
 27 28 0 0 0
SMALL
GASTEIGER

@<TRIPOS>ATOM
      1  N1         6.7600   35.6190   58.4140 N.am    0  <0>0       -0.3022
      2  C11        5.7660   35.4110   59.2990 C.2     0  <0>0        0.2235
      3  O1         5.6170   36.1690   60.2350 O.2     0  <0>0       -0.2751
      4  H13        6.8780   35.0130   57.6670 H       0  <0>0        0.1497
      5  C12        4.8370   34.2370   59.1270 C.3     0  <0>0        0.0998
      6  C13        3.6570   34.6440   58.2430 C.3     0  <0>0        0.1211
      7  C14        3.2050   36.0570   58.6140 C.3     0  <0>0        0.0162
      8  C15        4.0800   34.6160   56.7960 C.ar    0  <0>0       -0.0122
      9  C20        3.6480   35.6030   55.9310 C.ar    0  <0>0       -0.0038
     10  C19        4.0310   35.5730   54.6030 C.ar    0  <0>0       -0.0003
     11  C18        4.8510   34.5610   54.1430 C.ar    0  <0>0       -0.0000
     12  C17        5.2880   33.5770   55.0090 C.ar    0  <0>0       -0.0003
     13  C16        4.9050   33.6060   56.3370 C.ar    0  <0>0       -0.0038
     14  C21        2.5160   33.6820   58.4520 C.2     0  <0>0        0.3680
     15  O2         1.3890   34.0100   58.1720 O.co2   0  <0>0       -0.2453
     16  O3         2.7540   32.4580   58.9500 O.co2   0  <0>0       -0.2453
     17  C4         7.6630   36.7610   58.5810 C.3     0  <0>0        0.0940
     18  C2         8.2330   37.1640   57.2200 C.3     0  <0>0        0.0222
     19  C1         7.2030   36.8690   56.1270 C.3     0  <0>0        0.0020
     20  C3         8.5570   38.6590   57.2250 C.3     0  <0>0        0.0020
     21  C5         8.7890   36.3790   59.5050 C.ar    0  <0>0       -0.0044
     22  C10        9.5510   35.2560   59.2380 C.ar    0  <0>0       -0.0004
     23  C9        10.5850   34.9050   60.0840 C.ar    0  <0>0        0.0294
     24  C8        10.8590   35.6770   61.2010 C.ar    0  <0>0        0.1401
     25  C7        10.0950   36.8000   61.4680 C.ar    0  <0>0        0.0294
     26  F1        11.8680   35.3340   62.0290 F       0  <0>0       -0.2042
     27  C6         9.0640   37.1540   60.6170 C.ar    0  <0>0       -0.0004
@<TRIPOS>BOND
     1    11    10   ar
     2    11    12   ar
     3    10     9   ar
     4    12    13   ar
     5     9     8   ar
     6    19    18    1
     7    13     8   ar
     8     8     6    1
     9    18    20    1
    10    18    17    1
    11     4     1    1
    12    15    14   ar
    13     6    14    1
    14     6     7    1
    15     6     5    1
    16     1    17    1
    17     1     2   am
    18    14    16   ar
    19    17    21    1
    20     5     2    1
    21    22    21   ar
    22    22    23   ar
    23     2     3    2
    24    21    27   ar
    25    23    24   ar
    26    27    25   ar
    27    24    25   ar
    28    24    26    1

@<TRIPOS>MOLECULE
ZINC06439426_replica-1.pdb
 33 36 0 0 0
SMALL
GASTEIGER

@<TRIPOS>ATOM
      1  C5        -0.6970   29.6070   54.9260 C.3     0  <0>0        0.0553
      2  C4        -1.0500   31.0700   55.1950 C.3     0  <0>0        0.0959
      3  C3         0.1330   31.7670   55.8170 C.2     0  <0>0        0.2452
      4  N1         0.0720   33.0840   56.0920 N.am    0  <0>0       -0.1932
      5  H8        -0.7360   33.5840   55.8950 H       0  <0>0        0.1825
      6  O2         1.1430   31.1420   56.0640 O.2     0  <0>0       -0.2730
      7  O1         1.1850   33.7400   56.6710 O.3     0  <0>0       -0.2664
      8  C2         0.9920   34.1210   58.0350 C.3     0  <0>0        0.1711
      9  C1         1.1810   35.6330   58.1740 C.3     0  <0>0        0.0373
     10  C6        -1.2420   28.7460   56.0360 C.ar    0  <0>0       -0.0149
     11  C11       -0.3980   27.9060   56.7360 C.ar    0  <0>0        0.0330
     12  C10       -0.9010   27.1140   57.7580 C.ar    0  <0>0        0.1387
     13  C9        -2.2500   27.1690   58.0750 C.ar    0  <0>0        0.0369
     14  C8        -3.0910   28.0110   57.3720 C.ar    0  <0>0        0.0028
     15  C7        -2.5870   28.8020   56.3570 C.ar    0  <0>0       -0.0037
     16  O3        -0.0730   26.2860   58.4480 O.3     0  <0>0       -0.4707
     17  C12       -0.5550   24.9690   58.7240 C.3     0  <0>0        0.2320
     18  C13       -0.1760   24.0480   57.5930 C.ar    0  <0>0        0.0212
     19  C18       -0.2970   22.6790   57.7450 C.ar    0  <0>0       -0.0007
     20  C17        0.0510   21.8360   56.7070 C.ar    0  <0>0       -0.0002
     21  C16        0.5190   22.3600   55.5170 C.ar    0  <0>0       -0.0000
     22  C15        0.6390   23.7280   55.3650 C.ar    0  <0>0       -0.0002
     23  C14        0.2870   24.5730   56.4010 C.ar    0  <0>0       -0.0007
     24  C19       -1.3020   29.1770   53.6140 C.ar    0  <0>0        0.0004
     25  C22       -1.0850   27.8990   52.9320 C.ar    0  <0>0        0.0134
     26  C21       -1.8540   27.9520   51.7550 C.ar    0  <0>0        0.0563
     27  C23       -0.3410   26.7550   53.2270 C.ar    0  <0>0        0.0012
     28  N2        -2.4770   29.1800   51.7310 N.ar    0  <0>0       -0.3522
     29  C26       -1.8520   26.8620   50.8900 C.ar    0  <0>0        0.0170
     30  C20       -2.1360   29.8960   52.8460 C.ar    0  <0>0        0.0684
     31  H2        -3.0690   29.4910   51.0280 H       0  <0>0        0.1660
     32  C25       -1.1050   25.7460   51.1980 C.ar    0  <0>0        0.0015
     33  C24       -0.3540   25.6970   52.3640 C.ar    0  <0>0        0.0001
@<TRIPOS>BOND
     1    29    32   ar
     2    29    26   ar
     3    31    28    1
     4    32    33   ar
     5    28    26   ar
     6    28    30   ar
     7    26    25   ar
     8    33    27   ar
     9    30    24   ar
    10    25    27   ar
    11    25    24   ar
    12    24     1    1
    13     1     2    1
    14     1    10    1
    15     2     3    1
    16    22    21   ar
    17    22    23   ar
    18    21    20   ar
    19     3     6    2
    20     3     4   am
    21     5     4    1
    22    10    15   ar
    23    10    11   ar
    24     4     7    1
    25    15    14   ar
    26    23    18   ar
    27     7     8    1
    28    20    19   ar
    29    11    12   ar
    30    14    13   ar
    31    18    19   ar
    32    18    17    1
    33    12    13   ar
    34    12    16    1
    35     8     9    1
    36    16    17    1

@<TRIPOS>MOLECULE
ZINC21231260_replica-1.pdb
 34 38 0 0 0
SMALL
GASTEIGER

@<TRIPOS>ATOM
      1  C9         0.0020   31.1700   57.8950 C.3     0  <0>0        0.1186
      2  C10       -0.0260   30.1910   56.7440 C.2     0  <0>0        0.0436
      3  C11        0.3220   28.8950   56.8050 C.2     0  <0>0        0.0262
      4  C12        0.2900   28.0340   55.5510 C.3     0  <0>0        0.0458
      5  C13       -0.8520   28.4870   54.6420 C.3     0  <0>0        0.0356
      6  C14       -0.5960   29.9510   54.2670 C.3     0  <0>0        0.0736
      7  C15       -0.4700   30.7550   55.5260 C.2     0  <0>0        0.1722
      8  O2        -0.7590   31.9350   55.4980 O.2     0  <0>0       -0.2916
      9  N1         0.7320   28.2450   57.9240 N.pl3   0  <0>0       -0.3150
     10  C22        1.6860   28.7270   58.8160 C.ar    0  <0>0        0.0614
     11  C23        2.8810   28.0710   59.0470 C.ar    0  <0>0        0.0158
     12  C24        3.7510   28.5640   60.0060 C.ar    0  <0>0        0.0014
     13  C25        3.4250   29.7000   60.7230 C.ar    0  <0>0        0.0013
     14  C26        2.2380   30.3700   60.4770 C.ar    0  <0>0        0.0156
     15  C27        1.3730   29.8900   59.5050 C.ar    0  <0>0        0.0586
     16  N2         0.1930   30.5590   59.1930 N.pl3   0  <0>0       -0.3262
     17  H20        0.3030   27.2650   58.1790 H       0  <0>0        0.1520
     18  H25       -0.6020   30.6180   59.9510 H       0  <0>0        0.1474
     19  C6         1.1190   32.1530   57.6600 C.ar    0  <0>0        0.0008
     20  C5         2.2410   31.7670   56.9480 C.ar    0  <0>0        0.0008
     21  C4         3.2660   32.6670   56.7310 C.ar    0  <0>0        0.0375
     22  C3         3.1700   33.9590   57.2260 C.ar    0  <0>0        0.1490
     23  C8         2.0440   34.3450   57.9400 C.ar    0  <0>0        0.0913
     24  C7         1.0190   33.4420   58.1500 C.ar    0  <0>0        0.0121
     25 Cl          1.9210   35.9610   58.5610 Cl      0  <0>0       -0.0791
     26  O1         4.1780   34.8460   57.0130 O.3     0  <0>0       -0.4746
     27  C2         5.3660   34.6790   57.7910 C.3     0  <0>0        0.2056
     28  C1         5.5580   35.8980   58.6960 C.3     0  <0>0        0.0512
     29  C16       -0.8820   27.6380   53.3970 C.ar    0  <0>0       -0.0217
     30  C21       -1.4890   28.1130   52.2510 C.ar    0  <0>0       -0.0043
     31  C20       -1.5160   27.3340   51.1090 C.ar    0  <0>0       -0.0003
     32  C19       -0.9370   26.0790   51.1160 C.ar    0  <0>0       -0.0000
     33  C18       -0.3290   25.6040   52.2620 C.ar    0  <0>0       -0.0003
     34  C17       -0.2970   26.3860   53.4020 C.ar    0  <0>0       -0.0043
@<TRIPOS>BOND
     1    31    32   ar
     2    31    30   ar
     3    32    33   ar
     4    30    29   ar
     5    33    34   ar
     6    29    34   ar
     7    29     5    1
     8     6     5    1
     9     6     7    1
    10     5     4    1
    11     8     7    2
    12     7     2    1
    13     4     3    1
    14    21    20   ar
    15    21    22   ar
    16     2     3    2
    17     2     1    1
    18     3     9    1
    19    20    19   ar
    20    26    22    1
    21    26    27    1
    22    22    23   ar
    23    19     1    1
    24    19    24   ar
    25    27    28    1
    26     1    16    1
    27     9    17    1
    28     9    10    1
    29    23    24   ar
    30    23    25    1
    31    10    11   ar
    32    10    15   ar
    33    11    12   ar
    34    16    15    1
    35    16    18    1
    36    15    14   ar
    37    12    13   ar
    38    14    13   ar

@<TRIPOS>MOLECULE
ZINC10002126_replica-1.pdb
 29 30 0 0 0
SMALL
GASTEIGER

@<TRIPOS>ATOM
      1  C5         0.9410   33.8730   57.1730 C.3     0  <0>0        0.1505
      2  C4         0.1800   33.5480   58.4600 C.3     0  <0>0        0.0290
      3  C2         1.1470   32.9670   59.4920 C.3     0  <0>0        0.0021
      4  C1         1.0070   33.7330   60.8100 C.3     0  <0>0        0.0001
      5  C3         0.8200   31.4910   59.7250 C.3     0  <0>0        0.0001
      6  C6         0.9400   32.6680   56.2690 C.2     0  <0>0        0.2589
      7  O1         1.9670   32.0510   56.0790 O.2     0  <0>0       -0.2716
      8  N1        -0.2020   32.2740   55.6730 N.am    0  <0>0       -0.2045
      9  H11       -1.0240   32.7660   55.8260 H       0  <0>0        0.1773
     10  N2        -0.2040   31.1530   54.8330 N.2     0  <0>0       -0.1776
     11  C7        -0.5280   29.9880   55.3050 C.2     0  <0>0        0.1176
     12  C8        -0.5290   28.8090   54.4200 C.ar    0  <0>0        0.0207
     13  C13       -1.2260   28.8410   53.2090 C.ar    0  <0>0        0.0025
     14  C12       -1.2230   27.7350   52.3860 C.ar    0  <0>0        0.0114
     15  C11       -0.5340   26.5930   52.7570 C.ar    0  <0>0        0.0577
     16  C10        0.1590   26.5530   53.9560 C.ar    0  <0>0        0.0114
     17 Cl         -0.5360   25.2050   51.7150 Cl      0  <0>0       -0.0822
     18  C9         0.1690   27.6550   54.7860 C.ar    0  <0>0        0.0025
     19  N3         2.3220   34.2350   57.5020 N.am    0  <0>0       -0.2948
     20  C14        2.7550   35.4970   57.3010 C.2     0  <0>0        0.2461
     21  O2         2.0280   36.3090   56.7630 O.2     0  <0>0       -0.2701
     22  H17        2.9250   33.5680   57.8660 H       0  <0>0        0.1501
     23  C15        4.1120   35.8900   57.7330 C.ar    0  <0>0        0.0534
     24  C20        5.1190   36.0920   56.7860 C.ar    0  <0>0        0.0054
     25  C19        6.3820   36.4600   57.1950 C.ar    0  <0>0        0.0115
     26  C18        6.6550   36.6280   58.5430 C.ar    0  <0>0        0.0577
     27  C17        5.6610   36.4280   59.4870 C.ar    0  <0>0        0.0115
     28 Cl          8.2490   37.0910   59.0510 Cl      0  <0>0       -0.0822
     29  C16        4.3930   36.0610   59.0900 C.ar    0  <0>0        0.0054
@<TRIPOS>BOND
     1    17    15    1
     2    14    15   ar
     3    14    13   ar
     4    15    16   ar
     5    13    12   ar
     6    16    18   ar
     7    12    18   ar
     8    12    11    1
     9    10    11    2
    10    10     8    1
    11     8     9    1
    12     8     6   am
    13     7     6    2
    14     6     1    1
    15    21    20    2
    16    24    25   ar
    17    24    23   ar
    18     1    19    1
    19     1     2    1
    20    25    26   ar
    21    20    19   am
    22    20    23    1
    23    19    22    1
    24    23    29   ar
    25     2     3    1
    26    26    28    1
    27    26    27   ar
    28    29    27   ar
    29     3     5    1
    30     3     4    1

@<TRIPOS>MOLECULE
ZINC45995559_replica-1.pdb
 30 33 0 0 0
SMALL
GASTEIGER

@<TRIPOS>ATOM
      1  N1         6.6740   33.3200   59.9430 N.pl3   0  <0>0       -0.1663
      2  C8         7.7790   34.1300   59.9790 C.2     0  <0>0        0.1951
      3  C9         7.3500   35.4120   59.5810 C.3     0  <0>0        0.1327
      4  C10        5.9210   35.3040   59.3070 C.2     0  <0>0        0.0668
      5  N2         5.5690   34.0680   59.5250 N.2     0  <0>0       -0.1799
      6  C11        5.0160   36.4190   58.8500 C.3     0  <0>0        0.0497
      7  C12        8.2780   36.4600   59.5220 C.2     0  <0>0        0.0680
      8  C13        9.5780   36.1930   59.8580 C.2     0  <0>0        0.0720
      9  C14        9.9380   34.9030   60.2430 C.2     0  <0>0        0.2784
     10  N3         9.0520   33.9270   60.2940 N.2     0  <0>0       -0.3543
     11  C3         6.6560   31.9580   60.2670 C.ar    0  <0>0        0.0730
     12  C2         6.9000   31.0060   59.2860 C.ar    0  <0>0        0.0043
     13  C1         7.1830   31.4370   57.8710 C.3     0  <0>0        0.0333
     14  C7         6.8760   29.6620   59.6090 C.ar    0  <0>0        0.0550
     15  C6         6.6210   29.2670   60.9100 C.ar    0  <0>0        0.0112
     16 Cl          7.1740   28.4700   58.3820 Cl      0  <0>0       -0.0825
     17  C5         6.3790   30.2130   61.8890 C.ar    0  <0>0        0.0022
     18  C4         6.3960   31.5570   61.5710 C.ar    0  <0>0        0.0165
     19  O1        11.2280   34.6460   60.5740 O.2     0  <0>0       -0.4467
     20  C15       11.6180   34.9100   61.9230 C.3     0  <0>0        0.2347
     21  C16       12.2810   33.6880   62.5040 C.ar    0  <0>0        0.0213
     22  C21       11.5270   32.5690   62.8050 C.ar    0  <0>0       -0.0007
     23  C20       12.1370   31.4470   63.3340 C.ar    0  <0>0       -0.0002
     24  C19       13.4990   31.4470   63.5700 C.ar    0  <0>0       -0.0000
     25  C18       14.2520   32.5680   63.2740 C.ar    0  <0>0       -0.0002
     26  C17       13.6430   33.6890   62.7410 C.ar    0  <0>0       -0.0007
     27  C22        7.8570   37.8430   59.1000 C.3     0  <0>0        0.4159
     28  F1         7.3650   37.8030   57.7900 F       0  <0>0       -0.1661
     29  F2         6.8580   38.3100   59.9600 F       0  <0>0       -0.1661
     30  F3         8.9600   38.7030   59.1570 F       0  <0>0       -0.1661
@<TRIPOS>BOND
     1    28    27    1
     2    13    12    1
     3    16    14    1
     4     6     4    1
     5    27    30    1
     6    27     7    1
     7    27    29    1
     8    12    14   ar
     9    12    11   ar
    10     4     5    2
    11     4     3    1
    12     7     3    1
    13     7     8    2
    14     5     1    1
    15     3     2    1
    16    14    15   ar
    17     8     9    1
    18     1     2    1
    19     1    11    1
    20     2    10    2
    21     9    10    2
    22     9    19    1
    23    11    18   ar
    24    19    20    1
    25    15    17   ar
    26    18    17   ar
    27    20    21    1
    28    21    26   ar
    29    21    22   ar
    30    26    25   ar
    31    22    23   ar
    32    25    24   ar
    33    23    24   ar

@<TRIPOS>MOLECULE
ZINC29888590_replica-1.pdb
 29 31 0 0 0
SMALL
GASTEIGER

@<TRIPOS>ATOM
      1  C12        2.4340   32.1820   56.4270 C.3     0  <0>0        0.1489
      2  C11        1.0320   31.7660   56.0630 C.2     0  <0>0        0.2341
      3  N1         0.7900   30.5090   55.6420 N.am    0  <0>0       -0.3015
      4  H14        1.6160   29.7860   55.5640 H       0  <0>0        0.1497
      5  O1         0.1210   32.5630   56.1500 O.2     0  <0>0       -0.2741
      6  C9        -0.5730   30.1060   55.2880 C.3     0  <0>0        0.0941
      7  C10       -1.3650   29.8110   56.5630 C.3     0  <0>0        0.0262
      8  C5        -0.5240   28.8660   54.4320 C.ar    0  <0>0       -0.0048
      9  C4         0.1970   27.7640   54.8520 C.ar    0  <0>0       -0.0030
     10  C3         0.2430   26.6270   54.0670 C.ar    0  <0>0       -0.0048
     11  C2        -0.4320   26.5930   52.8600 C.ar    0  <0>0       -0.0258
     12  C1        -0.3830   25.3530   52.0040 C.3     0  <0>0        0.0307
     13  C7        -1.1510   27.6960   52.4400 C.ar    0  <0>0       -0.0260
     14  C6        -1.2010   28.8300   53.2280 C.ar    0  <0>0       -0.0073
     15  C8        -1.8860   27.6590   51.1250 C.3     0  <0>0        0.0307
     16  S1         2.5380   33.9920   56.4590 S.3     0  <0>0       -0.0768
     17  C13        4.2440   34.3160   56.7640 C.ar    0  <0>0        0.1611
     18  S2         5.2400   35.7100   56.2560 S.2     0  <0>0       -0.0242
     19  C14        6.7780   35.1830   56.9980 C.ar    0  <0>0        0.1865
     20  N3         6.4240   34.0340   57.5410 N.ar    0  <0>0       -0.1249
     21  N2         5.1280   33.5900   57.4220 N.ar    0  <0>0       -0.1331
     22  N4         8.0170   35.8130   56.9980 N.pl3   0  <0>0       -0.2913
     23  H17        8.4480   36.1780   56.0540 H       0  <0>0        0.1541
     24  C15        8.7160   35.9810   58.1950 C.ar    0  <0>0        0.0498
     25  C20        9.5880   34.9920   58.6370 C.ar    0  <0>0        0.0147
     26  C19       10.2770   35.1620   59.8220 C.ar    0  <0>0        0.0013
     27  C18       10.1010   36.3130   60.5680 C.ar    0  <0>0        0.0001
     28  C17        9.2340   37.2980   60.1310 C.ar    0  <0>0        0.0013
     29  C16        8.5460   37.1380   58.9450 C.ar    0  <0>0        0.0147
@<TRIPOS>BOND
     1    15    13    1
     2    12    11    1
     3    13    11   ar
     4    13    14   ar
     5    11    10   ar
     6    14     8   ar
     7    10     9   ar
     8     8     9   ar
     9     8     6    1
    10     6     3    1
    11     6     7    1
    12     4     3    1
    13     3     2   am
    14    23    22    1
    15     2     5    2
    16     2     1    1
    17    18    17   ar
    18    18    19   ar
    19     1    16    1
    20    16    17    1
    21    17    21   ar
    22    19    22    1
    23    19    20   ar
    24    22    24    1
    25    21    20   ar
    26    24    25   ar
    27    24    29   ar
    28    25    26   ar
    29    29    28   ar
    30    26    27   ar
    31    28    27   ar

@<TRIPOS>MOLECULE
ZINC12488079_replica-1.pdb
 29 32 0 0 0
SMALL
GASTEIGER

@<TRIPOS>ATOM
      1  C7         5.7410   35.9250   58.6870 C.2     0  <0>0        0.1269
      2  C8         6.0310   35.0850   59.7710 C.3     0  <0>0        0.1486
      3  S1         4.4580   34.2690   59.9830 S.3     0  <0>0       -0.0546
      4  C9         3.6210   35.0330   58.7400 C.2     0  <0>0        0.2110
      5  N1         4.5090   35.8550   58.2180 N.2     0  <0>0       -0.3840
      6  C14        7.2330   34.9280   60.4910 C.2     0  <0>0        0.0905
      7  N3         8.2590   34.3330   59.9320 N.2     0  <0>0       -0.2472
      8  C15        9.4250   34.1800   60.6290 C.ar    0  <0>0        0.0810
      9  C20       10.3220   35.2470   60.7390 C.ar    0  <0>0        0.0190
     10  C19       11.4940   35.0860   61.4480 C.ar    0  <0>0        0.0054
     11  C18       11.7880   33.8710   62.0390 C.ar    0  <0>0        0.0715
     12  C17       10.9070   32.8090   61.9300 C.ar    0  <0>0        0.0054
     13  C16        9.7280   32.9550   61.2290 C.ar    0  <0>0        0.0190
     14  C21       13.0730   33.7020   62.8070 C.3     0  <0>0        0.4186
     15  F1        13.0840   34.5800   63.8970 F       0  <0>0       -0.1659
     16  F2        13.1710   32.3850   63.2700 F       0  <0>0       -0.1659
     17  F3        14.1590   33.9830   61.9700 F       0  <0>0       -0.1659
     18  C4         6.7510   36.8410   58.1080 C.ar    0  <0>0        0.0267
     19  C3         7.1610   37.9710   58.8170 C.ar    0  <0>0        0.0022
     20  C2         8.1010   38.8190   58.2720 C.ar    0  <0>0        0.0001
     21  C1         8.6380   38.5530   57.0240 C.ar    0  <0>0        0.0000
     22  C6         8.2360   37.4340   56.3170 C.ar    0  <0>0        0.0001
     23  C5         7.2960   36.5780   56.8500 C.ar    0  <0>0        0.0022
     24  N2         2.3100   34.8450   58.3570 N.pl3   0  <0>0       -0.2735
     25  C13        1.2080   35.0250   59.3150 C.3     0  <0>0        0.1257
     26  C12        0.3050   33.7920   59.2580 C.3     0  <0>0        0.1637
     27  O1        -0.0670   33.5440   57.9000 O.3     0  <0>0       -0.3501
     28  C11        1.0320   33.2450   57.0370 C.3     0  <0>0        0.1637
     29  C10        1.9710   34.4550   56.9790 C.3     0  <0>0        0.1257
@<TRIPOS>BOND
     1    22    23   ar
     2    22    21   ar
     3    23    18   ar
     4    29    28    1
     5    29    24    1
     6    21    20   ar
     7    28    27    1
     8    27    26    1
     9    18     1    1
    10    18    19   ar
    11     5     1    2
    12     5     4    2
    13    20    19   ar
    14    24     4    1
    15    24    25    1
    16     1     2    1
    17     4     3    1
    18    26    25    1
    19     2     3    1
    20     2     6    1
    21     7     6    2
    22     7     8    1
    23     8     9   ar
    24     8    13   ar
    25     9    10   ar
    26    13    12   ar
    27    10    11   ar
    28    12    11   ar
    29    17    14    1
    30    11    14    1
    31    14    16    1
    32    14    15    1

@<TRIPOS>MOLECULE
ZINC06674120_replica-1.pdb
 24 25 0 0 0
SMALL
GASTEIGER

@<TRIPOS>ATOM
      1  C16       -0.1350   32.1720   61.8230 C.3     0  <0>0        0.3091
      2  C17       -0.1910   31.1310   62.8610 C.1     0  <0>0        0.1218
      3  N3        -0.2360   30.3280   63.6630 N.1     0  <0>0       -0.1920
      4  O2         0.9670   31.9150   60.9490 O.3     0  <0>0       -0.4562
      5  C12        0.6790   31.7070   59.6370 C.ar    0  <0>0        0.1738
      6  C11        0.4540   32.7900   58.7990 C.ar    0  <0>0        0.0401
      7  C10        0.1670   32.5850   57.4660 C.ar    0  <0>0        0.0049
      8  C9         0.0920   31.2860   56.9580 C.ar    0  <0>0        0.0239
      9  C14        0.3140   30.1960   57.8030 C.ar    0  <0>0        0.0416
     10  C13        0.6070   30.4080   59.1380 C.ar    0  <0>0        0.1725
     11  C8        -0.2210   31.0650   55.5350 C.2     0  <0>0        0.1176
     12  N2        -1.1880   30.2680   55.1980 N.2     0  <0>0       -0.1798
     13  N1        -1.4860   30.0590   53.8450 N.pl3   0  <0>0       -0.2359
     14  H7        -1.8580   30.7800   53.3140 H       0  <0>0        0.1744
     15  C5        -1.2470   28.8140   53.2620 C.ar    0  <0>0        0.0658
     16  C4        -1.7280   28.5380   51.9870 C.ar    0  <0>0        0.0158
     17  C3        -1.4850   27.3080   51.4100 C.ar    0  <0>0       -0.0021
     18  C2        -0.7730   26.3460   52.1030 C.ar    0  <0>0       -0.0112
     19  C1        -0.5140   25.0020   51.4710 C.3     0  <0>0        0.0319
     20  C7        -0.2960   26.6150   53.3750 C.ar    0  <0>0        0.0550
     21  C6        -0.5320   27.8460   53.9550 C.ar    0  <0>0        0.0271
     22 Cl          0.5980   25.4040   54.2390 Cl      0  <0>0       -0.0825
     23  O1         0.8240   29.3510   59.9640 O.3     0  <0>0       -0.4684
     24  C15       -0.0280   28.2140   59.7990 C.3     0  <0>0        0.2526
@<TRIPOS>BOND
     1    17    16   ar
     2    17    18   ar
     3    19    18    1
     4    16    15   ar
     5    18    20   ar
     6    15    13    1
     7    15    21   ar
     8    14    13    1
     9    20    21   ar
    10    20    22    1
    11    13    12    1
    12    12    11    2
    13    11     8    1
    14     8     7   ar
    15     8     9   ar
    16     7     6   ar
    17     9    10   ar
    18     6     5   ar
    19    10     5   ar
    20    10    23    1
    21     5     4    1
    22    24    23    1
    23     4     1    1
    24     1     2    1
    25     2     3    3

@<TRIPOS>MOLECULE
ZINC08893035_replica-1.pdb
 32 35 0 0 0
SMALL
GASTEIGER

@<TRIPOS>ATOM
      1  C9         1.1510   30.6850   57.9630 C.ar    0  <0>0        0.0632
      2  C10        0.5880   30.1280   59.1200 C.ar    0  <0>0        0.0510
      3  C11        0.6480   30.8280   60.3240 C.ar    0  <0>0        0.0158
      4  C12        1.2600   32.0650   60.3720 C.ar    0  <0>0        0.0587
      5  C13        1.8150   32.6140   59.2280 C.ar    0  <0>0        0.0240
      6  C14        1.7620   31.9310   58.0280 C.ar    0  <0>0        0.0720
      7 Cl          2.4600   32.6280   56.6000 Cl      0  <0>0       -0.0809
      8 Cl          1.3340   32.9360   61.8730 Cl      0  <0>0       -0.0822
      9  N2         1.0980   29.9930   56.7530 N.am    0  <0>0       -0.2949
     10  C8         0.1180   30.2590   55.8660 C.2     0  <0>0        0.1411
     11  S1        -1.0130   31.5020   56.1890 S.2     0  <0>0       -0.0182
     12  H6         1.7660   29.3180   56.5500 H       0  <0>0        0.1539
     13  N1         0.0310   29.5480   54.7250 N.am    0  <0>0       -0.2635
     14  C7        -0.7400   28.4430   54.6780 C.2     0  <0>0        0.2529
     15  O1        -1.3550   28.0870   55.6640 O.2     0  <0>0       -0.2697
     16  H5         0.5220   29.8310   53.9380 H       0  <0>0        0.1568
     17  C5        -0.8350   27.6630   53.4280 C.ar    0  <0>0        0.0811
     18  C4        -0.2620   26.3890   53.3490 C.ar    0  <0>0        0.1445
     19  C3        -0.3570   25.6650   52.1730 C.ar    0  <0>0        0.0298
     20  F1         0.3820   25.8680   54.4160 F       0  <0>0       -0.2040
     21  C2        -1.0160   26.1980   51.0820 C.ar    0  <0>0        0.0023
     22  C1        -1.5850   27.4590   51.1550 C.ar    0  <0>0        0.0003
     23  C6        -1.5040   28.1900   52.3200 C.ar    0  <0>0        0.0068
     24  C15       -0.0640   28.8030   59.0630 C.2     0  <0>0        0.1623
     25  S2        -1.6130   28.2830   59.7880 S.3     0  <0>0       -0.0531
     26  C21       -1.5730   26.6030   59.2140 C.2     0  <0>0        0.0574
     27  C16       -0.3520   26.5550   58.5020 C.2     0  <0>0        0.1374
     28  C20       -2.4010   25.5130   59.3360 C.2     0  <0>0       -0.0123
     29  N3         0.3510   27.7040   58.4720 N.2     0  <0>0       -0.3948
     30  C17       -0.0220   25.3120   57.9130 C.2     0  <0>0        0.0283
     31  C18       -0.8480   24.2390   58.0390 C.2     0  <0>0       -0.0188
     32  C19       -2.0410   24.3170   58.7450 C.3     0  <0>0        0.0527
@<TRIPOS>BOND
     1    21    22   ar
     2    21    19   ar
     3    22    23   ar
     4    19    18   ar
     5    23    17   ar
     6    18    17   ar
     7    18    20    1
     8    17    14    1
     9    16    13    1
    10    14    13   am
    11    14    15    2
    12    13    10    1
    13    10    11    2
    14    10     9    1
    15    12     9    1
    16     7     6    1
    17     9     1    1
    18    30    31    2
    19    30    27    1
    20     1     6   ar
    21     1     2   ar
    22     6     5   ar
    23    31    32    1
    24    29    27    2
    25    29    24    2
    26    27    26    1
    27    32    28    1
    28    24     2    1
    29    24    25    1
    30     2     3   ar
    31    26    28    2
    32    26    25    1
    33     5     4   ar
    34     3     4   ar
    35     4     8    1

@<TRIPOS>MOLECULE
ZINC41586767_replica-1.pdb
 32 36 0 0 0
SMALL
GASTEIGER

@<TRIPOS>ATOM
      1  C1         4.3390   33.1210   60.1330 C.3     0  <0>0        0.0374
      2  C2         4.1170   33.2650   58.6490 C.ar    0  <0>0        0.0465
      3  C3         2.9550   32.7710   58.0720 C.ar    0  <0>0        0.1366
      4  C4         2.7390   32.9000   56.7040 C.ar    0  <0>0        0.0280
      5  C5         3.6750   33.5130   55.9160 C.ar    0  <0>0        0.0064
      6  C6         4.8470   34.0120   56.4830 C.ar    0  <0>0        0.0762
      7  C7         5.0740   33.8960   57.8640 C.ar    0  <0>0        0.1474
      8  O1         6.2610   34.4560   58.1800 O.3     0  <0>0       -0.4504
      9  C8         6.8830   34.9650   57.0910 C.2     0  <0>0        0.1840
     10  C9         8.0880   35.5900   57.0740 C.2     0  <0>0        0.0408
     11  C16        6.0220   34.7070   55.9270 C.2     0  <0>0        0.2327
     12  O2         6.2280   35.0110   54.7640 O.2     0  <0>0       -0.2832
     13  C17        1.4760   32.3740   56.0700 C.3     0  <0>0        0.1051
     14  N1         0.8300   31.4180   56.9800 N.3     0  <0>0       -0.2313
     15  C18        0.7200   31.9980   58.3290 C.3     0  <0>0        0.2848
     16  O3         2.0350   32.1610   58.8650 O.3     0  <0>0       -0.4586
     17  C19       -0.4880   31.0160   56.4710 C.3     0  <0>0        0.0805
     18  C20       -0.5120   31.1600   54.9480 C.3     0  <0>0        0.0446
     19  C21       -0.4800   29.7930   54.3130 C.ar    0  <0>0       -0.0102
     20  C26       -1.4470   29.4370   53.3900 C.ar    0  <0>0        0.0537
     21  C25       -1.4140   28.1830   52.8050 C.ar    0  <0>0        0.0111
     22 Cl         -2.6950   30.5640   52.9610 Cl      0  <0>0       -0.0826
     23  C24       -0.4230   27.2850   53.1510 C.ar    0  <0>0        0.0008
     24  C23        0.5400   27.6400   54.0770 C.ar    0  <0>0       -0.0003
     25  C22        0.5110   28.8930   54.6590 C.ar    0  <0>0       -0.0034
     26  C10        8.7890   35.8670   58.3350 C.ar    0  <0>0        0.0033
     27  C15        9.7000   34.9370   58.8520 C.ar    0  <0>0        0.0024
     28  C14       10.3580   35.2060   60.0310 C.ar    0  <0>0        0.0296
     29  C13       10.1130   36.3890   60.7130 C.ar    0  <0>0        0.1401
     30  C12        9.2090   37.3120   60.2090 C.ar    0  <0>0        0.0296
     31  F1        10.7580   36.6430   61.8720 F       0  <0>0       -0.2042
     32  C11        8.5470   37.0590   59.0270 C.ar    0  <0>0        0.0024
@<TRIPOS>BOND
     1    21    23   ar
     2    21    20   ar
     3    22    20    1
     4    23    24   ar
     5    20    19   ar
     6    24    25   ar
     7    19    25   ar
     8    19    18    1
     9    12    11    2
    10    18    17    1
    11     5     6   ar
    12     5     4   ar
    13    11     6    1
    14    11     9    1
    15    13     4    1
    16    13    14    1
    17    17    14    1
    18     6     7   ar
    19     4     3   ar
    20    14    15    1
    21    10     9    2
    22    10    26    1
    23     9     8    1
    24     7     8    1
    25     7     2   ar
    26     3     2   ar
    27     3    16    1
    28    15    16    1
    29    26    27   ar
    30    26    32   ar
    31     2     1    1
    32    27    28   ar
    33    32    30   ar
    34    28    29   ar
    35    30    29   ar
    36    29    31    1

@<TRIPOS>MOLECULE
ZINC25425130_replica-1.pdb
 27 29 0 0 0
SMALL
GASTEIGER

@<TRIPOS>ATOM
      1  C7         6.1660   34.2710   60.1110 C.2     0  <0>0        0.2718
      2  O1         5.4450   35.0540   60.6930 O.2     0  <0>0       -0.2706
      3  N4         7.4620   34.5770   59.9000 N.am    0  <0>0       -0.2952
      4  H10        8.0380   33.9500   59.4350 H       0  <0>0        0.1501
      5  C8         8.0000   35.8550   60.3720 C.3     0  <0>0        0.1170
      6  C9         9.3650   35.6350   60.9700 C.ar    0  <0>0       -0.0003
      7  C14        9.9950   36.6590   61.6520 C.ar    0  <0>0       -0.0024
      8  C13       11.2470   36.4550   62.2040 C.ar    0  <0>0       -0.0003
      9  C12       11.8710   35.2300   62.0660 C.ar    0  <0>0       -0.0000
     10  C11       11.2450   34.2080   61.3790 C.ar    0  <0>0       -0.0003
     11  C10        9.9910   34.4090   60.8310 C.ar    0  <0>0       -0.0024
     12  C15        8.1060   36.8130   59.2150 C.ar    0  <0>0       -0.0003
     13  C20        8.6310   36.3860   58.0090 C.ar    0  <0>0       -0.0024
     14  C19        8.7250   37.2640   56.9460 C.ar    0  <0>0       -0.0003
     15  C18        8.3010   38.5720   57.0910 C.ar    0  <0>0       -0.0000
     16  C17        7.7810   39.0010   58.2980 C.ar    0  <0>0       -0.0003
     17  C16        7.6830   38.1210   59.3590 C.ar    0  <0>0       -0.0024
     18  C6         5.6130   32.9560   59.6250 C.3     0  <0>0        0.3017
     19  N3         5.9870   32.7580   58.2220 N.am    0  <0>0       -0.1093
     20  C4         5.4730   33.4040   57.1310 C.2     0  <0>0        0.3408
     21  N1         6.0850   32.9360   56.0800 N.2     0  <0>0        0.0876
     22  N2         6.9390   32.0410   56.4290 N.2     0  <0>0        0.0470
     23  C5         6.9190   31.8890   57.7330 C.1     0  <0>0        0.1798
     24  S1         7.9120   30.7790   58.6730 S.2     0  <0>0        0.0561
     25  C3         4.4040   34.4660   57.1440 C.3     0  <0>0        0.1209
     26  C2         5.0580   35.8470   57.2220 C.3     0  <0>0        0.0128
     27  C1         5.1990   36.4250   55.8120 C.3     0  <0>0        0.0006
@<TRIPOS>BOND
     1    27    26    1
     2    21    22    1
     3    21    20    2
     4    22    23    2
     5    14    15   ar
     6    14    13   ar
     7    15    16   ar
     8    20    25    1
     9    20    19    1
    10    25    26    1
    11    23    19    1
    12    23    24    2
    13    13    12   ar
    14    19    18    1
    15    16    17   ar
    16    12    17   ar
    17    12     5    1
    18     4     3    1
    19    18     1    1
    20     3     1   am
    21     3     5    1
    22     1     2    2
    23     5     6    1
    24    11     6   ar
    25    11    10   ar
    26     6     7   ar
    27    10     9   ar
    28     7     8   ar
    29     9     8   ar

@<TRIPOS>MOLECULE
ZINC19888254_replica-1.pdb
 27 30 0 0 0
SMALL
GASTEIGER

@<TRIPOS>ATOM
      1  C10        6.5310   37.3370   59.2430 C.3     0  <0>0        0.0923
      2  C11        7.4620   37.0660   58.0730 C.3     0  <0>0        0.0262
      3  C12        6.8110   36.7080   56.7300 C.3     0  <0>0        0.0023
      4  C13        7.8830   35.8210   56.0960 C.3     0  <0>0        0.0004
      5  C14        8.6230   35.2540   57.0420 C.3     0  <0>0        0.0045
      6  C15        8.1020   35.6760   58.3670 C.3     0  <0>0        0.0255
      7  C16        8.9820   35.8180   59.5460 C.ar    0  <0>0       -0.0071
      8  C17       10.1560   35.1090   59.6830 C.ar    0  <0>0        0.0266
      9  C18       10.9350   35.2600   60.8180 C.ar    0  <0>0        0.1399
     10  C19       10.5340   36.1280   61.8200 C.ar    0  <0>0        0.0309
     11  C20        9.3660   36.8480   61.6860 C.ar    0  <0>0        0.0163
     12  C21        8.5790   36.7050   60.5500 C.ar    0  <0>0        0.0409
     13  N1         7.4060   37.4630   60.4290 N.pl3   0  <0>0       -0.3308
     14  F1        12.0860   34.5640   60.9450 F       0  <0>0       -0.2042
     15  H22        7.1400   38.1620   61.2360 H       0  <0>0        0.1471
     16  C4         5.5740   36.1880   59.4220 C.ar    0  <0>0        0.0017
     17  C3         5.8100   35.2390   60.3990 C.ar    0  <0>0        0.0376
     18  C2         4.9310   34.1810   60.5690 C.ar    0  <0>0        0.1752
     19  C7         3.8100   34.0740   59.7530 C.ar    0  <0>0        0.2060
     20  C6         3.5750   35.0290   58.7730 C.ar    0  <0>0        0.1752
     21  C5         4.4570   36.0880   58.6140 C.ar    0  <0>0        0.0376
     22  O1         5.1640   33.2480   61.5310 O.3     0  <0>0       -0.4683
     23  C1         6.0600   32.1850   61.2010 C.3     0  <0>0        0.2526
     24  O2         2.9440   33.0360   59.9170 O.3     0  <0>0       -0.4654
     25  C8         1.8840   33.2170   60.8580 C.3     0  <0>0        0.2528
     26  O3         2.4800   34.9290   57.9720 O.3     0  <0>0       -0.4683
     27  C9         2.1040   36.0960   57.2390 C.3     0  <0>0        0.2526
@<TRIPOS>BOND
     1     4     3    1
     2     4     5    1
     3     3     2    1
     4     5     6    1
     5    27    26    1
     6    26    20    1
     7     2     6    1
     8     2     1    1
     9     6     7    1
    10    21    20   ar
    11    21    16   ar
    12    20    19   ar
    13     1    16    1
    14     1    13    1
    15    16    17   ar
    16     7     8   ar
    17     7    12   ar
    18     8     9   ar
    19    19    24    1
    20    19    18   ar
    21    24    25    1
    22    17    18   ar
    23    13    12    1
    24    13    15    1
    25    12    11   ar
    26    18    22    1
    27     9    14    1
    28     9    10   ar
    29    23    22    1
    30    11    10   ar

@<TRIPOS>MOLECULE
ZINC02727636_replica-1.pdb
 36 39 0 0 0
SMALL
GASTEIGER

@<TRIPOS>ATOM
      1  C15        4.2480   33.6100   58.0160 C.3     0  <0>0        0.0576
      2  C16        3.2970   34.0940   59.1130 C.3     0  <0>0        0.0291
      3  C17        2.4680   35.2720   58.6610 C.3     0  <0>0        0.0051
      4  C18        1.0830   34.8840   58.2150 C.3     0  <0>0        0.0050
      5  C19        0.3770   34.1850   59.3860 C.3     0  <0>0        0.0257
      6  C20        1.1740   32.9540   59.7330 C.2     0  <0>0       -0.0297
      7  C21        2.4820   32.9240   59.5800 C.2     0  <0>0       -0.0158
      8  C22        3.2120   31.6530   59.8300 C.2     0  <0>0        0.0749
      9  C23        4.4780   31.5090   59.3620 C.2     0  <0>0        0.0545
     10  C24        5.2090   32.5810   58.6110 C.3     0  <0>0        0.1921
     11  C25        5.9840   31.9620   57.5240 C.1     0  <0>0        0.0913
     12  N1         6.5830   31.4840   56.6850 N.1     0  <0>0       -0.1945
     13  C26        6.1350   33.2640   59.5300 C.1     0  <0>0        0.0913
     14  N2         6.8490   33.7910   60.2400 N.1     0  <0>0       -0.1945
     15  C27        2.5870   30.5920   60.5600 C.1     0  <0>0        0.1011
     16  N4         2.0900   29.7490   61.1390 N.1     0  <0>0       -0.1908
     17  C5         5.0310   34.7790   57.4760 C.ar    0  <0>0       -0.0240
     18  C4         5.0680   35.0150   56.1140 C.ar    0  <0>0       -0.0261
     19  C3         5.7860   36.0870   55.6180 C.ar    0  <0>0       -0.0090
     20  C28        4.3250   34.1060   55.1710 C.3     0  <0>0        0.0307
     21  C2         6.4660   36.9230   56.4840 C.ar    0  <0>0       -0.0227
     22  C1         7.2500   38.0920   55.9450 C.3     0  <0>0        0.0308
     23  C7         6.4290   36.6860   57.8460 C.ar    0  <0>0        0.0169
     24  C6         5.7150   35.6110   58.3410 C.ar    0  <0>0       -0.0055
     25  C8         7.1710   37.5980   58.7890 C.3     0  <0>0        0.2317
     26  O1         8.5760   37.4780   58.5590 O.3     0  <0>0       -0.4698
     27  C9         9.2860   36.7370   59.4510 C.ar    0  <0>0        0.1495
     28  C14        9.6570   35.4370   59.1350 C.ar    0  <0>0        0.0915
     29  C13       10.3790   34.6860   60.0430 C.ar    0  <0>0        0.0145
     30 Cl          9.2150   34.7560   57.5990 Cl      0  <0>0       -0.0791
     31  C12       10.7260   35.2260   61.2670 C.ar    0  <0>0        0.0011
     32  C11       10.3620   36.5220   61.5810 C.ar    0  <0>0        0.0032
     33  C10        9.6400   37.2780   60.6770 C.ar    0  <0>0        0.0378
     34  N3         5.1190   30.3230   59.5850 N.pl3   0  <0>0       -0.3582
     35  H21        5.5300   29.7530   58.7400 H       0  <0>0        0.1421
     36  H22        5.2240   29.9390   60.6100 H       0  <0>0        0.1421
@<TRIPOS>BOND
     1    20    18    1
     2    19    18   ar
     3    19    21   ar
     4    22    21    1
     5    18    17   ar
     6    21    23   ar
     7    12    11    3
     8    17     1    1
     9    17    24   ar
    10    11    10    1
    11    30    28    1
    12    23    24   ar
    13    23    25    1
    14     1    10    1
    15     1     2    1
    16     4     3    1
    17     4     5    1
    18    26    25    1
    19    26    27    1
    20    10     9    1
    21    10    13    1
    22     3     2    1
    23    35    34    1
    24     2     7    1
    25    28    27   ar
    26    28    29   ar
    27     9    34    1
    28     9     8    2
    29     5     6    1
    30    27    33   ar
    31    13    14    3
    32     7     6    2
    33     7     8    1
    34    34    36    1
    35     8    15    1
    36    29    31   ar
    37    15    16    3
    38    33    32   ar
    39    31    32   ar

@<TRIPOS>MOLECULE
ZINC12621845_replica-1.pdb
 32 36 0 0 0
SMALL
GASTEIGER

@<TRIPOS>ATOM
      1  C17        9.1190   34.4160   58.4140 C.2     0  <0>0        0.0146
      2  C18        9.0120   34.5990   59.7800 C.2     0  <0>0        0.1042
      3  C19        7.9070   35.3320   60.3190 C.1     0  <0>0        0.1035
      4  N2         7.0310   35.9150   60.7480 N.1     0  <0>0       -0.1907
      5  C20       10.0340   34.0400   60.6800 C.2     0  <0>0        0.1706
      6  S1         9.9950   32.5150   61.6110 S.3     0  <0>0       -0.0525
      7  C26       11.5920   32.6770   62.3720 C.2     0  <0>0        0.0575
      8  C21       12.0520   33.9100   61.8510 C.2     0  <0>0        0.1375
      9  C25       12.3370   31.9190   63.2410 C.2     0  <0>0       -0.0123
     10  N3        11.2110   34.5370   61.0050 N.2     0  <0>0       -0.3942
     11  C22       13.3340   34.3290   62.2800 C.2     0  <0>0        0.0283
     12  C23       14.0600   33.5740   63.1450 C.2     0  <0>0       -0.0188
     13  C24       13.5820   32.3680   63.6400 C.3     0  <0>0        0.0527
     14  C3         8.1380   34.9530   57.5500 C.ar    0  <0>0        0.0144
     15  C2         7.1040   34.2450   56.9160 C.ar    0  <0>0       -0.0012
     16  C1         6.8360   32.7660   57.0310 C.3     0  <0>0        0.0327
     17  C9         6.3760   35.1510   56.1700 C.ar    0  <0>0        0.0992
     18  N1         6.9390   36.4070   56.3180 N.ar    0  <0>0       -0.3025
     19  C4         8.0140   36.3090   57.1540 C.ar    0  <0>0        0.0638
     20  C8         6.5930   37.6130   55.7870 C.ar    0  <0>0        0.0801
     21  C5         8.7630   37.4460   57.4710 C.ar    0  <0>0        0.0176
     22  C6         8.4090   38.6530   56.9330 C.ar    0  <0>0        0.0030
     23  C7         7.3030   38.7260   56.0780 C.ar    0  <0>0        0.0190
     24  C10        5.2410   34.8440   55.3780 C.2     0  <0>0        0.2112
     25  O1         5.3770   34.5790   54.1970 O.2     0  <0>0       -0.2850
     26  C11        3.8940   34.8430   55.9850 C.ar    0  <0>0        0.0406
     27  C16        3.1580   33.6580   56.0560 C.ar    0  <0>0        0.0055
     28  C15        1.9020   33.6640   56.6240 C.ar    0  <0>0        0.0297
     29  C14        1.3690   34.8430   57.1240 C.ar    0  <0>0        0.1401
     30  C13        2.0960   36.0210   57.0550 C.ar    0  <0>0        0.0297
     31  F1         0.1370   34.8430   57.6790 F       0  <0>0       -0.2042
     32  C12        3.3550   36.0260   56.4950 C.ar    0  <0>0        0.0055
@<TRIPOS>BOND
     1    25    24    2
     2    24    26    1
     3    24    17    1
     4    20    23   ar
     5    20    18   ar
     6    26    27   ar
     7    26    32   ar
     8    27    28   ar
     9    23    22   ar
    10    17    18   ar
    11    17    15   ar
    12    18    19   ar
    13    32    30   ar
    14    28    29   ar
    15    15    16    1
    16    15    14   ar
    17    22    21   ar
    18    30    29   ar
    19    29    31    1
    20    19    21   ar
    21    19    14   ar
    22    14     1    1
    23     1     2    2
    24     2     3    1
    25     2     5    1
    26     3     4    3
    27     5    10    2
    28     5     6    1
    29    10     8    2
    30     6     7    1
    31     8    11    1
    32     8     7    1
    33    11    12    2
    34     7     9    2
    35    12    13    1
    36     9    13    1

@<TRIPOS>MOLECULE
ZINC05559993_replica-1.pdb
 26 28 0 0 0
SMALL
GASTEIGER

@<TRIPOS>ATOM
      1  C7         0.0670   28.3570   54.8710 C.3     0  <0>0        0.0874
      2  C4        -0.8650   27.9930   55.9970 C.ar    0  <0>0       -0.0127
      3  C3        -2.0500   28.6860   56.1640 C.ar    0  <0>0       -0.0036
      4  C2        -2.9060   28.3520   57.1980 C.ar    0  <0>0       -0.0003
      5  C1        -2.5760   27.3250   58.0630 C.ar    0  <0>0       -0.0000
      6  C6        -1.3920   26.6330   57.8960 C.ar    0  <0>0       -0.0003
      7  C5        -0.5390   26.9640   56.8590 C.ar    0  <0>0       -0.0036
      8  C8         0.1670   29.8580   54.7670 C.2     0  <0>0        0.0995
      9  N1         0.9300   30.5060   55.5650 N.2     0  <0>0       -0.1838
     10  N2         1.0220   31.9000   55.4670 N.pl3   0  <0>0       -0.2346
     11  H8         1.0490   32.3250   54.5960 H       0  <0>0        0.1745
     12  C9         1.0740   32.6790   56.6260 C.ar    0  <0>0        0.0874
     13  C14        2.2450   33.3470   56.9640 C.ar    0  <0>0        0.1575
     14  C13        2.2940   34.1110   58.1130 C.ar    0  <0>0        0.0254
     15  C12        1.1760   34.2230   58.9200 C.ar    0  <0>0        0.0018
     16  C11        0.0090   33.5590   58.5850 C.ar    0  <0>0        0.0014
     17  C10       -0.0450   32.7880   57.4420 C.ar    0  <0>0        0.0177
     18  N3         3.4400   33.2330   56.0970 N.pl3   0  <0>0        0.0590
     19  O1         3.5010   33.8670   55.0590 O.2     0  <0>0       -0.1261
     20  O2         4.3630   32.5090   56.4250 O.2     0  <0>0       -0.1261
     21  C15       -0.4660   27.7990   53.5760 C.ar    0  <0>0       -0.0127
     22  C20       -0.1590   26.5030   53.2040 C.ar    0  <0>0       -0.0036
     23  C19       -0.6490   25.9910   52.0170 C.ar    0  <0>0       -0.0003
     24  C18       -1.4450   26.7730   51.2020 C.ar    0  <0>0       -0.0000
     25  C17       -1.7510   28.0690   51.5740 C.ar    0  <0>0       -0.0003
     26  C16       -1.2660   28.5800   52.7640 C.ar    0  <0>0       -0.0036
@<TRIPOS>BOND
     1    24    25   ar
     2    24    23   ar
     3    25    26   ar
     4    23    22   ar
     5    26    21   ar
     6    22    21   ar
     7    21     1    1
     8    11    10    1
     9     8     1    1
    10     8     9    2
    11     1     2    1
    12    19    18    2
    13    10     9    1
    14    10    12    1
    15     2     3   ar
    16     2     7   ar
    17    18    20    2
    18    18    13    1
    19     3     4   ar
    20    12    13   ar
    21    12    17   ar
    22     7     6   ar
    23    13    14   ar
    24     4     5   ar
    25    17    16   ar
    26     6     5   ar
    27    14    15   ar
    28    16    15   ar

@<TRIPOS>MOLECULE
ZINC04955936_replica-1.pdb
 23 25 0 0 0
SMALL
GASTEIGER

@<TRIPOS>ATOM
      1  C5         0.0770   31.5520   57.0110 C.2     0  <0>0        0.0235
      2  C6         0.2700   30.2500   57.0160 C.2     0  <0>0        0.0002
      3  C7        -1.0330   29.6190   56.5710 C.3     0  <0>0        0.1259
      4  C8        -1.9400   30.8060   56.3240 C.2     0  <0>0        0.2365
      5  O1        -3.0930   30.7830   55.9480 O.2     0  <0>0       -0.2738
      6  N1        -1.2000   31.8960   56.6100 N.am    0  <0>0       -0.2869
      7  H11       -1.5230   32.8080   56.5420 H       0  <0>0        0.1546
      8  C9        -1.5970   28.7370   57.6560 C.ar    0  <0>0       -0.0070
      9  C14       -1.1320   28.8550   58.9530 C.ar    0  <0>0       -0.0032
     10  C13       -1.6490   28.0470   59.9480 C.ar    0  <0>0       -0.0003
     11  C12       -2.6300   27.1210   59.6470 C.ar    0  <0>0       -0.0000
     12  C11       -3.0940   27.0030   58.3500 C.ar    0  <0>0       -0.0003
     13  C10       -2.5810   27.8140   57.3560 C.ar    0  <0>0       -0.0032
     14  C15       -0.8330   28.8310   55.3010 C.ar    0  <0>0       -0.0070
     15  C20       -1.4710   29.2220   54.1380 C.ar    0  <0>0       -0.0032
     16  C19       -1.2870   28.5010   52.9740 C.ar    0  <0>0       -0.0003
     17  C18       -0.4660   27.3890   52.9720 C.ar    0  <0>0       -0.0000
     18  C17        0.1720   26.9980   54.1350 C.ar    0  <0>0       -0.0003
     19  C16       -0.0070   27.7230   55.2980 C.ar    0  <0>0       -0.0032
     20  C2         1.1340   32.5570   57.3940 C.3     0  <0>0        0.0311
     21  C1         0.4670   33.8860   57.7540 C.3     0  <0>0        0.0056
     22  C3         2.0880   32.7680   56.2170 C.3     0  <0>0        0.0056
     23  C4         1.9190   32.0370   58.6000 C.3     0  <0>0        0.0056
@<TRIPOS>BOND
     1    17    16   ar
     2    17    18   ar
     3    16    15   ar
     4    18    19   ar
     5    15    14   ar
     6    19    14   ar
     7    14     3    1
     8     5     4    2
     9    22    20    1
    10     4     3    1
    11     4     6   am
    12     7     6    1
    13     3     2    1
    14     3     8    1
    15     6     1    1
    16     1     2    2
    17     1    20    1
    18    13     8   ar
    19    13    12   ar
    20    20    21    1
    21    20    23    1
    22     8     9   ar
    23    12    11   ar
    24     9    10   ar
    25    11    10   ar

@<TRIPOS>MOLECULE
ZINC05370640_replica-1.pdb
 32 34 0 0 0
SMALL
GASTEIGER

@<TRIPOS>ATOM
      1  C4         7.9090   35.7860   57.3720 C.3     0  <0>0        0.1155
      2  C5         6.3960   35.9740   57.5100 C.3     0  <0>0        0.0337
      3  C6         5.8660   35.0210   58.5860 C.3     0  <0>0        0.0245
      4  C7         6.2430   33.5850   58.2100 C.3     0  <0>0        0.0362
      5  C8         7.7620   33.4890   58.0450 C.3     0  <0>0        0.1424
      6  O1         8.1920   34.4230   57.0520 O.3     0  <0>0       -0.3562
      7  C9         6.4900   35.3760   59.9380 C.3     0  <0>0       -0.0190
      8  C10        6.5190   36.8970   60.1010 C.3     0  <0>0       -0.0809
      9  N2         7.5680   37.2580   61.0730 N.4     0  <0>0        0.3865
     10  H38        7.6760   36.4980   61.7540 H       0  <0>0       -0.0840
     11  H39        7.2940   38.1190   61.5620 H       0  <0>0       -0.0840
     12  C11        8.8520   37.4800   60.3810 C.3     0  <0>0       -0.0543
     13  C12        9.8690   36.4970   60.9010 C.ar    0  <0>0       -0.0436
     14  C17       10.6280   36.8130   62.0130 C.ar    0  <0>0       -0.0051
     15  C16       11.5620   35.9140   62.4920 C.ar    0  <0>0        0.0141
     16  C15       11.7360   34.6920   61.8560 C.ar    0  <0>0        0.0479
     17  C14       10.9720   34.3780   60.7400 C.ar    0  <0>0        0.0141
     18  C13       10.0370   35.2790   60.2690 C.ar    0  <0>0       -0.0051
     19  N1        12.6790   33.7810   62.3380 N.pl3   0  <0>0       -0.3041
     20  C18       14.1090   34.0750   62.2200 C.3     0  <0>0        0.1122
     21  C19       12.2370   32.5310   62.9600 C.3     0  <0>0        0.1122
     22  C20        4.3670   35.1430   58.6740 C.ar    0  <0>0        0.0112
     23  C25        3.6720   34.4610   59.6610 C.ar    0  <0>0        0.1347
     24  C24        2.2910   34.5760   59.7390 C.ar    0  <0>0        0.0366
     25  C23        1.6130   35.3700   58.8330 C.ar    0  <0>0        0.0031
     26  C22        2.3090   36.0480   57.8510 C.ar    0  <0>0       -0.0001
     27  C21        3.6850   35.9400   57.7740 C.ar    0  <0>0       -0.0013
     28  O2         4.3400   33.6810   60.5500 O.3     0  <0>0       -0.4717
     29  C26        3.7800   32.3980   60.8370 C.3     0  <0>0        0.2525
     30  C2         8.4360   36.6920   56.2570 C.3     0  <0>0        0.0272
     31  C1         7.4940   36.6180   55.0530 C.3     0  <0>0        0.0025
     32  C3         8.5060   38.1350   56.7610 C.3     0  <0>0        0.0025
@<TRIPOS>BOND
     1    31    30    1
     2    30    32    1
     3    30     1    1
     4     6     1    1
     5     6     5    1
     6     1     2    1
     7     2     3    1
     8    27    26   ar
     9    27    22   ar
    10    26    25   ar
    11     5     4    1
    12     4     3    1
    13     3    22    1
    14     3     7    1
    15    22    23   ar
    16    25    24   ar
    17    23    24   ar
    18    23    28    1
    19     7     8    1
    20     8     9    1
    21    18    17   ar
    22    18    13   ar
    23    12    13    1
    24    12     9    1
    25    28    29    1
    26    17    16   ar
    27    13    14   ar
    28     9    11    1
    29     9    10    1
    30    16    19    1
    31    16    15   ar
    32    14    15   ar
    33    20    19    1
    34    19    21    1

@<TRIPOS>MOLECULE
CHEMBL385214_replica-1.pdb
 23 25 0 0 0
SMALL
GASTEIGER

@<TRIPOS>ATOM
      1  C8        10.2850   36.7350   61.1660 C.3     0  <0>0        0.1056
      2  C9         8.9030   36.7630   61.8600 C.3     0  <0>0        0.0961
      3  C10        7.9140   36.8050   60.7150 C.2     0  <0>0        0.2261
      4  O2         6.7460   37.1130   60.8170 O.2     0  <0>0       -0.2749
      5  N2         8.5200   36.4500   59.5680 N.am    0  <0>0       -0.2807
      6  C11        9.9350   36.1280   59.7900 C.3     0  <0>0        0.1029
      7  C7        11.2470   35.8510   61.9170 C.2     0  <0>0        0.2278
      8  N1        11.6540   34.6860   61.3750 N.am    0  <0>0       -0.2839
      9  H5        11.3890   34.4520   60.4720 H       0  <0>0        0.1549
     10  O1        11.6550   36.1880   63.0080 O.2     0  <0>0       -0.2747
     11  C3        12.4580   33.8130   62.1160 C.ar    0  <0>0        0.0508
     12  C2        13.8030   34.1020   62.3100 C.ar    0  <0>0        0.0147
     13  C1        14.5950   33.2380   63.0420 C.ar    0  <0>0        0.0018
     14  C6        14.0500   32.0870   63.5820 C.ar    0  <0>0        0.0068
     15  C5        12.7110   31.7970   63.3900 C.ar    0  <0>0        0.0358
     16  C4        11.9140   32.6560   62.6590 C.ar    0  <0>0        0.0214
     17 Br         11.9710   30.2220   64.1300 Br      0  <0>0       -0.0490
     18  C12        7.8520   36.3930   58.2650 C.3     0  <0>0        0.0753
     19  C17        8.0950   37.7000   57.5100 C.3     0  <0>0        0.0198
     20  C16        7.3980   37.6400   56.1490 C.3     0  <0>0        0.0017
     21  C15        7.9620   36.4710   55.3390 C.3     0  <0>0        0.0001
     22  C14        7.7190   35.1630   56.0950 C.3     0  <0>0        0.0017
     23  C13        8.4160   35.2230   57.4560 C.3     0  <0>0        0.0198
@<TRIPOS>BOND
     1    21    22    1
     2    21    20    1
     3    22    23    1
     4    20    19    1
     5    23    18    1
     6    19    18    1
     7    18     5    1
     8     5     6    1
     9     5     3   am
    10     6     1    1
    11     9     8    1
    12     3     4    2
    13     3     2    1
    14     1     2    1
    15     1     7    1
    16     8     7   am
    17     8    11    1
    18     7    10    2
    19    11    12   ar
    20    11    16   ar
    21    12    13   ar
    22    16    15   ar
    23    13    14   ar
    24    15    14   ar
    25    15    17    1

@<TRIPOS>MOLECULE
ZINC58202995_replica-1.pdb
 27 30 0 0 0
SMALL
GASTEIGER

@<TRIPOS>ATOM
      1  C9         5.9570   35.4510   58.4250 C.2     0  <0>0        0.2130
      2  C10        6.6810   36.3140   57.5630 C.3     0  <0>0        0.1448
      3  C11        8.0460   36.8140   57.6810 C.2     0  <0>0       -0.0011
      4  C12        8.5230   37.6380   56.7180 C.2     0  <0>0        0.0332
      5  S1         7.1540   37.7950   55.5880 S.3     0  <0>0       -0.0717
      6  C13        5.9810   36.7590   56.4230 C.2     0  <0>0        0.0977
      7  N1         4.7380   36.3860   56.1900 N.2     0  <0>0       -0.2412
      8  C14        4.1160   35.5810   57.0290 C.3     0  <0>0        0.2533
      9  N2         4.7150   35.1210   58.1140 N.2     0  <0>0       -0.2137
     10  O1         6.5330   34.9630   59.5500 O.3     0  <0>0       -0.4395
     11  C7         6.4800   33.6230   59.7640 C.ar    0  <0>0        0.1466
     12  C6         5.9130   33.1280   60.9290 C.ar    0  <0>0        0.0375
     13  C5         5.8590   31.7630   61.1450 C.ar    0  <0>0        0.0029
     14  C4         6.3710   30.8930   60.2010 C.ar    0  <0>0       -0.0018
     15  C3         6.9370   31.3840   59.0380 C.ar    0  <0>0        0.0073
     16  C8         6.9980   32.7470   58.8210 C.ar    0  <0>0        0.0356
     17  C2         7.4950   30.4320   58.0120 C.3     0  <0>0        0.1329
     18  C1         7.0300   29.0090   58.3290 C.3     0  <0>0        0.0367
     19  O2         7.0300   30.8070   56.7130 O.3     0  <0>0       -0.3801
     20  H15        6.4770   31.5990   56.7070 H       0  <0>0        0.2108
     21  C15        8.8970   36.4270   58.8310 C.ar    0  <0>0       -0.0026
     22  C20        8.9470   37.2340   59.9670 C.ar    0  <0>0        0.0006
     23  C19        9.7380   36.8650   61.0380 C.ar    0  <0>0        0.0114
     24  C18       10.4870   35.7030   60.9800 C.ar    0  <0>0        0.0577
     25  C17       10.4440   34.9010   59.8520 C.ar    0  <0>0        0.0114
     26 Cl         11.4840   35.2490   62.3270 Cl      0  <0>0       -0.0822
     27  C16        9.6540   35.2570   58.7790 C.ar    0  <0>0        0.0006
@<TRIPOS>BOND
     1     5     6    1
     2     5     4    1
     3     7     6    2
     4     7     8    1
     5     6     2    1
     6    20    19    1
     7    19    17    1
     8     4     3    2
     9     8     9    1
    10     2     3    1
    11     2     1    1
    12     3    21    1
    13    17    18    1
    14    17    15    1
    15     9     1    2
    16     1    10    1
    17    27    21   ar
    18    27    25   ar
    19    16    15   ar
    20    16    11   ar
    21    21    22   ar
    22    15    14   ar
    23    10    11    1
    24    11    12   ar
    25    25    24   ar
    26    22    23   ar
    27    14    13   ar
    28    12    13   ar
    29    24    23   ar
    30    24    26    1

@<TRIPOS>MOLECULE
ZINC67321422_replica-1.pdb
 27 30 0 0 0
SMALL
GASTEIGER

@<TRIPOS>ATOM
      1  N2        -0.2270   30.3780   54.6790 N.2     0  <0>0       -0.2437
      2  C12       -1.0290   29.3480   54.6350 C.2     0  <0>0        0.1018
      3  C4         0.0970   30.9400   55.8840 C.ar    0  <0>0        0.0811
      4  C3         1.1120   31.8970   55.9580 C.ar    0  <0>0        0.0161
      5  C2         1.4360   32.4620   57.1730 C.ar    0  <0>0       -0.0070
      6  C1         2.5300   33.4950   57.2550 C.3     0  <0>0        0.0324
      7  C7         0.7580   32.0750   58.3240 C.ar    0  <0>0        0.0440
      8  C6        -0.2560   31.1270   58.2520 C.ar    0  <0>0        0.0157
      9  C5        -0.5860   30.5580   57.0420 C.ar    0  <0>0        0.0203
     10  N1         1.0930   32.6450   59.5540 N.pl3   0  <0>0       -0.3030
     11  C11        1.8670   31.8900   60.5520 C.3     0  <0>0        0.1231
     12  C10        1.1400   31.9710   61.8950 C.3     0  <0>0        0.1636
     13  O1         0.8690   33.3400   62.2040 O.3     0  <0>0       -0.3501
     14  C9         0.0040   33.9910   61.2700 C.3     0  <0>0        0.1636
     15  C8         0.6780   34.0160   59.8930 C.3     0  <0>0        0.1231
     16  C13       -1.3770   28.7460   53.3440 C.ar    0  <0>0        0.0528
     17  C22       -2.1480   29.4480   52.4140 C.ar    0  <0>0        0.1351
     18  C21       -2.4700   28.8700   51.1860 C.ar    0  <0>0        0.0367
     19  C20       -2.0620   27.6170   50.8550 C.ar    0  <0>0        0.0031
     20  C19       -1.2880   26.8520   51.7470 C.ar    0  <0>0        0.0002
     21  C14       -0.9300   27.3950   53.0040 C.ar    0  <0>0        0.0044
     22  C18       -0.8610   25.5560   51.4140 C.ar    0  <0>0        0.0000
     23  C15       -0.1600   26.6360   53.8930 C.ar    0  <0>0        0.0001
     24  C16        0.2360   25.3800   53.5380 C.ar    0  <0>0        0.0000
     25  C17       -0.1140   24.8430   52.3020 C.ar    0  <0>0        0.0000
     26  O2        -2.5810   30.7000   52.7040 O.3     0  <0>0       -0.5055
     27  H22       -1.9560   31.3980   52.4660 H       0  <0>0        0.2922
@<TRIPOS>BOND
     1    19    18   ar
     2    19    20   ar
     3    18    17   ar
     4    22    20   ar
     5    22    25   ar
     6    20    21   ar
     7    25    24   ar
     8    17    26    1
     9    17    16   ar
    10    27    26    1
    11    21    16   ar
    12    21    23   ar
    13    16     2    1
    14    24    23   ar
    15     2     1    2
    16     1     3    1
    17     3     4   ar
    18     3     9   ar
    19     4     5   ar
    20     9     8   ar
    21     5     6    1
    22     5     7   ar
    23     8     7   ar
    24     7    10    1
    25    10    15    1
    26    10    11    1
    27    15    14    1
    28    11    12    1
    29    14    13    1
    30    12    13    1

@<TRIPOS>MOLECULE
ZINC13645386_replica-1.pdb
 33 37 0 0 0
SMALL
GASTEIGER

@<TRIPOS>ATOM
      1  C9        -0.6400   30.8680   57.1280 C.ar    0  <0>0        0.1249
      2  C10       -0.2430   30.1350   58.2310 C.ar    0  <0>0        0.0214
      3  C11        0.4850   30.7450   59.2330 C.ar    0  <0>0        0.0154
      4  C12        0.8140   32.0910   59.1310 C.ar    0  <0>0        0.0408
      5  C13        0.4150   32.8320   58.0290 C.ar    0  <0>0       -0.0080
      6  C14       -0.3110   32.2040   57.0250 C.ar    0  <0>0        0.0171
      7  C15        0.7240   34.2740   57.8900 C.3     0  <0>0        0.0255
      8  C16        1.8350   34.5000   56.8610 C.3     0  <0>0        0.0045
      9  C17        2.6150   35.4840   57.2360 C.3     0  <0>0        0.0004
     10  C18        2.1420   36.0640   58.5550 C.3     0  <0>0        0.0023
     11  C19        1.2940   34.9130   59.1710 C.3     0  <0>0        0.0267
     12  C20        2.2650   33.9440   59.8500 C.3     0  <0>0        0.0978
     13  N2         1.5560   32.6950   60.1520 N.pl3   0  <0>0       -0.3305
     14  H21        1.6000   32.3000   61.0360 H       0  <0>0        0.1471
     15  S1        -1.5670   30.0920   55.8470 S.O2    0  <0>0        0.0736
     16  O1        -2.5370   31.0380   55.4170 O.2     0  <0>0       -0.1499
     17  O2        -1.9220   28.8020   56.3260 O.2     0  <0>0       -0.1499
     18  N1        -0.5380   29.8560   54.5710 N.pl3   0  <0>0       -0.2150
     19  H13        0.0590   30.5680   54.2920 H       0  <0>0        0.1737
     20  C5        -0.5300   28.6320   53.8980 C.ar    0  <0>0        0.0644
     21  C4         0.1840   27.5580   54.4140 C.ar    0  <0>0        0.0155
     22  C3         0.1910   26.3500   53.7460 C.ar    0  <0>0       -0.0033
     23  C2        -0.5110   26.2090   52.5630 C.ar    0  <0>0       -0.0257
     24  C1        -0.5020   24.8890   51.8350 C.3     0  <0>0        0.0307
     25  C7        -1.2270   27.2750   52.0490 C.ar    0  <0>0       -0.0245
     26  C6        -1.2340   28.4870   52.7090 C.ar    0  <0>0        0.0113
     27  C8        -1.9960   27.1140   50.7620 C.3     0  <0>0        0.0307
     28  C21        3.4230   33.6570   58.9300 C.ar    0  <0>0        0.0210
     29  S2         3.5230   32.4960   57.5780 S.2     0  <0>0       -0.0895
     30  C24        5.2050   32.8320   57.0810 C.ar    0  <0>0        0.0348
     31  C23        5.5740   33.7860   57.9710 C.ar    0  <0>0        0.0029
     32  C22        4.6600   34.2090   58.9180 C.ar    0  <0>0       -0.0178
     33  C25        5.0360   35.2670   59.9230 C.3     0  <0>0        0.0313
@<TRIPOS>BOND
     1    27    25    1
     2    24    23    1
     3    25    23   ar
     4    25    26   ar
     5    23    22   ar
     6    26    20   ar
     7    22    21   ar
     8    20    21   ar
     9    20    18    1
    10    19    18    1
    11    18    15    1
    12    16    15    2
    13    15    17    2
    14    15     1    1
    15     8     9    1
    16     8     7    1
    17     6     1   ar
    18     6     5   ar
    19    30    29   ar
    20    30    31   ar
    21     1     2   ar
    22     9    10    1
    23    29    28   ar
    24     7     5    1
    25     7    11    1
    26    31    32   ar
    27     5     4   ar
    28     2     3   ar
    29    10    11    1
    30    32    28   ar
    31    32    33    1
    32    28    12    1
    33     4     3   ar
    34     4    13    1
    35    11    12    1
    36    12    13    1
    37    13    14    1

@<TRIPOS>MOLECULE
ZINC40267959_replica-1.pdb
 27 30 0 0 0
SMALL
GASTEIGER

@<TRIPOS>ATOM
      1  C7         8.8180   36.9200   58.7580 C.3     0  <0>0        0.0765
      2  C8         8.8770   36.1320   57.4460 C.3     0  <0>0        0.1092
      3  C9         8.0230   34.8990   57.5040 C.2     0  <0>0        0.2512
      4  N1         6.9170   34.8290   58.1850 N.2     0  <0>0       -0.3548
      5  C10        6.5210   35.9110   58.9150 C.2     0  <0>0        0.2052
      6  C11        7.3830   36.9360   59.2220 C.2     0  <0>0        0.1040
      7  N2         6.7200   37.8340   59.9400 N.2     0  <0>0       -0.2478
      8  C12        5.4830   37.4370   60.1010 C.3     0  <0>0        0.2256
      9  N3         5.3170   36.2330   59.4690 N.pl3   0  <0>0       -0.2380
     10  C6         9.6820   36.2510   59.7960 C.ar    0  <0>0       -0.0139
     11  C1        10.1730   34.9790   59.5690 C.ar    0  <0>0       -0.0014
     12  C2        10.9650   34.3630   60.5200 C.ar    0  <0>0        0.0317
     13  C3        11.2700   35.0200   61.6990 C.ar    0  <0>0        0.1674
     14  C4        10.7770   36.2970   61.9260 C.ar    0  <0>0        0.1671
     15  F4        12.0440   34.4190   62.6290 F       0  <0>0       -0.2018
     16  C5         9.9850   36.9110   60.9730 C.ar    0  <0>0        0.0281
     17  F3        11.0720   36.9410   63.0770 F       0  <0>0       -0.2018
     18  O1         8.4210   33.8100   56.8150 O.2     0  <0>0       -0.4865
     19  H11        8.1920   33.8340   55.8750 H       0  <0>0        0.2945
     20  C13        4.1370   35.4770   59.4050 C.ar    0  <0>0        0.0850
     21  C18        4.0170   34.3090   60.1490 C.ar    0  <0>0        0.1539
     22  C17        2.8510   33.5680   60.0870 C.ar    0  <0>0        0.0332
     23  F1         5.0370   33.9010   60.9350 F       0  <0>0       -0.2029
     24  C16        1.8090   33.9820   59.2780 C.ar    0  <0>0        0.0320
     25  C15        1.9280   35.1420   58.5310 C.ar    0  <0>0        0.1415
     26  C14        3.0900   35.8900   58.5940 C.ar    0  <0>0        0.0468
     27  F2         0.9080   35.5440   57.7410 F       0  <0>0       -0.2041
@<TRIPOS>BOND
     1    19    18    1
     2    18     3    1
     3     2     3    1
     4     2     1    1
     5     3     4    2
     6    27    25    1
     7     4     5    2
     8    25    26   ar
     9    25    24   ar
    10    26    20   ar
    11     1     6    1
    12     1    10    1
    13     5     6    1
    14     5     9    1
    15     6     7    2
    16    24    22   ar
    17    20     9    1
    18    20    21   ar
    19     9     8    1
    20    11    10   ar
    21    11    12   ar
    22    10    16   ar
    23     7     8    1
    24    22    21   ar
    25    21    23    1
    26    12    13   ar
    27    16    14   ar
    28    13    14   ar
    29    13    15    1
    30    14    17    1

@<TRIPOS>MOLECULE
ZINC00924051_replica-1.pdb
 29 33 0 0 0
SMALL
GASTEIGER

@<TRIPOS>ATOM
      1  C9         6.5400   35.8670   56.6000 C.3     0  <0>0        0.1174
      2  C10        7.1900   34.5690   57.0020 C.2     0  <0>0        0.0304
      3  C11        8.0570   34.4880   58.0460 C.2     0  <0>0       -0.0203
      4  C12        8.5750   33.1450   58.4920 C.3     0  <0>0        0.0267
      5  C13        7.5830   32.0390   58.1140 C.3     0  <0>0        0.0128
      6  C14        7.4010   32.0720   56.5940 C.3     0  <0>0        0.0692
      7  C15        6.8820   33.4350   56.2250 C.2     0  <0>0        0.1707
      8  O2         6.1970   33.5590   55.2270 O.2     0  <0>0       -0.2916
      9  C16        8.5060   35.6560   58.7130 C.ar    0  <0>0        0.0105
     10  C17        9.5170   35.6370   59.7690 C.ar    0  <0>0        0.0186
     11  C18       10.3330   34.5350   60.0520 C.ar    0  <0>0        0.0031
     12  C19       11.1850   34.5970   61.1210 C.ar    0  <0>0        0.0207
     13  C20       11.2370   35.7410   61.9100 C.ar    0  <0>0        0.0988
     14  N1        10.5330   36.8020   61.6010 N.ar    0  <0>0       -0.2438
     15  C21        9.7530   36.8220   60.5160 C.ar    0  <0>0        0.0814
     16  C22        9.1630   38.0350   60.1040 C.ar    0  <0>0        0.0204
     17  C23        8.3410   38.0690   59.0260 C.ar    0  <0>0        0.0158
     18  C24        8.0030   36.9060   58.3230 C.ar    0  <0>0        0.0448
     19  N2         7.1640   37.0230   57.2290 N.pl3   0  <0>0       -0.3272
     20  H22        6.9980   37.9210   56.8640 H       0  <0>0        0.1474
     21  C6         5.0760   35.8310   56.9800 C.ar    0  <0>0       -0.0001
     22  C5         4.1100   36.1420   56.0410 C.ar    0  <0>0        0.0008
     23  C4         2.7730   36.1040   56.3840 C.ar    0  <0>0        0.0366
     24  C3         2.3980   35.7540   57.6730 C.ar    0  <0>0        0.1385
     25  C8         3.3690   35.4420   58.6140 C.ar    0  <0>0        0.0366
     26  C7         4.7050   35.4810   58.2660 C.ar    0  <0>0        0.0008
     27  O1         1.0830   35.7150   58.0140 O.3     0  <0>0       -0.4755
     28  C2         0.6480   34.6000   58.7940 C.3     0  <0>0        0.2055
     29  C1         0.2120   33.4660   57.8640 C.3     0  <0>0        0.0512
@<TRIPOS>BOND
     1     8     7    2
     2    22    23   ar
     3    22    21   ar
     4     7     6    1
     5     7     2    1
     6    23    24   ar
     7     6     5    1
     8     1    21    1
     9     1     2    1
    10     1    19    1
    11    20    19    1
    12    21    26   ar
    13     2     3    2
    14    19    18    1
    15    24    27    1
    16    24    25   ar
    17    29    28    1
    18    27    28    1
    19     3     4    1
    20     3     9    1
    21     5     4    1
    22    26    25   ar
    23    18     9   ar
    24    18    17   ar
    25     9    10   ar
    26    17    16   ar
    27    10    11   ar
    28    10    15   ar
    29    11    12   ar
    30    16    15   ar
    31    15    14   ar
    32    12    13   ar
    33    14    13   ar

@<TRIPOS>MOLECULE
ZINC38590657_replica-1.pdb
 32 36 0 0 0
SMALL
GASTEIGER

@<TRIPOS>ATOM
      1  C8        -0.3570   30.4640   57.7010 C.3     0  <0>0        0.1273
      2  C9        -0.2910   29.6300   56.4640 C.ar    0  <0>0        0.0780
      3  C10       -0.8400   29.8470   55.1210 C.ar    0  <0>0        0.1992
      4  O1        -1.3280   30.9040   54.7640 O.2     0  <0>0       -0.2866
      5  C11       -0.7430   28.6560   54.2390 C.ar    0  <0>0        0.0693
      6  C12       -1.3930   28.6360   53.0060 C.ar    0  <0>0       -0.0161
      7  C13       -1.2980   27.5300   52.2080 C.ar    0  <0>0       -0.0082
      8  C14       -0.5580   26.4310   52.6210 C.ar    0  <0>0       -0.0191
      9  C15        0.0920   26.4350   53.8350 C.ar    0  <0>0        0.0333
     10  C16        0.0120   27.5520   54.6670 C.ar    0  <0>0        0.1479
     11  O2         0.6670   27.5390   55.8510 O.2     0  <0>0       -0.4490
     12  C17        0.4190   28.5010   56.7600 C.ar    0  <0>0        0.1994
     13  C18        0.8230   28.5680   58.1760 C.2     0  <0>0        0.2843
     14  O3         1.4660   27.7160   58.7570 O.2     0  <0>0       -0.2665
     15  N1         0.3730   29.7120   58.7340 N.am    0  <0>0       -0.2633
     16  C26       -0.4650   25.2190   51.7320 C.3     0  <0>0        0.0311
     17  C27       -2.1980   29.8280   52.5550 C.3     0  <0>0        0.0312
     18  C19        0.5750   30.1310   60.1220 C.3     0  <0>0        0.1211
     19  C20        1.7590   31.0620   60.1990 C.ar    0  <0>0       -0.0022
     20  C25        3.0020   30.6350   59.7700 C.ar    0  <0>0       -0.0003
     21  C24        4.0860   31.4890   59.8360 C.ar    0  <0>0        0.0294
     22  C23        3.9300   32.7680   60.3410 C.ar    0  <0>0        0.1401
     23  C22        2.6850   33.1930   60.7740 C.ar    0  <0>0        0.0294
     24  F1         4.9900   33.6020   60.4100 F       0  <0>0       -0.2042
     25  C21        1.6010   32.3390   60.7030 C.ar    0  <0>0       -0.0003
     26  C5         0.3040   31.7980   57.4640 C.ar    0  <0>0        0.0001
     27  C4        -0.3110   32.9590   57.8920 C.ar    0  <0>0       -0.0027
     28  C3         0.2950   34.1820   57.6770 C.ar    0  <0>0       -0.0045
     29  C2         1.5170   34.2440   57.0320 C.ar    0  <0>0       -0.0219
     30  C1         2.1780   35.5770   56.7960 C.3     0  <0>0        0.0310
     31  C7         2.1280   33.0820   56.5990 C.ar    0  <0>0       -0.0045
     32  C6         1.5240   31.8590   56.8190 C.ar    0  <0>0       -0.0027
@<TRIPOS>BOND
     1    16     8    1
     2     7     8   ar
     3     7     6   ar
     4    17     6    1
     5     8     9   ar
     6     6     5   ar
     7     9    10   ar
     8     5    10   ar
     9     5     3   ar
    10    10    11   ar
    11     4     3    2
    12     3     2   ar
    13    11    12   ar
    14     2    12   ar
    15     2     1    1
    16    31    32   ar
    17    31    29   ar
    18    12    13    1
    19    30    29    1
    20    32    26   ar
    21    29    28   ar
    22    26     1    1
    23    26    27   ar
    24    28    27   ar
    25     1    15    1
    26    13    15   am
    27    13    14    2
    28    15    18    1
    29    20    21   ar
    30    20    19   ar
    31    21    22   ar
    32    18    19    1
    33    19    25   ar
    34    22    24    1
    35    22    23   ar
    36    25    23   ar

@<TRIPOS>MOLECULE
ZINC00107182_replica-1.pdb
 24 26 0 0 0
SMALL
GASTEIGER

@<TRIPOS>ATOM
      1  C8         5.3160   34.1660   58.7800 C.2     0  <0>0        0.2319
      2  N2         5.7910   34.1310   57.5440 N.2     0  <0>0       -0.3098
      3  C9         7.0560   34.3500   57.2690 C.1     0  <0>0        0.2126
      4  O2         7.4820   34.3160   56.1250 O.2     0  <0>0       -0.2087
      5  C10        7.9390   34.6450   58.4230 C.2     0  <0>0        0.1275
      6  C11        9.2680   34.9100   58.4560 C.2     0  <0>0        0.0194
      7  S1         6.7550   34.5600   59.7620 S.3     0  <0>0       -0.0260
      8  N1         4.0290   33.9570   59.2030 N.pl3   0  <0>0       -0.2550
      9  C1         3.7730   33.1310   60.3850 C.3     0  <0>0        0.1203
     10  C2         2.9610   34.5370   58.5080 C.ar    0  <0>0        0.0543
     11  C7         3.1610   35.6970   57.7710 C.ar    0  <0>0        0.0180
     12  C6         2.1080   36.2690   57.0850 C.ar    0  <0>0        0.0379
     13  C5         0.8500   35.6840   57.1340 C.ar    0  <0>0        0.1338
     14  C4         0.6500   34.5270   57.8710 C.ar    0  <0>0        0.0379
     15  C3         1.7030   33.9510   58.5530 C.ar    0  <0>0        0.0180
     16  O1        -0.1880   36.2480   56.4590 O.3     0  <0>0       -0.5055
     17  H8        -0.7310   35.6140   55.9720 H       0  <0>0        0.2922
     18  C12        9.9070   35.3160   59.7160 C.ar    0  <0>0        0.0013
     19  C17        9.6590   36.5850   60.2520 C.ar    0  <0>0        0.0009
     20  C16       10.2600   36.9600   61.4340 C.ar    0  <0>0        0.0114
     21  C15       11.1090   36.0840   62.0910 C.ar    0  <0>0        0.0577
     22  C14       11.3600   34.8260   61.5650 C.ar    0  <0>0        0.0114
     23 Cl         11.8630   36.5660   63.5790 Cl      0  <0>0       -0.0822
     24  C13       10.7620   34.4350   60.3880 C.ar    0  <0>0        0.0009
@<TRIPOS>BOND
     1    17    16    1
     2     4     3    2
     3    16    13    1
     4    12    13   ar
     5    12    11   ar
     6    13    14   ar
     7     3     2    2
     8     3     5    1
     9     2     1    2
    10    11    10   ar
    11    14    15   ar
    12     5     6    2
    13     5     7    1
    14     6    18    1
    15    10    15   ar
    16    10     8    1
    17     1     8    1
    18     1     7    1
    19     8     9    1
    20    18    19   ar
    21    18    24   ar
    22    19    20   ar
    23    24    22   ar
    24    20    21   ar
    25    22    21   ar
    26    21    23    1

@<TRIPOS>MOLECULE
ZINC21029828_replica-1.pdb
 29 31 0 0 0
SMALL
GASTEIGER

@<TRIPOS>ATOM
      1  C3         1.5140   33.0660   56.8650 C.3     0  <0>0        0.0941
      2  C2         1.0360   34.5070   56.6770 C.3     0  <0>0       -0.0394
      3  C1         0.8010   35.1490   58.0460 C.3     0  <0>0       -0.0217
      4  N4         2.0560   35.2710   55.9450 N.4     0  <0>0        0.3889
      5  H10        1.7070   35.5070   55.0290 H       0  <0>0       -0.0839
      6  H20        2.2700   36.1160   56.4520 H       0  <0>0       -0.0839
      7  C12        3.2740   34.4590   55.8120 C.3     0  <0>0       -0.0541
      8  C13        4.4480   35.2200   56.3690 C.ar    0  <0>0       -0.0435
      9  C18        4.5080   35.5060   57.7200 C.ar    0  <0>0       -0.0032
     10  C17        5.5870   36.2000   58.2330 C.ar    0  <0>0        0.0365
     11  C16        6.6060   36.6190   57.3900 C.ar    0  <0>0        0.1387
     12  C15        6.5420   36.3350   56.0340 C.ar    0  <0>0        0.0365
     13  C14        5.4630   35.6370   55.5260 C.ar    0  <0>0       -0.0032
     14  O1         7.6660   37.3050   57.8920 O.3     0  <0>0       -0.4714
     15  C19        8.4530   38.0540   56.9630 C.3     0  <0>0        0.2525
     16  N1         0.3870   32.2280   57.2830 N.pl3   0  <0>0       -0.2062
     17  C4        -0.3090   31.5830   56.3930 C.2     0  <0>0        0.2362
     18  S1        -1.7010   30.4800   56.2960 S.3     0  <0>0        0.0104
     19  N2        -0.3540   31.3850   55.0080 N.2     0  <0>0       -0.3557
     20  C5        -1.3410   30.5640   54.5560 C.2     0  <0>0        0.2405
     21  N3        -1.8110   30.0620   53.3770 N.pl3   0  <0>0       -0.1777
     22  C6        -1.4250   28.7850   52.9570 C.ar    0  <0>0        0.0746
     23  C11       -0.6590   27.9810   53.7910 C.ar    0  <0>0        0.0303
     24  C10       -0.2830   26.7170   53.3760 C.ar    0  <0>0        0.0863
     25  C9        -0.6610   26.2570   52.1250 C.ar    0  <0>0        0.1507
     26 Cl          0.6690   25.7100   54.4200 Cl      0  <0>0       -0.0799
     27  C8        -1.4210   27.0600   51.2910 C.ar    0  <0>0        0.0318
     28  F1        -0.2890   25.0230   51.7190 F       0  <0>0       -0.2033
     29  C7        -1.8030   28.3210   51.7030 C.ar    0  <0>0        0.0190
@<TRIPOS>BOND
     1    27    29   ar
     2    27    25   ar
     3    29    22   ar
     4    28    25    1
     5    25    24   ar
     6    22    21    1
     7    22    23   ar
     8    24    23   ar
     9    24    26    1
    10    21    20    1
    11    20    19    2
    12    20    18    1
    13    19    17    2
    14     5     4    1
    15    13    12   ar
    16    13     8   ar
    17     7     4    1
    18     7     8    1
    19     4     6    1
    20     4     2    1
    21    12    11   ar
    22    18    17    1
    23     8     9   ar
    24    17    16    1
    25     2     1    1
    26     2     3    1
    27     1    16    1
    28    15    14    1
    29    11    14    1
    30    11    10   ar
    31     9    10   ar

@<TRIPOS>MOLECULE
ZINC21229535_replica-1.pdb
 36 40 0 0 0
SMALL
GASTEIGER

@<TRIPOS>ATOM
      1  C8        10.4960   33.7760   61.7800 C.3     0  <0>0        0.0357
      2  C9        10.5320   34.8680   60.7120 C.3     0  <0>0        0.0458
      3  C10        9.1230   35.1570   60.2180 C.2     0  <0>0        0.0262
      4  C11        8.2110   34.1750   60.1620 C.2     0  <0>0        0.0436
      5  C12        6.7900   34.3120   59.6660 C.3     0  <0>0        0.1186
      6  N1         6.3550   35.6790   59.4770 N.pl3   0  <0>0       -0.3262
      7  C13        6.9530   36.4990   58.5220 C.ar    0  <0>0        0.0586
      8  C14        6.2540   36.9320   57.4060 C.ar    0  <0>0        0.0156
      9  C15        6.9080   37.6810   56.4420 C.ar    0  <0>0        0.0013
     10  C16        8.2460   37.9970   56.5890 C.ar    0  <0>0        0.0014
     11  C17        8.9400   37.5860   57.7140 C.ar    0  <0>0        0.0158
     12  C18        8.2830   36.8530   58.6860 C.ar    0  <0>0        0.0614
     13  N2         8.9060   36.4490   59.8620 N.pl3   0  <0>0       -0.3150
     14  C26        8.5390   32.8670   60.5940 C.2     0  <0>0        0.1722
     15  O2         7.6970   31.9950   60.5160 O.2     0  <0>0       -0.2916
     16  C27        9.8910   32.5200   61.1430 C.3     0  <0>0        0.0736
     17  H12        5.5400   36.0870   60.0930 H       0  <0>0        0.1474
     18  H17        9.2310   37.2650   60.5250 H       0  <0>0        0.1520
     19  C19        6.6690   33.5850   58.3510 C.ar    0  <0>0        0.0036
     20  C24        5.4820   32.9640   58.0100 C.ar    0  <0>0        0.0693
     21  C23        5.3720   32.2980   56.8040 C.ar    0  <0>0        0.0036
     22  C22        6.4500   32.2480   55.9410 C.ar    0  <0>0       -0.0001
     23  C21        7.6350   32.8740   56.2790 C.ar    0  <0>0       -0.0003
     24  C20        7.7460   33.5400   57.4840 C.ar    0  <0>0       -0.0024
     25  C25        4.3090   33.0120   58.9550 C.3     0  <0>0        0.4183
     26  F1         4.7410   32.7090   60.2500 F       0  <0>0       -0.1659
     27  F2         3.7480   34.2930   58.9380 F       0  <0>0       -0.1659
     28  F3         3.3480   32.0770   58.5530 F       0  <0>0       -0.1659
     29  C6        11.8940   33.4830   62.2590 C.ar    0  <0>0       -0.0187
     30  C5        12.9250   34.3550   61.9580 C.ar    0  <0>0       -0.0041
     31  C4        14.2090   34.0900   62.4000 C.ar    0  <0>0        0.0028
     32  C3        14.4660   32.9500   63.1330 C.ar    0  <0>0        0.0369
     33  C2        13.4350   32.0710   63.4330 C.ar    0  <0>0        0.1384
     34  C7        12.1470   32.3400   62.9930 C.ar    0  <0>0        0.0326
     35  O1        13.6860   30.9460   64.1550 O.3     0  <0>0       -0.4714
     36  C1        12.6110   30.0150   64.2980 C.3     0  <0>0        0.2525
@<TRIPOS>BOND
     1    22    23   ar
     2    22    21   ar
     3    23    24   ar
     4     9    10   ar
     5     9     8   ar
     6    10    11   ar
     7    21    20   ar
     8     8     7   ar
     9    24    19   ar
    10    11    12   ar
    11    20    19   ar
    12    20    25    1
    13    19     5    1
    14     7    12   ar
    15     7     6    1
    16    28    25    1
    17    12    13    1
    18    27    25    1
    19    25    26    1
    20     6     5    1
    21     6    17    1
    22     5     4    1
    23    13     3    1
    24    13    18    1
    25     4     3    2
    26     4    14    1
    27     3     2    1
    28    15    14    2
    29    14    16    1
    30     2     1    1
    31    16     1    1
    32     1    29    1
    33    30    29   ar
    34    30    31   ar
    35    29    34   ar
    36    31    32   ar
    37    34    33   ar
    38    32    33   ar
    39    33    35    1
    40    35    36    1

@<TRIPOS>MOLECULE
ZINC01412364_replica-1.pdb
 30 33 0 0 0
SMALL
GASTEIGER

@<TRIPOS>ATOM
      1  C1        12.2340   33.5850   62.9830 C.2     0  <0>0        0.0053
      2  C2        11.3790   32.4990   62.7240 C.2     0  <0>0        0.0163
      3  C3        10.4020   32.6060   61.8000 C.2     0  <0>0        0.0691
      4  N1        10.2290   33.7700   61.1010 N.pl3   0  <0>0       -0.2406
      5  C4        11.0500   34.8490   61.3310 C.2     0  <0>0        0.1882
      6  C5        12.0750   34.7480   62.2970 C.2     0  <0>0        0.0481
      7  N2        10.6780   35.8390   60.5360 N.2     0  <0>0       -0.3875
      8  C6         9.6350   35.4390   59.7870 C.2     0  <0>0        0.1484
      9  C7         9.3380   34.1370   60.1300 C.3     0  <0>0        0.2125
     10  N3         8.3220   33.3450   59.5910 N.am    0  <0>0       -0.2476
     11  C8         6.9540   33.4600   60.1010 C.3     0  <0>0        0.1225
     12  C9         6.0880   34.1350   59.0670 C.ar    0  <0>0       -0.0023
     13  C14        5.4670   35.3340   59.3620 C.ar    0  <0>0       -0.0027
     14  C13        4.6770   35.9540   58.4130 C.ar    0  <0>0        0.0036
     15  C12        4.4990   35.3700   57.1730 C.ar    0  <0>0        0.0714
     16  C11        5.1160   34.1680   56.8790 C.ar    0  <0>0        0.0036
     17  C10        5.9110   33.5500   57.8280 C.ar    0  <0>0       -0.0027
     18  C15        3.6340   36.0450   56.1390 C.3     0  <0>0        0.4186
     19  F1         3.2830   35.1200   55.1500 F       0  <0>0       -0.1659
     20  F2         2.4760   36.5380   56.7500 F       0  <0>0       -0.1659
     21  F3         4.3420   37.1040   55.5580 F       0  <0>0       -0.1659
     22  C16        8.6010   32.4730   58.6020 C.2     0  <0>0        0.3046
     23  O1         8.5540   31.2800   58.8140 O.2     0  <0>0       -0.2649
     24  C17        8.9280   36.2560   58.7730 C.ar    0  <0>0        0.0290
     25  C22        8.8470   35.8160   57.4530 C.ar    0  <0>0        0.0046
     26  C21        8.1820   36.5760   56.5140 C.ar    0  <0>0        0.0297
     27  C20        7.6050   37.7820   56.8780 C.ar    0  <0>0        0.1401
     28  C19        7.6870   38.2270   58.1870 C.ar    0  <0>0        0.0297
     29  F4         6.9590   38.5260   55.9530 F       0  <0>0       -0.2042
     30  C18        8.3440   37.4700   59.1350 C.ar    0  <0>0        0.0046
@<TRIPOS>BOND
     1    19    18    1
     2    21    18    1
     3    29    27    1
     4    18    20    1
     5    18    15    1
     6    26    27   ar
     7    26    25   ar
     8    27    28   ar
     9    16    15   ar
    10    16    17   ar
    11    15    14   ar
    12    25    24   ar
    13    17    12   ar
    14    28    30   ar
    15    14    13   ar
    16    22    23    2
    17    22    10   am
    18    24    30   ar
    19    24     8    1
    20    12    13   ar
    21    12    11    1
    22    10    11    1
    23    10     9    1
    24     8     9    1
    25     8     7    2
    26     9     4    1
    27     7     5    2
    28     4     5    1
    29     4     3    1
    30     5     6    1
    31     3     2    2
    32     6     1    2
    33     2     1    1

@<TRIPOS>MOLECULE
ZINC08861490_replica-1.pdb
 25 27 0 0 0
SMALL
GASTEIGER

@<TRIPOS>ATOM
      1  C7         0.9060   32.2300   59.2440 C.ar    0  <0>0        0.1223
      2  C8         0.7210   30.9460   59.7260 C.ar    0  <0>0        0.0215
      3  C9         0.5090   29.9020   58.8510 C.ar    0  <0>0        0.0205
      4  C10        0.4810   30.1430   57.4750 C.ar    0  <0>0        0.0814
      5  C11        0.6730   31.4400   56.9960 C.ar    0  <0>0        0.0205
      6  C12        0.8790   32.4760   57.8830 C.ar    0  <0>0        0.0215
      7  S1         1.1760   33.5580   60.3710 S.O2    0  <0>0        0.0633
      8  O1        -0.0840   34.1900   60.5630 O.2     0  <0>0       -0.1528
      9  O2         1.9350   33.0300   61.4490 O.2     0  <0>0       -0.1528
     10  N1         2.1440   34.6610   59.6050 N.3     0  <0>0       -0.1555
     11  C4         3.5980   34.4630   59.5360 C.3     0  <0>0        0.0958
     12  C3         4.0400   34.5460   58.0720 C.3     0  <0>0        0.0192
     13  C2         3.5570   35.8690   57.4720 C.3     0  <0>0        0.0029
     14  C1         4.0260   35.9710   56.0200 C.3     0  <0>0        0.0001
     15  C6         2.0280   35.9260   57.5210 C.3     0  <0>0        0.0192
     16  C5         1.5650   35.8560   58.9740 C.3     0  <0>0        0.0958
     17  N2         0.2720   29.1100   56.6010 N.2     0  <0>0       -0.2438
     18  C13        0.1580   29.3510   55.3260 C.2     0  <0>0        0.0988
     19  C14       -0.0670   28.2410   54.3850 C.ar    0  <0>0        0.0192
     20  C19        0.4950   26.9850   54.6330 C.ar    0  <0>0        0.0021
     21  C18        0.2840   25.9520   53.7450 C.ar    0  <0>0        0.0067
     22  C17       -0.4860   26.1540   52.6120 C.ar    0  <0>0        0.0346
     23  C16       -1.0510   27.3940   52.3630 C.ar    0  <0>0        0.0067
     24 Br         -0.7680   24.7310   51.3980 Br      0  <0>0       -0.0490
     25  C15       -0.8490   28.4360   53.2430 C.ar    0  <0>0        0.0021
@<TRIPOS>BOND
     1    24    22    1
     2    23    22   ar
     3    23    25   ar
     4    22    21   ar
     5    25    19   ar
     6    21    20   ar
     7    19    20   ar
     8    19    18    1
     9    18    17    2
    10    14    13    1
    11    17     4    1
    12     5     4   ar
    13     5     6   ar
    14    13    15    1
    15    13    12    1
    16     4     3   ar
    17    15    16    1
    18     6     1   ar
    19    12    11    1
    20     3     2   ar
    21    16    10    1
    22     1     2   ar
    23     1     7    1
    24    11    10    1
    25    10     7    1
    26     7     8    2
    27     7     9    2

@<TRIPOS>MOLECULE
ZINC18196740_replica-1.pdb
 26 30 0 0 0
SMALL
GASTEIGER

@<TRIPOS>ATOM
      1  C7         0.4770   27.4850   56.6200 C.3     0  <0>0        0.0717
      2  C8        -0.1190   27.7350   55.2640 C.ar    0  <0>0        0.0024
      3  C9         0.0470   26.8010   54.2570 C.ar    0  <0>0        0.0378
      4  C10       -0.5020   27.0210   53.0050 C.ar    0  <0>0        0.1762
      5  C11       -1.2240   28.1860   52.7560 C.ar    0  <0>0        0.1776
      6  C12       -1.3900   29.1210   53.7620 C.ar    0  <0>0        0.0545
      7  C13       -0.8370   28.8960   55.0160 C.ar    0  <0>0        0.0479
      8  N1        -0.9960   29.8380   56.0340 N.pl3   0  <0>0       -0.3161
      9  C14       -0.1400   29.8540   57.0980 C.2     0  <0>0        0.0246
     10  C15        0.5880   28.7610   57.4160 C.2     0  <0>0        0.0296
     11  C16        1.4760   28.7740   58.5080 C.2     0  <0>0        0.1706
     12  O1         2.1230   27.7780   58.7660 O.2     0  <0>0       -0.2916
     13  C17        1.6360   30.0000   59.3630 C.3     0  <0>0        0.0693
     14  C18        0.3260   30.7940   59.3510 C.3     0  <0>0        0.0141
     15  C19       -0.0230   31.1280   57.8980 C.3     0  <0>0        0.0414
     16  O2        -1.6560   28.1640   51.4610 O.3     0  <0>0       -0.4346
     17  C20       -1.5390   26.7920   51.0400 C.3     0  <0>0        0.4294
     18  O3        -0.4800   26.2700   51.8640 O.3     0  <0>0       -0.4346
     19  H8        -1.7190   30.4830   55.9870 H       0  <0>0        0.1519
     20  C6        -0.3970   26.5130   57.3700 C.ar    0  <0>0       -0.0141
     21  C1        -1.5990   26.9350   57.9040 C.ar    0  <0>0       -0.0031
     22  C2        -2.4030   26.0420   58.5890 C.ar    0  <0>0        0.0064
     23  C3        -1.9990   24.7290   58.7470 C.ar    0  <0>0        0.0345
     24  C4        -0.7930   24.3080   58.2160 C.ar    0  <0>0        0.0064
     25 Br         -3.0940   23.5080   59.6890 Br      0  <0>0       -0.0490
     26  C5         0.0080   25.2000   57.5270 C.ar    0  <0>0       -0.0031
@<TRIPOS>BOND
     1    17    16    1
     2    17    18    1
     3    16     5    1
     4    18     4    1
     5     5     4   ar
     6     5     6   ar
     7     4     3   ar
     8     6     7   ar
     9     3     2   ar
    10     7     2   ar
    11     7     8    1
    12     2     1    1
    13    19     8    1
    14     8     9    1
    15     1    20    1
    16     1    10    1
    17     9    10    2
    18     9    15    1
    19    20    26   ar
    20    20    21   ar
    21    10    11    1
    22    26    24   ar
    23    15    14    1
    24    21    22   ar
    25    24    23   ar
    26    11    12    2
    27    11    13    1
    28    22    23   ar
    29    23    25    1
    30    14    13    1

@<TRIPOS>MOLECULE
ZINC67014064_replica-1.pdb
 26 28 0 0 0
SMALL
GASTEIGER

@<TRIPOS>ATOM
      1  N1        -0.4570   32.5880   57.0130 N.am    0  <0>0       -0.2847
      2  C8        -0.0560   31.5180   56.2990 C.2     0  <0>0        0.3044
      3  O1         1.1290   31.3180   56.1180 O.2     0  <0>0       -0.2526
      4  N2        -0.9690   30.6700   55.7840 N.am    0  <0>0       -0.2588
      5  C9        -2.4090   30.9550   55.8870 C.3     0  <0>0        0.1270
      6  C10       -3.0290   30.8140   54.4920 C.3     0  <0>0        0.1640
      7  O2        -2.6710   29.5430   53.9440 O.3     0  <0>0       -0.3483
      8  C11       -1.2660   29.3660   53.7480 C.3     0  <0>0        0.1574
      9  C12       -0.5550   29.4360   55.0990 C.3     0  <0>0        0.1290
     10  H8        -1.4020   32.7890   57.0960 H       0  <0>0        0.1513
     11  C7         0.5350   33.4490   57.6630 C.3     0  <0>0        0.1177
     12  C6         0.4920   33.2270   59.1530 C.ar    0  <0>0       -0.0024
     13  C1         0.2450   34.2890   60.0030 C.ar    0  <0>0       -0.0003
     14  C2         0.2060   34.0870   61.3690 C.ar    0  <0>0        0.0294
     15  C3         0.4140   32.8200   61.8870 C.ar    0  <0>0        0.1401
     16  C4         0.6620   31.7560   61.0340 C.ar    0  <0>0        0.0294
     17  F3         0.3760   32.6210   63.2220 F       0  <0>0       -0.2042
     18  C5         0.7010   31.9620   59.6680 C.ar    0  <0>0       -0.0003
     19  C13       -1.0110   28.0240   53.1110 C.ar    0  <0>0        0.0086
     20  C18       -0.3240   27.0490   53.8060 C.ar    0  <0>0        0.0301
     21  C17       -0.0950   25.8130   53.2240 C.ar    0  <0>0        0.1671
     22  C16       -0.5460   25.5620   51.9370 C.ar    0  <0>0        0.1674
     23  F1         0.5740   24.8580   53.9050 F       0  <0>0       -0.2018
     24  C15       -1.2300   26.5430   51.2410 C.ar    0  <0>0        0.0317
     25  F2        -0.3190   24.3590   51.3640 F       0  <0>0       -0.2018
     26  C14       -1.4620   27.7720   51.8270 C.ar    0  <0>0        0.0006
@<TRIPOS>BOND
     1    24    26   ar
     2    24    22   ar
     3    25    22    1
     4    26    19   ar
     5    22    21   ar
     6    19     8    1
     7    19    20   ar
     8    21    20   ar
     9    21    23    1
    10     8     7    1
    11     8     9    1
    12     7     6    1
    13     6     5    1
    14     9     4    1
    15     4     5    1
    16     4     2   am
    17     3     2    2
    18     2     1   am
    19     1    10    1
    20     1    11    1
    21    11    12    1
    22    12    18   ar
    23    12    13   ar
    24    18    16   ar
    25    13    14   ar
    26    16    15   ar
    27    14    15   ar
    28    15    17    1

@<TRIPOS>MOLECULE
ZINC05695473_replica-1.pdb
 28 31 0 0 0
SMALL
GASTEIGER

@<TRIPOS>ATOM
      1  C8        -0.3340   29.2200   55.1840 C.2     0  <0>0        0.0628
      2  N1         0.4030   30.2180   54.8680 N.2     0  <0>0       -0.1865
      3  C7         0.1730   27.8160   54.9840 C.3     0  <0>0        0.0695
      4  C4        -0.3310   27.2840   53.6670 C.ar    0  <0>0       -0.0165
      5  C3        -1.0550   28.1040   52.8220 C.ar    0  <0>0       -0.0039
      6  C2        -1.5160   27.6160   51.6130 C.ar    0  <0>0       -0.0003
      7  C1        -1.2530   26.3080   51.2500 C.ar    0  <0>0       -0.0000
      8  C6        -0.5270   25.4890   52.0940 C.ar    0  <0>0       -0.0003
      9  C5        -0.0620   25.9780   53.3010 C.ar    0  <0>0       -0.0039
     10  C16       -1.7100   29.4510   55.7540 C.3     0  <0>0        0.0695
     11  C17       -1.7840   28.8660   57.1410 C.ar    0  <0>0       -0.0165
     12  C22       -1.0380   29.4170   58.1650 C.ar    0  <0>0       -0.0039
     13  C21       -1.1060   28.8800   59.4370 C.ar    0  <0>0       -0.0003
     14  C20       -1.9210   27.7910   59.6850 C.ar    0  <0>0       -0.0000
     15  C19       -2.6680   27.2400   58.6600 C.ar    0  <0>0       -0.0003
     16  C18       -2.6040   27.7800   57.3900 C.ar    0  <0>0       -0.0039
     17  N2        -0.0690   31.5250   55.0540 N.pl3   0  <0>0       -0.1985
     18  C9         0.5190   32.3430   55.9960 C.cat   0  <0>0        0.2543
     19  N4         1.5200   32.0020   56.7690 N.2     0  <0>0       -0.3744
     20  N3         0.1400   33.6280   56.2650 N.pl3   0  <0>0       -0.2873
     21  C15        1.8500   33.0470   57.5740 C.2     0  <0>0        0.1340
     22  C10        0.9720   34.0990   57.2670 C.3     0  <0>0        0.1477
     23  C14        2.8200   33.2260   58.5630 C.2     0  <0>0        0.0297
     24  C11        1.0740   35.3050   57.9450 C.2     0  <0>0        0.0003
     25  C12        2.0360   35.4650   58.9200 C.2     0  <0>0       -0.0024
     26  C13        2.9060   34.4290   59.2270 C.2     0  <0>0        0.0021
     27  H1        -0.5990   34.1340   55.8220 H       0  <0>0        0.1511
     28  H9        -0.8110   31.8520   54.5220 H       0  <0>0        0.1782
@<TRIPOS>BOND
     1     7     6   ar
     2     7     8   ar
     3     6     5   ar
     4     8     9   ar
     5     5     4   ar
     6     9     4   ar
     7     4     3    1
     8    28    17    1
     9     2    17    1
    10     2     1    2
    11     3     1    1
    12    17    18    1
    13     1    10    1
    14    10    11    1
    15    27    20    1
    16    18    20    1
    17    18    19    2
    18    20    22    1
    19    19    21    2
    20    11    16   ar
    21    11    12   ar
    22    22    21    1
    23    22    24    1
    24    16    15   ar
    25    21    23    1
    26    24    25    2
    27    12    13   ar
    28    23    26    2
    29    15    14   ar
    30    25    26    1
    31    13    14   ar

@<TRIPOS>MOLECULE
ZINC06207651_replica-1.pdb
 29 31 0 0 0
SMALL
GASTEIGER

@<TRIPOS>ATOM
      1  C9         8.5620   36.8660   58.6280 C.3     0  <0>0        0.0851
      2  C10        8.5460   38.3850   58.4480 C.3     0  <0>0        0.0209
      3  C11        8.6120   38.7240   56.9570 C.3     0  <0>0        0.0018
      4  C12        7.4040   38.1130   56.2430 C.3     0  <0>0        0.0015
      5  C13        7.4200   36.5940   56.4220 C.3     0  <0>0        0.0191
      6  C14        7.3560   36.2550   57.9130 C.3     0  <0>0        0.0933
      7  N2         7.3710   34.8010   58.0850 N.3     0  <0>0       -0.1791
      8  H21        8.0700   34.2700   57.6720 H       0  <0>0        0.1488
      9  S1         6.1940   34.0610   58.9860 S.O2    0  <0>0        0.0602
     10  O2         6.3000   34.5860   60.3020 O.2     0  <0>0       -0.1530
     11  O3         6.2860   32.6700   58.7110 O.2     0  <0>0       -0.1530
     12  C15        4.6400   34.5970   58.3530 C.ar    0  <0>0        0.1220
     13  C20        4.1720   34.0960   57.1520 C.ar    0  <0>0        0.0208
     14  C19        2.9500   34.5130   56.6580 C.ar    0  <0>0        0.0128
     15  C18        2.2010   35.4410   57.3600 C.ar    0  <0>0        0.0578
     16  C17        2.6690   35.9420   58.5610 C.ar    0  <0>0        0.0128
     17 Cl          0.6700   35.9690   56.7350 Cl      0  <0>0       -0.0822
     18  C16        3.8880   35.5200   59.0570 C.ar    0  <0>0        0.0208
     19  N1         8.5000   36.5420   60.0550 N.pl3   0  <0>0       -0.3328
     20  H12        7.6760   36.6770   60.5470 H       0  <0>0        0.1468
     21  C6         9.6310   36.0380   60.7080 C.ar    0  <0>0        0.0448
     22  C5        10.2430   36.7810   61.7090 C.ar    0  <0>0        0.0174
     23  C4        11.3590   36.2830   62.3530 C.ar    0  <0>0        0.0382
     24  C3        11.8680   35.0420   62.0000 C.ar    0  <0>0        0.1386
     25  C8        11.2580   34.3000   61.0000 C.ar    0  <0>0        0.0382
     26  C7        10.1380   34.7940   60.3590 C.ar    0  <0>0        0.0174
     27  O1        12.9660   34.5530   62.6350 O.3     0  <0>0       -0.4755
     28  C2        12.9850   33.1510   62.9120 C.3     0  <0>0        0.2055
     29  C1        14.3770   32.7470   63.4010 C.3     0  <0>0        0.0512
@<TRIPOS>BOND
     1     4     5    1
     2     4     3    1
     3     5     6    1
     4    14    13   ar
     5    14    15   ar
     6    17    15    1
     7     3     2    1
     8    13    12   ar
     9    15    16   ar
    10     8     7    1
    11     6     7    1
    12     6     1    1
    13     7     9    1
    14    12     9    1
    15    12    18   ar
    16     2     1    1
    17    16    18   ar
    18     1    19    1
    19    11     9    2
    20     9    10    2
    21    19    20    1
    22    19    21    1
    23    26    21   ar
    24    26    25   ar
    25    21    22   ar
    26    25    24   ar
    27    22    23   ar
    28    24    23   ar
    29    24    27    1
    30    27    28    1
    31    28    29    1

@<TRIPOS>MOLECULE
ZINC08024942_replica-1.pdb
 26 29 0 0 0
SMALL
GASTEIGER

@<TRIPOS>ATOM
      1  C1         1.4180   31.8890   55.9450 C.3     0  <0>0        0.0491
      2  C2         1.0470   31.4780   57.3460 C.2     0  <0>0        0.0597
      3  C3         0.0210   30.7290   57.6520 C.3     0  <0>0        0.0909
      4  C4        -1.0640   29.7030   57.4240 C.3     0  <0>0        0.1096
      5  N1        -0.8190   28.7140   58.5030 N.am    0  <0>0       -0.2545
      6  C5        -0.1540   29.3140   59.5290 C.2     0  <0>0        0.2516
      7  O1         0.2490   28.7710   60.5360 O.2     0  <0>0       -0.2726
      8  C6        -0.0110   30.7660   59.1880 C.3     0  <0>0        0.1969
      9  N2         1.2360   31.4240   59.5210 N.pl3   0  <0>0       -0.1362
     10  N3         1.7360   31.8340   58.4610 N.2     0  <0>0       -0.1717
     11  C13       -0.9180   29.0630   56.0670 C.ar    0  <0>0       -0.0035
     12  C18        0.1880   28.2840   55.7860 C.ar    0  <0>0       -0.0030
     13  C17        0.3200   27.6930   54.5430 C.ar    0  <0>0       -0.0045
     14  C16       -0.6510   27.8900   53.5780 C.ar    0  <0>0       -0.0225
     15  C15       -1.7550   28.6740   53.8570 C.ar    0  <0>0       -0.0045
     16  C14       -1.8880   29.2610   55.1020 C.ar    0  <0>0       -0.0030
     17  C19       -0.5060   27.2500   52.2220 C.3     0  <0>0        0.0224
     18  C20       -0.4970   25.7270   52.3750 C.3     0  <0>0        0.0047
     19  C21       -1.6800   27.6650   51.3330 C.3     0  <0>0        0.0047
     20  C7        -1.2110   27.3710   58.4720 C.ar    0  <0>0        0.0542
     21  C12       -0.2530   26.3680   58.3970 C.ar    0  <0>0        0.0154
     22  C11       -0.6430   25.0430   58.3710 C.ar    0  <0>0        0.0080
     23  C10       -1.9870   24.7150   58.4090 C.ar    0  <0>0        0.0346
     24  C9        -2.9440   25.7120   58.4790 C.ar    0  <0>0        0.0080
     25 Br         -2.5170   22.9010   58.3670 Br      0  <0>0       -0.0490
     26  C8        -2.5580   27.0380   58.5100 C.ar    0  <0>0        0.0154
@<TRIPOS>BOND
     1    19    17    1
     2    17    18    1
     3    17    14    1
     4    14    15   ar
     5    14    13   ar
     6    15    16   ar
     7    13    12   ar
     8    16    11   ar
     9    12    11   ar
    10     1     2    1
    11    11     4    1
    12     2     3    1
    13     2    10    2
    14     4     3    1
    15     4     5    1
    16     3     8    1
    17    25    23    1
    18    22    21   ar
    19    22    23   ar
    20    21    20   ar
    21    23    24   ar
    22    10     9    1
    23    20     5    1
    24    20    26   ar
    25    24    26   ar
    26     5     6   am
    27     8     9    1
    28     8     6    1
    29     6     7    2

@<TRIPOS>MOLECULE
ZINC03999297_replica-1.pdb
 31 33 0 0 0
SMALL
GASTEIGER

@<TRIPOS>ATOM
      1  C7        -1.1920   28.5980   55.2400 C.3     0  <0>0        0.0024
      2  C4        -0.7950   28.3350   56.6940 C.3     0  <0>0        0.0051
      3  C3        -0.5580   26.8350   56.8980 C.3     0  <0>0        0.0273
      4  C2        -0.2400   26.5720   58.3720 C.3     0  <0>0        0.0929
      5  C1         1.0490   27.3030   58.7540 C.3     0  <0>0        0.0296
      6  O1        -1.3160   27.0500   59.1830 O.3     0  <0>0       -0.3585
      7  C26       -0.0600   25.0690   58.5960 C.3     0  <0>0        0.0296
      8  C6        -1.5540   28.4540   59.0690 C.3     0  <0>0        0.1419
      9  C5        -1.9250   28.7920   57.6230 C.3     0  <0>0        0.0322
     10  C8        -1.6030   30.0630   55.0810 C.3     0  <0>0       -0.0230
     11  C9        -0.4480   30.8530   54.4640 C.3     0  <0>0       -0.0813
     12  N2        -0.2130   32.0700   55.2630 N.4     0  <0>0        0.3864
     13  H38       -0.9840   32.1910   55.9300 H       0  <0>0       -0.0840
     14  H39       -0.1710   32.8840   54.6380 H       0  <0>0       -0.0840
     15  C10        1.0570   31.9610   56.0040 C.3     0  <0>0       -0.0543
     16  C11        0.8080   32.2560   57.4600 C.ar    0  <0>0       -0.0436
     17  C16        0.8110   31.2270   58.3840 C.ar    0  <0>0       -0.0051
     18  C15        0.5830   31.4940   59.7190 C.ar    0  <0>0        0.0141
     19  C14        0.3480   32.7990   60.1350 C.ar    0  <0>0        0.0479
     20  C13        0.3460   33.8300   59.2040 C.ar    0  <0>0        0.0141
     21  C12        0.5810   33.5560   57.8710 C.ar    0  <0>0       -0.0051
     22  N1         0.1160   33.0730   61.4840 N.pl3   0  <0>0       -0.3041
     23  C17       -0.3540   34.3980   61.8930 C.3     0  <0>0        0.1122
     24  C18        0.3410   32.0330   62.4910 C.3     0  <0>0        0.1122
     25  C19       -0.0020   28.3000   54.3250 C.3     0  <0>0        0.0263
     26  C20       -0.4360   27.3730   53.2200 C.ar    0  <0>0       -0.0222
     27  C25       -0.0530   26.0450   53.2420 C.ar    0  <0>0       -0.0043
     28  C24       -0.4510   25.1950   52.2270 C.ar    0  <0>0       -0.0003
     29  C23       -1.2340   25.6710   51.1920 C.ar    0  <0>0       -0.0000
     30  C22       -1.6180   26.9990   51.1710 C.ar    0  <0>0       -0.0003
     31  C21       -1.2230   27.8490   52.1880 C.ar    0  <0>0       -0.0043
@<TRIPOS>BOND
     1    30    29   ar
     2    30    31   ar
     3    29    28   ar
     4    31    26   ar
     5    28    27   ar
     6    26    27   ar
     7    26    25    1
     8    25     1    1
     9    11    10    1
    10    11    12    1
    11    14    12    1
    12    10     1    1
    13     1     2    1
    14    12    13    1
    15    12    15    1
    16    15    16    1
    17     2     3    1
    18     2     9    1
    19     3     4    1
    20    16    21   ar
    21    16    17   ar
    22     9     8    1
    23    21    20   ar
    24     4     7    1
    25     4     5    1
    26     4     6    1
    27    17    18   ar
    28     8     6    1
    29    20    19   ar
    30    18    19   ar
    31    19    22    1
    32    22    23    1
    33    22    24    1

@<TRIPOS>MOLECULE
ZINC09308112_replica-1.pdb
 29 32 0 0 0
SMALL
GASTEIGER

@<TRIPOS>ATOM
      1  C1         2.6270   36.1400   57.0840 C.ar    0  <0>0       -0.0027
      2  C2         1.8790   35.6890   58.1510 C.ar    0  <0>0        0.0100
      3  C3         1.6120   34.3240   58.2850 C.ar    0  <0>0        0.0684
      4  C4         2.0990   33.4270   57.3330 C.ar    0  <0>0        0.0100
      5  C5         2.8420   33.8930   56.2680 C.ar    0  <0>0       -0.0027
      6  C6         3.1030   35.2460   56.1410 C.ar    0  <0>0       -0.0109
      7  C22        0.8390   33.8490   59.3940 C.1     0  <0>0        0.1004
      8  N4         0.2270   33.4710   60.2720 N.1     0  <0>0       -0.1908
      9  C7         3.9150   35.7470   54.9750 C.3     0  <0>0        0.0914
     10  S1         5.2180   34.5510   54.5890 S.3     0  <0>0       -0.0705
     11  C8         6.5730   35.2880   55.4390 C.ar    0  <0>0        0.1974
     12  N3         6.9040   35.1040   56.7540 N.ar    0  <0>0       -0.2690
     13  C9         8.0220   35.8790   56.9660 C.ar    0  <0>0        0.1706
     14  N2         8.3100   36.4620   55.8250 N.ar    0  <0>0       -0.1279
     15  N1         7.4580   36.1150   54.9280 N.ar    0  <0>0       -0.1218
     16  C10        6.2410   34.2970   57.6900 C.ar    0  <0>0        0.0673
     17  C15        6.2370   32.9170   57.5380 C.ar    0  <0>0        0.0185
     18  C14        5.5850   32.1240   58.4620 C.ar    0  <0>0        0.0129
     19  C13        4.9350   32.7040   59.5380 C.ar    0  <0>0        0.0578
     20  C12        4.9380   34.0790   59.6900 C.ar    0  <0>0        0.0129
     21 Cl          4.1160   31.7050   60.6970 Cl      0  <0>0       -0.0822
     22  C11        5.5940   34.8770   58.7720 C.ar    0  <0>0        0.0185
     23  C16        8.7640   36.0240   58.2370 C.ar    0  <0>0        0.0363
     24  C21        9.6070   35.0010   58.6760 C.ar    0  <0>0        0.0039
     25  C20       10.2970   35.1430   59.8630 C.ar    0  <0>0        0.0115
     26  C19       10.1540   36.2950   60.6170 C.ar    0  <0>0        0.0577
     27  C18        9.3230   37.3140   60.1840 C.ar    0  <0>0        0.0115
     28 Cl         11.0240   36.4640   62.1090 Cl      0  <0>0       -0.0822
     29  C17        8.6230   37.1820   59.0020 C.ar    0  <0>0        0.0039
@<TRIPOS>BOND
     1    10     9    1
     2    10    11    1
     3    15    11   ar
     4    15    14   ar
     5     9     6    1
     6    11    12   ar
     7    14    13   ar
     8     6     5   ar
     9     6     1   ar
    10     5     4   ar
    11    12    13   ar
    12    12    16    1
    13    13    23    1
    14     1     2   ar
    15     4     3   ar
    16    17    16   ar
    17    17    18   ar
    18    16    22   ar
    19     2     3   ar
    20    23    24   ar
    21    23    29   ar
    22     3     7    1
    23    18    19   ar
    24    24    25   ar
    25    22    20   ar
    26    29    27   ar
    27     7     8    3
    28    19    20   ar
    29    19    21    1
    30    25    26   ar
    31    27    26   ar
    32    26    28    1

@<TRIPOS>MOLECULE
ZINC14456490_replica-1.pdb
 33 37 0 0 0
SMALL
GASTEIGER

@<TRIPOS>ATOM
      1  C9        -1.0340   30.4890   56.6770 C.ar    0  <0>0        0.1249
      2  C10       -0.6880   29.6520   57.7230 C.ar    0  <0>0        0.0214
      3  C11       -0.0420   30.1680   58.8270 C.ar    0  <0>0        0.0154
      4  C12        0.2600   31.5220   58.8860 C.ar    0  <0>0        0.0408
      5  C13       -0.0840   32.3660   57.8410 C.ar    0  <0>0       -0.0080
      6  C14       -0.7340   31.8350   56.7350 C.ar    0  <0>0        0.0171
      7  C15        0.2210   33.8300   57.8610 C.3     0  <0>0        0.0255
      8  C16        1.3790   34.1640   56.9500 C.3     0  <0>0        0.0045
      9  C17        2.1090   35.1170   57.4750 C.3     0  <0>0        0.0004
     10  C18        1.5330   35.5530   58.8090 C.3     0  <0>0        0.0023
     11  C19        0.6700   34.3330   59.2460 C.3     0  <0>0        0.0267
     12  C20        1.6140   33.3150   59.8910 C.3     0  <0>0        0.0981
     13  N2         0.9160   32.0300   60.0130 N.pl3   0  <0>0       -0.3305
     14  H21        0.9110   31.5460   60.8530 H       0  <0>0        0.1471
     15  S1        -1.8590   29.8350   55.2660 S.O2    0  <0>0        0.0736
     16  O1        -2.3830   28.5710   55.6500 O.2     0  <0>0       -0.1499
     17  O2        -2.6820   30.8760   54.7570 O.2     0  <0>0       -0.1499
     18  N1        -0.7050   29.5380   54.1160 N.pl3   0  <0>0       -0.2153
     19  H13       -0.0340   30.2100   53.9180 H       0  <0>0        0.1737
     20  C5        -0.6980   28.3210   53.4320 C.ar    0  <0>0        0.0608
     21  C4        -1.3900   28.1910   52.2340 C.ar    0  <0>0        0.0152
     22  C3        -1.3780   26.9870   51.5580 C.ar    0  <0>0       -0.0030
     23  C2        -0.6850   25.9080   52.0760 C.ar    0  <0>0       -0.0221
     24  C1        -0.6790   24.5950   51.3380 C.3     0  <0>0        0.0310
     25  C7         0.0010   26.0320   53.2700 C.ar    0  <0>0       -0.0073
     26  C6        -0.0040   27.2350   53.9500 C.ar    0  <0>0       -0.0075
     27  C8         0.7440   27.3680   55.2510 C.3     0  <0>0        0.0324
     28  C21        2.8380   33.1450   59.0290 C.ar    0  <0>0        0.0247
     29  S2         4.3070   34.1580   58.9480 S.2     0  <0>0       -0.0940
     30  C24        5.1830   33.2310   57.7000 C.ar    0  <0>0        0.0074
     31  C23        4.3120   32.2270   57.4310 C.ar    0  <0>0        0.0024
     32  C25        6.5400   33.4950   57.0990 C.3     0  <0>0        0.0381
     33  C22        3.1130   32.1810   58.1170 C.ar    0  <0>0        0.0039
@<TRIPOS>BOND
     1    24    23    1
     2    22    23   ar
     3    22    21   ar
     4    23    25   ar
     5    21    20   ar
     6    25    26   ar
     7    20    26   ar
     8    20    18    1
     9    19    18    1
    10    26    27    1
    11    18    15    1
    12    17    15    2
    13    15    16    2
    14    15     1    1
    15     1     6   ar
    16     1     2   ar
    17     6     5   ar
    18     8     9    1
    19     8     7    1
    20    32    30    1
    21    31    30   ar
    22    31    33   ar
    23     9    10    1
    24    30    29   ar
    25     2     3   ar
    26     5     7    1
    27     5     4   ar
    28     7    11    1
    29    33    28   ar
    30    10    11    1
    31     3     4   ar
    32     4    13    1
    33    29    28   ar
    34    28    12    1
    35    11    12    1
    36    12    13    1
    37    13    14    1

@<TRIPOS>MOLECULE
ZINC16731624_replica-1.pdb
 35 38 0 0 0
SMALL
GASTEIGER

@<TRIPOS>ATOM
      1  C10       10.1520   34.1830   61.0700 C.2     0  <0>0        0.1313
      2  C11        9.9360   35.5120   60.6920 C.2     0  <0>0        0.0324
      3  C12        8.7920   35.8690   60.0440 C.2     0  <0>0        0.0639
      4  C13        7.8200   34.8750   59.7560 C.3     0  <0>0        0.1207
      5  C14        6.5420   35.0290   59.0820 C.2     0  <0>0        0.0388
      6  C15        5.7530   33.9060   58.9110 C.2     0  <0>0        0.0799
      7  S1         6.7160   32.6070   59.6580 S.3     0  <0>0       -0.0550
      8  C16        8.1250   33.5590   60.1740 C.2     0  <0>0        0.1474
      9  N1         9.2410   33.2550   60.7990 N.2     0  <0>0       -0.3991
     10  C7        11.4000   33.8090   61.7730 C.ar    0  <0>0        0.0298
     11  C6        11.4380   32.6640   62.5690 C.ar    0  <0>0        0.0057
     12  C5        12.6010   32.3180   63.2230 C.ar    0  <0>0        0.0370
     13  C4        13.7350   33.1090   63.0900 C.ar    0  <0>0        0.1391
     14  C9        13.7020   34.2500   62.2990 C.ar    0  <0>0        0.0370
     15  C8        12.5430   34.5970   61.6370 C.ar    0  <0>0        0.0057
     16  O1        14.8790   32.7660   63.7360 O.3     0  <0>0       -0.4707
     17  C3        15.4340   33.7330   64.6310 C.3     0  <0>0        0.2318
     18  C2        16.7440   34.2350   64.0800 C.2     0  <0>0        0.0207
     19  C1        17.6950   34.6160   64.8950 C.2     0  <0>0       -0.0011
     20  C24        8.5600   37.3020   59.6390 C.3     0  <0>0        0.4157
     21  F1         9.6170   38.0930   60.1020 F       0  <0>0       -0.1661
     22  F2         8.4900   37.3860   58.2440 F       0  <0>0       -0.1661
     23  F3         7.3590   37.7550   60.1950 F       0  <0>0       -0.1661
     24  N2         6.1250   36.2680   58.6220 N.pl3   0  <0>0       -0.3592
     25  H15        6.7700   36.9800   58.4920 H       0  <0>0        0.1421
     26  H16        5.1860   36.4230   58.4300 H       0  <0>0        0.1421
     27  C17        4.4830   33.8130   58.2960 C.2     0  <0>0        0.2024
     28  O2         4.3990   33.6650   57.0900 O.2     0  <0>0       -0.2860
     29  C18        3.2570   33.8950   59.1180 C.ar    0  <0>0        0.0395
     30  C23        3.0920   33.0470   60.2160 C.ar    0  <0>0        0.0041
     31  C22        1.9460   33.1280   60.9790 C.ar    0  <0>0        0.0115
     32  C21        0.9590   34.0460   60.6590 C.ar    0  <0>0        0.0577
     33  C20        1.1170   34.8880   59.5700 C.ar    0  <0>0        0.0115
     34 Cl         -0.4800   34.1410   61.6240 Cl      0  <0>0       -0.0822
     35  C19        2.2620   34.8220   58.8040 C.ar    0  <0>0        0.0041
@<TRIPOS>BOND
     1    28    27    2
     2    22    20    1
     3    27     6    1
     4    27    29    1
     5    26    24    1
     6    25    24    1
     7    24     5    1
     8    35    29   ar
     9    35    33   ar
    10     6     5    2
    11     6     7    1
    12     5     4    1
    13    29    30   ar
    14    33    32   ar
    15    20     3    1
    16    20    21    1
    17    20    23    1
    18     7     8    1
    19     4     3    1
    20     4     8    1
    21     3     2    2
    22     8     9    2
    23    30    31   ar
    24    32    31   ar
    25    32    34    1
    26     2     1    1
    27     9     1    2
    28     1    10    1
    29    15    10   ar
    30    15    14   ar
    31    10    11   ar
    32    14    13   ar
    33    11    12   ar
    34    13    12   ar
    35    13    16    1
    36    16    17    1
    37    18    17    1
    38    18    19    2

@<TRIPOS>MOLECULE
ZINC18600912_replica-1.pdb
 27 29 0 0 0
SMALL
GASTEIGER

@<TRIPOS>ATOM
      1  C1         5.8140   33.3690   58.0650 C.3     0  <0>0        0.0218
      2  C2         4.7210   34.4320   58.1950 C.3     0  <0>0        0.1311
      3  C3         3.7690   34.0420   59.2950 C.2     0  <0>0        0.2362
      4  O1         4.1220   34.1110   60.4550 O.2     0  <0>0       -0.2739
      5  N1         2.5260   33.6160   58.9940 N.am    0  <0>0       -0.2815
      6  H5         2.2220   33.6220   58.0730 H       0  <0>0        0.1549
      7  C4         1.6740   33.1650   60.0100 C.ar    0  <0>0        0.0783
      8  C9         0.7670   34.0400   60.5980 C.ar    0  <0>0        0.1557
      9  C8        -0.0770   33.5900   61.5970 C.ar    0  <0>0        0.0605
     10  F1         0.7080   35.3270   60.1910 F       0  <0>0       -0.2028
     11  C7        -0.0120   32.2730   62.0180 C.ar    0  <0>0        0.1425
     12  C6         0.8950   31.4020   61.4370 C.ar    0  <0>0        0.0311
     13  F2        -0.8330   31.8360   62.9970 F       0  <0>0       -0.2041
     14  C5         1.7360   31.8460   60.4350 C.ar    0  <0>0        0.0193
     15  S1         5.4750   36.0290   58.5860 S.3     0  <0>0       -0.0686
     16  C10        6.5440   36.2120   57.1970 C.ar    0  <0>0        0.1757
     17  N3         7.9060   36.2680   57.2390 N.ar    0  <0>0       -0.2839
     18  C12        8.3430   36.4120   55.9400 C.ar    0  <0>0        0.1026
     19  C11        7.2480   36.4470   55.1620 C.ar    0  <0>0        0.1200
     20  N2         6.1650   36.3240   55.9460 N.ar    0  <0>0       -0.2192
     21  C13        8.7090   36.1910   58.3860 C.ar    0  <0>0        0.0659
     22  C18        9.4500   35.0450   58.6410 C.ar    0  <0>0        0.0181
     23  C17       10.2410   34.9710   59.7710 C.ar    0  <0>0        0.0082
     24  C16       10.2950   36.0380   60.6490 C.ar    0  <0>0        0.0347
     25  C15        9.5570   37.1820   60.3980 C.ar    0  <0>0        0.0082
     26 Br         11.3790   35.9350   62.1950 Br      0  <0>0       -0.0490
     27  C14        8.7690   37.2630   59.2680 C.ar    0  <0>0        0.0181
@<TRIPOS>BOND
     1    19    18   ar
     2    19    20   ar
     3    18    17   ar
     4    20    16   ar
     5    16    17   ar
     6    16    15    1
     7    17    21    1
     8     1     2    1
     9     6     5    1
    10     2    15    1
    11     2     3    1
    12    21    22   ar
    13    21    27   ar
    14    22    23   ar
    15     5     3   am
    16     5     7    1
    17    27    25   ar
    18     3     4    2
    19    23    24   ar
    20     7    14   ar
    21     7     8   ar
    22    10     8    1
    23    25    24   ar
    24    14    12   ar
    25     8     9   ar
    26    24    26    1
    27    12    11   ar
    28     9    11   ar
    29    11    13    1

@<TRIPOS>MOLECULE
ZINC16852604_replica-1.pdb
 28 31 0 0 0
SMALL
GASTEIGER

@<TRIPOS>ATOM
      1  C1         1.0550   34.3210   59.0330 C.2     0  <0>0       -0.0036
      2  C2         0.9660   34.7260   57.7070 C.2     0  <0>0        0.0020
      3  C3         0.5840   33.8530   56.7290 C.2     0  <0>0        0.0284
      4  C4         0.2760   32.5290   57.0600 C.2     0  <0>0        0.1231
      5  C5         0.3660   32.1150   58.4090 C.3     0  <0>0        0.1514
      6  C6         0.7580   33.0230   59.3910 C.2     0  <0>0       -0.0103
      7  C7         0.0370   30.7190   58.7330 C.2     0  <0>0        0.2453
      8  O1         0.0970   30.3060   59.8760 O.2     0  <0>0       -0.2733
      9  N1        -0.3400   29.9130   57.7130 N.am    0  <0>0       -0.2117
     10  C8        -0.3960   30.3970   56.4290 C.2     0  <0>0        0.1924
     11  N2        -0.1050   31.6410   56.1230 N.2     0  <0>0       -0.3898
     12  C9        -0.8020   29.4880   55.3570 C.2     0  <0>0        0.0484
     13  C10        0.1140   28.6960   54.7620 C.2     0  <0>0        0.0040
     14  C11       -0.2950   27.7820   53.6840 C.ar    0  <0>0        0.0003
     15  C16        0.1270   26.4490   53.6970 C.ar    0  <0>0        0.0031
     16  C15       -0.2570   25.5970   52.6850 C.ar    0  <0>0        0.0366
     17  C14       -1.0620   26.0610   51.6520 C.ar    0  <0>0        0.1337
     18  C13       -1.4840   27.3860   51.6340 C.ar    0  <0>0        0.0366
     19  C12       -1.1090   28.2430   52.6440 C.ar    0  <0>0        0.0031
     20  O2        -1.4380   25.2180   50.6560 O.3     0  <0>0       -0.5055
     21  H11       -2.3250   25.3890   50.3100 H       0  <0>0        0.2922
     22  C17       -0.6690   28.5760   57.9680 C.ar    0  <0>0        0.0604
     23  C22        0.3320   27.6140   58.0330 C.ar    0  <0>0        0.0162
     24  C21        0.0050   26.2970   58.2840 C.ar    0  <0>0        0.0127
     25  C20       -1.3170   25.9330   58.4730 C.ar    0  <0>0        0.0578
     26  C19       -2.3150   26.8890   58.4100 C.ar    0  <0>0        0.0127
     27 Cl         -1.7230   24.2750   58.7900 Cl      0  <0>0       -0.0822
     28  C18       -1.9940   28.2100   58.1630 C.ar    0  <0>0        0.0162
@<TRIPOS>BOND
     1    21    20    1
     2    20    17    1
     3    18    17   ar
     4    18    19   ar
     5    17    16   ar
     6    19    14   ar
     7    16    15   ar
     8    14    15   ar
     9    14    13    1
    10    13    12    2
    11    12    10    1
    12    11    10    2
    13    11     4    2
    14    10     9    1
    15     3     4    1
    16     3     2    2
    17     4     5    1
    18     2     1    1
    19     9    22    1
    20     9     7   am
    21    22    23   ar
    22    22    28   ar
    23    23    24   ar
    24    28    26   ar
    25    24    25   ar
    26     5     7    1
    27     5     6    1
    28    26    25   ar
    29    25    27    1
    30     7     8    2
    31     1     6    2

@<TRIPOS>MOLECULE
ZINC46813700_replica-1.pdb
 22 24 0 0 0
SMALL
GASTEIGER

@<TRIPOS>ATOM
      1  C1        -1.2200   27.8870   52.2130 C.ar    0  <0>0        0.0309
      2  C2        -1.2550   28.7400   53.2990 C.ar    0  <0>0        0.0181
      3  C3        -0.6940   28.3500   54.5090 C.ar    0  <0>0        0.0649
      4  C4        -0.1010   27.1030   54.6300 C.ar    0  <0>0       -0.0050
      5  C5        -0.0670   26.2530   53.5370 C.ar    0  <0>0        0.0266
      6  C6        -0.6250   26.6430   52.3330 C.ar    0  <0>0        0.1399
      7  F1        -0.5890   25.8080   51.2710 F       0  <0>0       -0.2042
      8  C7         0.5070   26.6440   55.9290 C.3     0  <0>0        0.0295
      9  C8         0.8270   27.8400   56.8230 C.3     0  <0>0        0.0281
     10  C9        -0.4230   28.7240   56.9370 C.3     0  <0>0        0.1162
     11  N1        -0.7360   29.2330   55.5950 N.pl3   0  <0>0       -0.1909
     12  S1        -1.1320   30.8260   55.3710 S.O2    0  <0>0        0.0766
     13  O1        -0.8450   31.1280   54.0120 O.2     0  <0>0       -0.1497
     14  O2        -2.4230   31.0060   55.9350 O.2     0  <0>0       -0.1497
     15  C10       -0.0180   31.7820   56.3460 C.ar    0  <0>0        0.1278
     16  C15       -0.4700   32.4150   57.4880 C.ar    0  <0>0        0.0521
     17  C14        0.4060   33.1620   58.2570 C.ar    0  <0>0        0.1687
     18  C13        1.7330   33.2820   57.8750 C.ar    0  <0>0        0.1675
     19  F2        -0.0330   33.7770   59.3770 F       0  <0>0       -0.2018
     20  C12        2.1810   32.6510   56.7270 C.ar    0  <0>0        0.0333
     21  F3         2.5890   34.0130   58.6220 F       0  <0>0       -0.2018
     22  C11        1.3050   31.9020   55.9640 C.ar    0  <0>0        0.0226
@<TRIPOS>BOND
     1     7     6    1
     2     1     6   ar
     3     1     2   ar
     4     6     5   ar
     5     2     3   ar
     6     5     4   ar
     7    13    12    2
     8     3     4   ar
     9     3    11    1
    10     4     8    1
    11    12    11    1
    12    12    14    2
    13    12    15    1
    14    11    10    1
    15     8     9    1
    16    22    15   ar
    17    22    20   ar
    18    15    16   ar
    19    20    18   ar
    20     9    10    1
    21    16    17   ar
    22    18    17   ar
    23    18    21    1
    24    17    19    1

@<TRIPOS>MOLECULE
ZINC01105509_replica-1.pdb
 30 34 0 0 0
SMALL
GASTEIGER

@<TRIPOS>ATOM
      1  N1         0.0300   30.2850   57.6910 N.am    0  <0>0       -0.2067
      2  C7         1.0050   30.6660   58.5400 C.2     0  <0>0        0.2459
      3  O1         1.4570   29.8810   59.3550 O.2     0  <0>0       -0.2733
      4  C8         1.5000   32.0050   58.4690 C.3     0  <0>0        0.1543
      5  C9         2.5500   32.6260   59.2920 C.2     0  <0>0       -0.0267
      6  C10        2.8450   33.9110   59.0330 C.2     0  <0>0        0.0023
      7  S1         1.7610   34.3730   57.7020 S.3     0  <0>0       -0.0639
      8  C11        0.9130   32.8290   57.4960 C.2     0  <0>0        0.1524
      9  N2        -0.0430   32.3920   56.6840 N.2     0  <0>0       -0.3773
     10  C12       -0.4870   31.1530   56.7710 C.2     0  <0>0        0.2207
     11  C21        3.9340   34.4350   59.9310 C.3     0  <0>0        0.0327
     12  C22        4.5960   33.1710   60.5190 C.3     0  <0>0        0.0096
     13  C23        3.4430   32.1490   60.4410 C.3     0  <0>0        0.0235
     14  S2        -1.7610   30.6090   55.6820 S.3     0  <0>0       -0.0580
     15  C13       -0.7820   30.2700   54.1980 C.3     0  <0>0        0.1348
     16  C14       -1.6400   29.5620   53.1820 C.2     0  <0>0        0.1844
     17  O2        -2.6240   30.1100   52.7320 O.2     0  <0>0       -0.2904
     18  C15       -1.2840   28.2070   52.7340 C.ar    0  <0>0        0.0357
     19  C20       -1.7560   27.7270   51.5070 C.ar    0  <0>0        0.0052
     20  C19       -1.4190   26.4570   51.0920 C.ar    0  <0>0        0.0297
     21  C18       -0.6150   25.6550   51.8880 C.ar    0  <0>0        0.1401
     22  C17       -0.1450   26.1250   53.1060 C.ar    0  <0>0        0.0297
     23  F1        -0.2880   24.4110   51.4760 F       0  <0>0       -0.2042
     24  C16       -0.4740   27.3920   53.5320 C.ar    0  <0>0        0.0052
     25  C4        -0.4620   28.9750   57.7520 C.ar    0  <0>0        0.0609
     26  C3        -1.6020   28.6920   58.4930 C.ar    0  <0>0        0.0153
     27  C2        -2.0830   27.3990   58.5510 C.ar    0  <0>0        0.0013
     28  C1        -1.4310   26.3860   57.8740 C.ar    0  <0>0        0.0001
     29  C6        -0.2960   26.6630   57.1350 C.ar    0  <0>0        0.0013
     30  C5         0.1880   27.9560   57.0680 C.ar    0  <0>0        0.0153
@<TRIPOS>BOND
     1    20    19   ar
     2    20    21   ar
     3    23    21    1
     4    19    18   ar
     5    21    22   ar
     6    17    16    2
     7    18    16    1
     8    18    24   ar
     9    22    24   ar
    10    16    15    1
    11    15    14    1
    12    14    10    1
    13     9    10    2
    14     9     8    2
    15    10     1    1
    16    30    29   ar
    17    30    25   ar
    18    29    28   ar
    19     8     7    1
    20     8     4    1
    21     1    25    1
    22     1     2   am
    23     7     6    1
    24    25    26   ar
    25    28    27   ar
    26     4     2    1
    27     4     5    1
    28    26    27   ar
    29     2     3    2
    30     6     5    2
    31     6    11    1
    32     5    13    1
    33    11    12    1
    34    13    12    1

@<TRIPOS>MOLECULE
ZINC04065871_replica-1.pdb
 28 31 0 0 0
SMALL
GASTEIGER

@<TRIPOS>ATOM
      1  C10        8.8750   34.8400   58.9550 C.2     0  <0>0        0.1924
      2  N1         9.2290   36.0910   58.7670 N.2     0  <0>0       -0.3898
      3  C11        8.5570   36.8950   57.9220 C.2     0  <0>0        0.1231
      4  C12        8.9370   38.2270   57.7240 C.2     0  <0>0        0.0284
      5  C13        8.2310   39.0130   56.8580 C.2     0  <0>0        0.0020
      6  C14        7.1370   38.5100   56.1650 C.2     0  <0>0       -0.0036
      7  C15        6.7390   37.2030   56.3380 C.2     0  <0>0       -0.0103
      8  C16        7.4430   36.3830   57.2170 C.3     0  <0>0        0.1514
      9  C17        7.0630   34.9800   57.4410 C.2     0  <0>0        0.2453
     10  O2         6.1130   34.4840   56.8630 O.2     0  <0>0       -0.2733
     11  N2         7.8110   34.2600   58.3090 N.am    0  <0>0       -0.2117
     12  C9         9.6540   34.0260   59.8900 C.2     0  <0>0        0.0484
     13  C8        10.5760   34.6070   60.6830 C.2     0  <0>0        0.0040
     14  C5        11.3580   33.7900   61.6220 C.ar    0  <0>0        0.0003
     15  C4        10.8190   32.6070   62.1410 C.ar    0  <0>0        0.0031
     16  C3        11.5560   31.8450   63.0200 C.ar    0  <0>0        0.0369
     17  C2        12.8330   32.2480   63.3930 C.ar    0  <0>0        0.1387
     18  C7        13.3720   33.4220   62.8800 C.ar    0  <0>0        0.0369
     19  C6        12.6460   34.1880   61.9960 C.ar    0  <0>0        0.0031
     20  O1        13.5550   31.4940   64.2610 O.3     0  <0>0       -0.4714
     21  C1        12.9520   30.2830   64.7220 C.3     0  <0>0        0.2525
     22  C18        7.4950   32.9180   58.5530 C.ar    0  <0>0        0.0604
     23  C23        8.1000   31.9140   57.8080 C.ar    0  <0>0        0.0158
     24  C22        7.7860   30.5910   58.0510 C.ar    0  <0>0        0.0080
     25  C21        6.8700   30.2650   59.0360 C.ar    0  <0>0        0.0346
     26  C20        6.2670   31.2640   59.7800 C.ar    0  <0>0        0.0080
     27 Br          6.4440   28.4530   59.3660 Br      0  <0>0       -0.0490
     28  C19        6.5810   32.5870   59.5450 C.ar    0  <0>0        0.0158
@<TRIPOS>BOND
     1     6     7    2
     2     6     5    1
     3     7     8    1
     4     5     4    2
     5    10     9    2
     6     8     9    1
     7     8     3    1
     8     9    11   am
     9     4     3    1
    10    23    24   ar
    11    23    22   ar
    12     3     2    2
    13    24    25   ar
    14    11    22    1
    15    11     1    1
    16    22    28   ar
    17     2     1    2
    18     1    12    1
    19    25    27    1
    20    25    26   ar
    21    28    26   ar
    22    12    13    2
    23    13    14    1
    24    14    19   ar
    25    14    15   ar
    26    19    18   ar
    27    15    16   ar
    28    18    17   ar
    29    16    17   ar
    30    17    20    1
    31    20    21    1

@<TRIPOS>MOLECULE
ZINC28563010_replica-1.pdb
 28 30 0 0 0
SMALL
GASTEIGER

@<TRIPOS>ATOM
      1  C8         7.2570   34.1980   59.1300 C.2     0  <0>0        0.1390
      2  N1         8.3730   34.4550   59.7600 N.2     0  <0>0       -0.3986
      3  C9         9.0680   33.4630   60.3170 C.2     0  <0>0        0.1737
      4  C10        8.5670   32.1910   60.1940 C.3     0  <0>0        0.1278
      5  S1         7.1130   32.4770   59.2920 S.3     0  <0>0       -0.0787
      6  C11       10.3290   33.7200   61.0330 C.2     0  <0>0        0.2760
      7  O1        11.0490   34.6370   60.6850 O.2     0  <0>0       -0.2673
      8  N2        10.6870   32.9380   62.0690 N.am    0  <0>0       -0.2773
      9  H7        10.0010   32.1580   62.4330 H       0  <0>0        0.1553
     10  C12       11.9310   33.1170   62.6820 C.ar    0  <0>0        0.0700
     11  C16       12.3280   34.3740   63.1200 C.ar    0  <0>0        0.1134
     12  N3        13.4970   34.5450   63.7030 N.ar    0  <0>0       -0.2386
     13  C15       14.3370   33.5450   63.8830 C.ar    0  <0>0        0.1527
     14  C14       14.0160   32.2650   63.4690 C.ar    0  <0>0        0.0244
     15  C13       12.7950   32.0380   62.8570 C.ar    0  <0>0        0.0177
     16  C17       15.6640   33.8000   64.5490 C.3     0  <0>0        0.4348
     17  F1        15.5640   34.9260   65.3740 F       0  <0>0       -0.1644
     18  F2        16.0200   32.6880   65.3200 F       0  <0>0       -0.1644
     19  F3        16.6410   34.0230   63.5730 F       0  <0>0       -0.1644
     20  C7         6.3250   35.1580   58.4360 C.3     0  <0>0        0.0935
     21  C4         7.0500   36.4510   58.1600 C.ar    0  <0>0        0.0066
     22  C3         6.9220   37.5150   59.0350 C.ar    0  <0>0        0.0549
     23  C2         7.5860   38.7020   58.7820 C.ar    0  <0>0        0.0111
     24 Cl          5.9280   37.3610   60.4500 Cl      0  <0>0       -0.0825
     25  C1         8.3770   38.8250   57.6550 C.ar    0  <0>0        0.0017
     26  C6         8.5040   37.7620   56.7800 C.ar    0  <0>0        0.0111
     27  C5         7.8450   36.5730   57.0350 C.ar    0  <0>0        0.0549
     28 Cl          8.0110   35.2360   55.9410 Cl      0  <0>0       -0.0825
@<TRIPOS>BOND
     1    28    27    1
     2    26    27   ar
     3    26    25   ar
     4    27    21   ar
     5    25    23   ar
     6    21    20    1
     7    21    22   ar
     8    20     1    1
     9    23    22   ar
    10    22    24    1
    11     1     5    1
    12     1     2    2
    13     5     4    1
    14     2     3    2
    15     4     3    1
    16     3     6    1
    17     7     6    2
    18     6     8   am
    19     8     9    1
    20     8    10    1
    21    10    15   ar
    22    10    11   ar
    23    15    14   ar
    24    11    12   ar
    25    14    13   ar
    26    19    16    1
    27    12    13   ar
    28    13    16    1
    29    16    18    1
    30    16    17    1

@<TRIPOS>MOLECULE
ZINC34916141_replica-1.pdb
 29 32 0 0 0
SMALL
GASTEIGER

@<TRIPOS>ATOM
      1  C1         0.9950   32.2790   60.3730 C.3     0  <0>0        0.0312
      2  C2         2.3670   32.8970   60.2870 C.2     0  <0>0       -0.0167
      3  C3         3.3600   32.5410   61.2150 C.2     0  <0>0        0.0121
      4  C4         4.5900   33.0910   61.1430 C.2     0  <0>0        0.0687
      5  N1         4.8890   34.0010   60.1660 N.pl3   0  <0>0       -0.2408
      6  C5         3.9380   34.3690   59.2440 C.2     0  <0>0        0.1879
      7  C6         2.6500   33.7950   59.3070 C.2     0  <0>0        0.0438
      8  N2         4.4740   35.2520   58.4170 N.2     0  <0>0       -0.3875
      9  C7         5.7500   35.4760   58.7700 C.2     0  <0>0        0.1504
     10  C8         6.0310   34.6950   59.8730 C.3     0  <0>0        0.2089
     11  N3         7.2440   34.6270   60.5570 N.am    0  <0>0       -0.2808
     12  C9         8.2350   33.8380   60.0960 C.2     0  <0>0        0.2469
     13  O1         8.0870   33.2190   59.0580 O.2     0  <0>0       -0.2701
     14  H7         7.3750   35.1480   61.3650 H       0  <0>0        0.1516
     15  C10        9.5010   33.7240   60.8490 C.ar    0  <0>0        0.0495
     16  C15       10.4140   34.7790   60.8470 C.ar    0  <0>0       -0.0175
     17  C14       11.5920   34.6700   61.5590 C.ar    0  <0>0       -0.0041
     18  C16       10.1120   36.0390   60.0770 C.3     0  <0>0        0.0312
     19  C13       11.8730   33.5110   62.2620 C.ar    0  <0>0       -0.0003
     20  C12       10.9750   32.4590   62.2620 C.ar    0  <0>0        0.0001
     21  C11        9.7920   32.5590   61.5610 C.ar    0  <0>0        0.0042
     22  C17        6.6920   36.3990   58.0950 C.ar    0  <0>0        0.0585
     23  C22        6.9940   37.6360   58.6680 C.ar    0  <0>0        0.1425
     24  C21        7.8780   38.4900   58.0370 C.ar    0  <0>0        0.0320
     25  F1         6.4290   37.9930   59.8420 F       0  <0>0       -0.2041
     26  C20        8.4540   38.1270   56.8320 C.ar    0  <0>0        0.0319
     27  C19        8.1530   36.9040   56.2550 C.ar    0  <0>0        0.1404
     28  C18        7.2760   36.0390   56.8810 C.ar    0  <0>0        0.0342
     29  F2         8.7200   36.5560   55.0790 F       0  <0>0       -0.2042
@<TRIPOS>BOND
     1    29    27    1
     2    27    26   ar
     3    27    28   ar
     4    26    24   ar
     5    28    22   ar
     6    24    23   ar
     7    22    23   ar
     8    22     9    1
     9     8     9    2
    10     8     6    2
    11    23    25    1
    12     9    10    1
    13    13    12    2
    14     6     7    1
    15     6     5    1
    16     7     2    2
    17    10     5    1
    18    10    11    1
    19    18    16    1
    20    12    11   am
    21    12    15    1
    22     5     4    1
    23     2     1    1
    24     2     3    1
    25    11    14    1
    26    16    15   ar
    27    16    17   ar
    28    15    21   ar
    29     4     3    2
    30    17    19   ar
    31    21    20   ar
    32    19    20   ar

@<TRIPOS>MOLECULE
ZINC40753451_replica-1.pdb
 26 29 0 0 0
SMALL
GASTEIGER

@<TRIPOS>ATOM
      1  N1         5.5970   34.4240   58.2080 N.pl3   0  <0>0       -0.2697
      2  C8         4.4280   33.8370   58.6480 C.3     0  <0>0        0.1694
      3  C9         3.9930   32.5340   58.8200 C.2     0  <0>0        0.0994
      4  N2         2.7780   32.2930   59.2730 N.2     0  <0>0       -0.2447
      5  C10        1.9330   33.2640   59.5790 C.2     0  <0>0        0.1009
      6  C11        2.2760   34.5780   59.4400 C.2     0  <0>0        0.0503
      7  C12        3.5540   34.8960   58.9640 C.2     0  <0>0        0.1360
      8  N3         4.2080   36.0450   58.7110 N.2     0  <0>0       -0.3890
      9  C13        5.4150   35.7790   58.2700 C.2     0  <0>0        0.1880
     10  C7         6.8080   33.7280   57.7640 C.3     0  <0>0        0.1250
     11  C4         7.9490   34.0660   58.6870 C.ar    0  <0>0        0.0526
     12  C3         7.8950   33.6940   60.0200 C.ar    0  <0>0        0.1399
     13  C2         8.9450   34.0050   60.8670 C.ar    0  <0>0        0.0295
     14  F4         6.8190   33.0290   60.4930 F       0  <0>0       -0.2044
     15  C1        10.0470   34.6860   60.3840 C.ar    0  <0>0        0.0046
     16  C6        10.1010   35.0570   59.0540 C.ar    0  <0>0        0.0295
     17  C5         9.0530   34.7470   58.2040 C.ar    0  <0>0        0.1399
     18  F1         9.1070   35.1100   56.9040 F       0  <0>0       -0.2044
     19  C14        6.4240   36.7900   57.8940 C.ar    0  <0>0        0.0987
     20  C19        6.6620   37.0800   56.5470 C.ar    0  <0>0        0.1460
     21  C18        7.6040   38.0320   56.2050 C.ar    0  <0>0        0.0299
     22  F2         5.9700   36.4340   55.5840 F       0  <0>0       -0.2040
     23  C17        8.3180   38.6890   57.1890 C.ar    0  <0>0        0.0046
     24  C16        8.0930   38.4040   58.5250 C.ar    0  <0>0        0.0299
     25  C15        7.1510   37.4600   58.8840 C.ar    0  <0>0        0.1460
     26  F3         6.9320   37.1830   60.1880 F       0  <0>0       -0.2040
@<TRIPOS>BOND
     1    22    20    1
     2    21    20   ar
     3    21    23   ar
     4    20    19   ar
     5    18    17    1
     6    23    24   ar
     7    10     1    1
     8    10    11    1
     9    19     9    1
    10    19    25   ar
    11    17    11   ar
    12    17    16   ar
    13     1     9    1
    14     1     2    1
    15     9     8    2
    16    24    25   ar
    17     2     3    1
    18     2     7    1
    19    11    12   ar
    20     8     7    2
    21     3     4    2
    22    25    26    1
    23     7     6    1
    24    16    15   ar
    25     4     5    1
    26     6     5    2
    27    12    14    1
    28    12    13   ar
    29    15    13   ar

@<TRIPOS>MOLECULE
ZINC12769981_replica-1.pdb
 27 29 0 0 0
SMALL
GASTEIGER

@<TRIPOS>ATOM
      1  N1        -0.4580   29.9040   55.1410 N.am    0  <0>0       -0.2968
      2  C12        0.1530   30.7950   55.9460 C.2     0  <0>0        0.2429
      3  O1         0.9410   30.4140   56.7860 O.2     0  <0>0       -0.2732
      4  H10       -1.0880   30.2100   54.4690 H       0  <0>0        0.1500
      5  C7        -0.1700   28.4740   55.2790 C.3     0  <0>0        0.1230
      6  C4        -0.4640   27.7750   53.9770 C.ar    0  <0>0        0.0002
      7  C3        -1.1910   28.4190   52.9940 C.ar    0  <0>0       -0.0023
      8  C2        -1.4610   27.7770   51.8010 C.ar    0  <0>0       -0.0003
      9  C1        -1.0040   26.4900   51.5890 C.ar    0  <0>0       -0.0000
     10  C6        -0.2770   25.8440   52.5730 C.ar    0  <0>0       -0.0003
     11  C5        -0.0030   26.4890   53.7650 C.ar    0  <0>0       -0.0023
     12  C8        -1.0310   27.8920   56.3690 C.ar    0  <0>0        0.0292
     13  S1        -0.6690   26.5530   57.4930 S.2     0  <0>0       -0.0888
     14  C11       -2.2090   26.5600   58.3960 C.ar    0  <0>0        0.0352
     15  C10       -2.8870   27.5630   57.7880 C.ar    0  <0>0        0.0072
     16  C9        -2.2810   28.2490   56.7520 C.ar    0  <0>0        0.0046
     17  C13       -0.1440   32.2660   55.8050 C.3     0  <0>0        0.1737
     18  N2        -0.3310   32.8570   57.1330 N.pl3   0  <0>0       -0.3235
     19  H13       -1.0770   32.5790   57.6860 H       0  <0>0        0.1473
     20  C14        0.5680   33.8230   57.6020 C.ar    0  <0>0        0.0729
     21  C19        0.6870   34.0580   58.9680 C.ar    0  <0>0        0.1553
     22  C18        1.5780   35.0090   59.4280 C.ar    0  <0>0        0.0605
     23  F1        -0.0630   33.3520   59.8430 F       0  <0>0       -0.2028
     24  C17        2.3430   35.7340   58.5310 C.ar    0  <0>0        0.1425
     25  C16        2.2220   35.5040   57.1710 C.ar    0  <0>0        0.0310
     26  F2         3.2110   36.6660   58.9820 F       0  <0>0       -0.2041
     27  C15        1.3360   34.5520   56.7060 C.ar    0  <0>0        0.0189
@<TRIPOS>BOND
     1     9     8   ar
     2     9    10   ar
     3     8     7   ar
     4    10    11   ar
     5     7     6   ar
     6    11     6   ar
     7     6     5    1
     8     4     1    1
     9     1     5    1
    10     1     2   am
    11     5    12    1
    12    17     2    1
    13    17    18    1
    14     2     3    2
    15    12    16   ar
    16    12    13   ar
    17    27    25   ar
    18    27    20   ar
    19    16    15   ar
    20    18    20    1
    21    18    19    1
    22    25    24   ar
    23    13    14   ar
    24    20    21   ar
    25    15    14   ar
    26    24    26    1
    27    24    22   ar
    28    21    22   ar
    29    21    23    1

@<TRIPOS>MOLECULE
ZINC39862653_replica-1.pdb
 28 31 0 0 0
SMALL
GASTEIGER

@<TRIPOS>ATOM
      1  N1         6.6000   31.9900   60.0940 N.am    0  <0>0       -0.2129
      2  C7         7.7920   32.5610   60.0290 C.2     0  <0>0        0.2640
      3  O1         8.8000   31.9650   60.3600 O.2     0  <0>0       -0.2686
      4  C8         7.8420   33.9510   59.5380 C.2     0  <0>0        0.0863
      5  C9         8.9120   34.7660   59.3700 C.2     0  <0>0        0.0128
      6  S1         6.1120   34.2710   59.2210 S.3     0  <0>0       -0.0477
      7  C16        5.4690   32.6790   59.7100 C.2     0  <0>0        0.1745
      8  N2         4.2200   32.2650   59.7070 N.2     0  <0>0       -0.2050
      9  C10        8.7250   36.1310   58.8590 C.ar    0  <0>0        0.0218
     10  C15        8.6100   36.3590   57.4820 C.ar    0  <0>0        0.0585
     11  C14        8.4290   37.6440   57.0140 C.ar    0  <0>0        0.0114
     12 Cl          8.6850   35.0290   56.3700 Cl      0  <0>0       -0.0822
     13  C13        8.3740   38.7080   57.8980 C.ar    0  <0>0        0.0017
     14  C12        8.4930   38.4920   59.2610 C.ar    0  <0>0        0.0114
     15  C11        8.6680   37.2130   59.7480 C.ar    0  <0>0        0.0585
     16 Cl          8.8170   36.9450   61.4560 Cl      0  <0>0       -0.0822
     17  C4         6.4870   30.6710   60.5530 C.ar    0  <0>0        0.0602
     18  C3         6.3200   30.4180   61.9080 C.ar    0  <0>0        0.0153
     19  C2         6.2090   29.1170   62.3580 C.ar    0  <0>0        0.0013
     20  C1         6.2640   28.0660   61.4600 C.ar    0  <0>0        0.0001
     21  C6         6.4290   28.3150   60.1100 C.ar    0  <0>0        0.0013
     22  C5         6.5410   29.6140   59.6540 C.ar    0  <0>0        0.0153
     23  C17        3.2260   33.0990   59.2880 C.ar    0  <0>0        0.1643
     24  N3         2.9760   33.2280   57.9870 N.ar    0  <0>0       -0.2250
     25  C21        2.0200   34.0200   57.5450 C.ar    0  <0>0        0.1006
     26  C20        1.2470   34.7590   58.4190 C.ar    0  <0>0        0.0208
     27  C19        1.4770   34.6590   59.7860 C.ar    0  <0>0        0.0047
     28  C18        2.4800   33.8180   60.2280 C.ar    0  <0>0        0.0389
@<TRIPOS>BOND
     1    12    10    1
     2    11    10   ar
     3    11    13   ar
     4    10     9   ar
     5    25    24   ar
     6    25    26   ar
     7    13    14   ar
     8    24    23   ar
     9    26    27   ar
    10     9     5    1
    11     9    15   ar
    12     6     4    1
    13     6     7    1
    14    14    15   ar
    15    23     8    1
    16    23    28   ar
    17     5     4    2
    18     4     2    1
    19    22    21   ar
    20    22    17   ar
    21     8     7    2
    22     7     1    1
    23    15    16    1
    24    27    28   ar
    25     2     1   am
    26     2     3    2
    27     1    17    1
    28    21    20   ar
    29    17    18   ar
    30    20    19   ar
    31    18    19   ar

@<TRIPOS>MOLECULE
ZINC23447294_replica-1.pdb
 29 32 0 0 0
SMALL
GASTEIGER

@<TRIPOS>ATOM
      1  N2         8.7130   33.9310   59.0130 N.am    0  <0>0       -0.2624
      2  C17        8.0930   32.8940   58.4140 C.2     0  <0>0        0.2518
      3  O2         8.2420   32.7030   57.2220 O.2     0  <0>0       -0.2698
      4  C9         8.5650   34.1380   60.4560 C.3     0  <0>0        0.1942
      5  C8         9.8530   33.7780   61.1500 C.2     0  <0>0        0.2777
      6  N1        10.8800   34.5660   61.2630 N.2     0  <0>0       -0.3707
      7  C6        11.8590   33.9140   61.9470 C.2     0  <0>0        0.1505
      8  C5        11.3520   32.6410   62.2540 C.2     0  <0>0        0.1735
      9  C7        13.1490   34.2600   62.3530 C.3     0  <0>0        0.0843
     10  C4        12.1340   31.7380   62.9570 C.2     0  <0>0        0.0393
     11  O1        10.1020   32.5990   61.7400 O.2     0  <0>0       -0.4270
     12  C3        13.4070   32.0930   63.3510 C.2     0  <0>0       -0.0049
     13  C2        13.9120   33.3500   63.0510 C.2     0  <0>0       -0.0367
     14  C1        15.3040   33.7220   63.4900 C.3     0  <0>0        0.0268
     15  C10        9.5340   34.8500   58.2210 C.3     0  <0>0        0.1218
     16  C11        8.9220   36.2260   58.2570 C.ar    0  <0>0        0.0083
     17  C16        8.1790   36.6820   57.1820 C.ar    0  <0>0        0.0553
     18  C15        7.6180   37.9460   57.2170 C.ar    0  <0>0        0.0111
     19 Cl          7.9510   35.6680   55.7920 Cl      0  <0>0       -0.0825
     20  C14        7.7990   38.7530   58.3240 C.ar    0  <0>0        0.0008
     21  C13        8.5400   38.2960   59.3980 C.ar    0  <0>0       -0.0002
     22  C12        9.0970   37.0330   59.3660 C.ar    0  <0>0       -0.0018
     23  C18        7.2330   31.9920   59.2050 C.ar    0  <0>0        0.0810
     24  C23        5.8930   32.3230   59.4370 C.ar    0  <0>0        0.1445
     25  C22        5.0950   31.4720   60.1790 C.ar    0  <0>0        0.0298
     26  F1         5.3820   33.4680   58.9370 F       0  <0>0       -0.2040
     27  C21        5.6180   30.2990   60.6910 C.ar    0  <0>0        0.0023
     28  C20        6.9430   29.9670   60.4640 C.ar    0  <0>0        0.0003
     29  C19        7.7500   30.8020   59.7210 C.ar    0  <0>0        0.0068
@<TRIPOS>BOND
     1    19    17    1
     2    17    18   ar
     3    17    16   ar
     4    18    20   ar
     5     3     2    2
     6    15    16    1
     7    15     1    1
     8    16    22   ar
     9    20    21   ar
    10     2     1   am
    11     2    23    1
    12    26    24    1
    13     1     4    1
    14    23    24   ar
    15    23    29   ar
    16    22    21   ar
    17    24    25   ar
    18    29    28   ar
    19    25    27   ar
    20     4     5    1
    21    28    27   ar
    22     5     6    2
    23     5    11    1
    24     6     7    2
    25    11     8    1
    26     7     8    1
    27     7     9    1
    28     8    10    2
    29     9    13    1
    30    10    12    1
    31    13    12    2
    32    13    14    1

@<TRIPOS>MOLECULE
ZINC08444068_replica-1.pdb
 36 40 0 0 0
SMALL
GASTEIGER

@<TRIPOS>ATOM
      1  C10        6.6160   34.5330   59.2600 C.3     0  <0>0        0.1215
      2  C11        8.0040   34.3970   59.8390 C.2     0  <0>0        0.0437
      3  C12        8.9100   35.3770   59.9650 C.2     0  <0>0        0.0262
      4  C13       10.2880   35.0860   60.5350 C.3     0  <0>0        0.0458
      5  C14       10.1930   33.9820   61.5870 C.3     0  <0>0        0.0356
      6  C15        9.6270   32.7320   60.9020 C.3     0  <0>0        0.0736
      7  C16        8.3100   33.0840   60.2770 C.2     0  <0>0        0.1722
      8  O2         7.4760   32.2110   60.1410 O.2     0  <0>0       -0.2916
      9  N1         8.7090   36.6690   59.6000 N.pl3   0  <0>0       -0.3150
     10  C24        8.1560   37.0740   58.3900 C.ar    0  <0>0        0.0614
     11  C25        8.8600   37.8440   57.4790 C.ar    0  <0>0        0.0158
     12  C26        8.2170   38.3050   56.3420 C.ar    0  <0>0        0.0014
     13  C27        6.8870   37.9990   56.1190 C.ar    0  <0>0        0.0013
     14  C28        6.1900   37.2120   57.0190 C.ar    0  <0>0        0.0156
     15  C29        6.8340   36.7340   58.1490 C.ar    0  <0>0        0.0586
     16  N2         6.1870   35.9020   59.0600 N.pl3   0  <0>0       -0.3261
     17  H25        8.9690   37.3600   60.2290 H       0  <0>0        0.1520
     18  H30        5.4350   36.2450   59.5690 H       0  <0>0        0.1474
     19  C9         6.5790   33.8220   57.9320 C.ar    0  <0>0        0.0337
     20  C4         5.3700   33.3830   57.4130 C.ar    0  <0>0        0.1364
     21  C5         5.3400   32.7280   56.1900 C.ar    0  <0>0        0.0366
     22  C6         6.5150   32.5100   55.4950 C.ar    0  <0>0        0.0031
     23  C7         7.7180   32.9530   56.0130 C.ar    0  <0>0       -0.0001
     24  C8         7.7500   33.6070   57.2310 C.ar    0  <0>0        0.0007
     25  O1         4.2170   33.5940   58.1000 O.3     0  <0>0       -0.4757
     26  C3         3.0580   33.9300   57.3360 C.3     0  <0>0        0.2054
     27  C2         2.9470   35.4510   57.2180 C.3     0  <0>0        0.0473
     28  C1         2.5700   36.0420   58.5770 C.3     0  <0>0        0.0040
     29  C17       11.5620   33.6870   62.1420 C.ar    0  <0>0       -0.0215
     30  C22       12.5930   34.5880   61.9530 C.ar    0  <0>0       -0.0011
     31  C21       13.8490   34.3190   62.4610 C.ar    0  <0>0        0.0366
     32  C20       14.0760   33.1430   63.1620 C.ar    0  <0>0        0.1387
     33  C19       13.0390   32.2410   63.3500 C.ar    0  <0>0        0.0366
     34  C18       11.7830   32.5160   62.8450 C.ar    0  <0>0       -0.0011
     35  O3        15.3100   32.8760   63.6620 O.3     0  <0>0       -0.4714
     36  C23       15.7850   33.7300   64.7060 C.3     0  <0>0        0.2525
@<TRIPOS>BOND
     1    22    23   ar
     2    22    21   ar
     3    23    24   ar
     4    13    12   ar
     5    13    14   ar
     6    21    20   ar
     7    12    11   ar
     8    14    15   ar
     9    27    26    1
    10    27    28    1
    11    24    19   ar
    12    26    25    1
    13    20    19   ar
    14    20    25    1
    15    11    10   ar
    16    19     1    1
    17    15    10   ar
    18    15    16    1
    19    10     9    1
    20    16     1    1
    21    16    18    1
    22     1     2    1
    23     9     3    1
    24     9    17    1
    25     2     3    2
    26     2     7    1
    27     3     4    1
    28     8     7    2
    29     7     6    1
    30     4     5    1
    31     6     5    1
    32     5    29    1
    33    30    29   ar
    34    30    31   ar
    35    29    34   ar
    36    31    32   ar
    37    34    33   ar
    38    32    33   ar
    39    32    35    1
    40    35    36    1

@<TRIPOS>MOLECULE
CHEMBL239673_replica-1.pdb
 23 25 0 0 0
SMALL
GASTEIGER

@<TRIPOS>ATOM
      1  C9        -0.2400   29.4400   55.0780 C.2     0  <0>0        0.2491
      2  O1         0.3020   30.4620   54.7020 O.2     0  <0>0       -0.2699
      3  N1        -0.7560   29.3690   56.3200 N.am    0  <0>0       -0.2726
      4  C10       -1.3010   28.1040   56.8310 C.3     0  <0>0        0.1151
      5  C11       -0.5950   27.7630   58.1490 C.3     0  <0>0        0.1123
      6  N2        -0.6240   28.9490   59.0180 N.pl3   0  <0>0       -0.3040
      7  C12       -0.0790   30.2140   58.5060 C.3     0  <0>0        0.1123
      8  C13       -0.7800   30.5530   57.1890 C.3     0  <0>0        0.1151
      9  C5        -0.3310   28.2760   54.1700 C.ar    0  <0>0        0.0533
     10  C4         0.3200   27.0840   54.4930 C.ar    0  <0>0        0.0042
     11  C3         0.2320   26.0010   53.6440 C.ar    0  <0>0       -0.0044
     12  C2        -0.4990   26.0960   52.4720 C.ar    0  <0>0       -0.0258
     13  C1        -0.5910   24.9090   51.5480 C.3     0  <0>0        0.0307
     14  C7        -1.1420   27.2760   52.1430 C.ar    0  <0>0       -0.0256
     15  C6        -1.0660   28.3640   52.9870 C.ar    0  <0>0       -0.0001
     16  C8        -1.9310   27.3710   50.8630 C.3     0  <0>0        0.0307
     17  C14       -1.1590   28.8740   60.3050 C.ar    0  <0>0        0.0488
     18  C19       -0.7590   29.7810   61.2790 C.ar    0  <0>0        0.0259
     19  C18       -1.2950   29.7070   62.5510 C.ar    0  <0>0        0.0589
     20  C17       -2.2220   28.7260   62.8560 C.ar    0  <0>0        0.0115
     21 Cl         -0.8020   30.8430   63.7670 Cl      0  <0>0       -0.0822
     22  C16       -2.6170   27.8190   61.8900 C.ar    0  <0>0        0.0021
     23  C15       -2.0890   27.8900   60.6160 C.ar    0  <0>0        0.0146
@<TRIPOS>BOND
     1    16    14    1
     2    13    12    1
     3    14    12   ar
     4    14    15   ar
     5    12    11   ar
     6    15     9   ar
     7    11    10   ar
     8     9    10   ar
     9     9     1    1
    10     2     1    2
    11     1     3   am
    12     3     4    1
    13     3     8    1
    14     4     5    1
    15     8     7    1
    16     5     6    1
    17     7     6    1
    18     6    17    1
    19    17    23   ar
    20    17    18   ar
    21    23    22   ar
    22    18    19   ar
    23    22    20   ar
    24    19    20   ar
    25    19    21    1

@<TRIPOS>MOLECULE
ZINC49921473_replica-1.pdb
 25 27 0 0 0
SMALL
GASTEIGER

@<TRIPOS>ATOM
      1  C11       -1.7030   30.5950   55.9730 C.3     0  <0>0        0.1344
      2  C10       -3.0640   30.6900   55.2790 C.3     0  <0>0        0.0550
      3  C9        -2.8810   30.4840   53.7730 C.3     0  <0>0        0.0899
      4  N1        -1.5070   30.0530   53.5020 N.pl3   0  <0>0       -0.3326
      5  H11       -0.7690   30.6630   53.6550 H       0  <0>0        0.1468
      6  C5        -1.2600   28.7640   53.0250 C.ar    0  <0>0        0.0443
      7  C4        -1.7190   28.3870   51.7680 C.ar    0  <0>0        0.0140
      8  C3        -1.4730   27.1110   51.3000 C.ar    0  <0>0       -0.0033
      9  C2        -0.7700   26.2110   52.0780 C.ar    0  <0>0       -0.0257
     10  C1        -0.5030   24.8200   51.5620 C.3     0  <0>0        0.0307
     11  C7        -0.3170   26.5800   53.3300 C.ar    0  <0>0       -0.0246
     12  C6        -0.5550   27.8560   53.8030 C.ar    0  <0>0        0.0097
     13  C8         0.4440   25.5930   54.1780 C.3     0  <0>0        0.0307
     14  C12       -1.7780   29.5820   57.0870 C.ar    0  <0>0        0.0040
     15  C17       -1.0290   29.7540   58.2310 C.ar    0  <0>0       -0.0065
     16  C16       -1.0960   28.8290   59.2650 C.ar    0  <0>0       -0.0264
     17  C15       -1.9140   27.7290   59.1430 C.ar    0  <0>0       -0.0262
     18  C18       -0.2440   29.0760   60.4820 C.3     0  <0>0        0.0260
     19  C14       -2.6630   27.5540   57.9880 C.ar    0  <0>0       -0.0048
     20  C21       -2.0400   26.6890   60.2250 C.3     0  <0>0        0.0260
     21  C13       -2.5970   28.4740   56.9620 C.ar    0  <0>0       -0.0023
     22  C20       -0.8670   26.7830   61.1990 C.3     0  <0>0        0.0050
     23  C19       -0.7360   28.2390   61.6620 C.3     0  <0>0        0.0050
     24  O1        -1.3550   31.8720   56.5130 O.3     0  <0>0       -0.3800
     25  H27       -0.4200   32.0990   56.4150 H       0  <0>0        0.2108
@<TRIPOS>BOND
     1     8     7   ar
     2     8     9   ar
     3    10     9    1
     4     7     6   ar
     5     9    11   ar
     6     6     4    1
     7     6    12   ar
     8    11    12   ar
     9    11    13    1
    10     4     5    1
    11     4     3    1
    12     3     2    1
    13     2     1    1
    14     1    24    1
    15     1    14    1
    16    25    24    1
    17    21    14   ar
    18    21    19   ar
    19    14    15   ar
    20    19    17   ar
    21    15    16   ar
    22    17    16   ar
    23    17    20    1
    24    16    18    1
    25    20    22    1
    26    18    23    1
    27    22    23    1

@<TRIPOS>MOLECULE
ZINC20614024_replica-1.pdb
 28 31 0 0 0
SMALL
GASTEIGER

@<TRIPOS>ATOM
      1  N1         0.3760   31.4180   57.0220 N.3     0  <0>0       -0.1527
      2  C11       -0.4990   32.5280   57.4320 C.3     0  <0>0        0.1131
      3  C12        0.2930   33.4520   58.3640 C.3     0  <0>0        0.0918
      4  N2         1.5400   33.8580   57.7030 N.3     0  <0>0       -0.2664
      5  C13        2.4060   32.6990   57.4430 C.3     0  <0>0        0.0918
      6  C14        1.7010   31.7440   56.4750 C.3     0  <0>0        0.1131
      7  S1        -0.1200   29.8460   57.1710 S.O2    0  <0>0        0.0634
      8  O1         1.0170   29.0990   57.5840 O.2     0  <0>0       -0.1528
      9  O2        -1.3290   29.8690   57.9180 O.2     0  <0>0       -0.1528
     10  C6        -0.5370   29.2750   55.5570 C.ar    0  <0>0        0.1222
     11  C5        -0.1380   28.0350   55.1610 C.ar    0  <0>0        0.0199
     12  C4        -0.4690   27.5760   53.8730 C.ar    0  <0>0        0.0013
     13  C3        -0.0750   26.3030   53.4300 C.ar    0  <0>0        0.0000
     14  C9        -1.2140   28.4150   53.0080 C.ar    0  <0>0        0.0001
     15  C2        -0.4140   25.8920   52.1770 C.ar    0  <0>0        0.0000
     16  C1        -1.1460   26.7170   51.3250 C.ar    0  <0>0        0.0000
     17  C10       -1.5450   27.9560   51.7220 C.ar    0  <0>0        0.0000
     18  C8        -1.6080   29.6890   53.4520 C.ar    0  <0>0        0.0014
     19  C7        -1.2750   30.0980   54.7070 C.ar    0  <0>0        0.0199
     20  C15        2.2450   34.8770   58.4890 C.3     0  <0>0        0.1001
     21  C16        3.3730   35.4520   57.6710 C.ar    0  <0>0        0.0046
     22  C21        4.6490   35.5180   58.2000 C.ar    0  <0>0        0.0572
     23  C20        5.6840   36.0410   57.4480 C.ar    0  <0>0        0.0407
     24 Cl          4.9510   34.9390   59.8090 Cl      0  <0>0       -0.0825
     25  C19        5.4410   36.5090   56.1680 C.ar    0  <0>0        0.1410
     26  C18        4.1620   36.4470   55.6400 C.ar    0  <0>0        0.0294
     27  F1         6.4500   37.0250   55.4340 F       0  <0>0       -0.2041
     28  C17        3.1290   35.9190   56.3920 C.ar    0  <0>0        0.0002
@<TRIPOS>BOND
     1    16    17   ar
     2    16    15   ar
     3    17    14   ar
     4    15    13   ar
     5    14    18   ar
     6    14    12   ar
     7    13    12   ar
     8    18    19   ar
     9    12    11   ar
    10    19    10   ar
    11    11    10   ar
    12    27    25    1
    13    10     7    1
    14    26    25   ar
    15    26    28   ar
    16    25    23   ar
    17    28    21   ar
    18     6     1    1
    19     6     5    1
    20     1     7    1
    21     1     2    1
    22     7     8    2
    23     7     9    2
    24     2     3    1
    25     5     4    1
    26    23    22   ar
    27    21    22   ar
    28    21    20    1
    29     4     3    1
    30     4    20    1
    31    22    24    1

@<TRIPOS>MOLECULE
ZINC09942606_replica-1.pdb
 30 34 0 0 0
SMALL
GASTEIGER

@<TRIPOS>ATOM
      1  C8        -2.1310   30.3580   56.1450 C.3     0  <0>0        0.1140
      2  C9        -2.1850   29.7180   54.7530 C.3     0  <0>0        0.0850
      3  C10       -0.8290   29.2280   54.3300 C.2     0  <0>0        0.1245
      4  N1         0.2750   29.8420   54.6630 N.2     0  <0>0       -0.3325
      5  C11        0.2020   30.9250   55.4830 C.1     0  <0>0        0.2028
      6  N2        -0.9340   31.2010   56.2090 N.pl3   0  <0>0       -0.2241
      7  C12       -0.6970   32.3230   56.9310 C.3     0  <0>0        0.1630
      8  C13        0.5800   32.7110   56.6430 C.2     0  <0>0        0.1432
      9  N3         1.0980   31.8350   55.7590 N.2     0  <0>0       -0.3308
     10  C5        -2.0550   29.2830   57.1980 C.ar    0  <0>0       -0.0030
     11  C4        -2.8750   28.1730   57.1130 C.ar    0  <0>0        0.0005
     12  C3        -2.8070   27.1870   58.0770 C.ar    0  <0>0        0.0366
     13  C2        -1.9150   27.3100   59.1320 C.ar    0  <0>0        0.1387
     14  C7        -1.0930   28.4240   59.2160 C.ar    0  <0>0        0.0366
     15  C6        -1.1600   29.4060   58.2450 C.ar    0  <0>0        0.0005
     16  O1        -1.8460   26.3400   60.0830 O.3     0  <0>0       -0.4714
     17  C1        -2.4410   25.0800   59.7660 C.3     0  <0>0        0.2525
     18  C20       -0.7410   28.0110   53.5090 C.ar    0  <0>0        0.0265
     19  C25       -0.0570   26.8880   53.9860 C.ar    0  <0>0        0.0027
     20  C24        0.0210   25.7510   53.2110 C.ar    0  <0>0        0.0068
     21  C23       -0.5760   25.7200   51.9610 C.ar    0  <0>0        0.0346
     22  C22       -1.2540   26.8270   51.4810 C.ar    0  <0>0        0.0068
     23 Br         -0.4620   24.1550   50.9050 Br      0  <0>0       -0.0490
     24  C21       -1.3460   27.9690   52.2480 C.ar    0  <0>0        0.0027
     25  C14        1.2780   33.8940   57.2060 C.ar    0  <0>0        0.0281
     26  C19        0.8460   34.4560   58.4060 C.ar    0  <0>0        0.0023
     27  C18        1.5000   35.5540   58.9250 C.ar    0  <0>0        0.0001
     28  C17        2.5820   36.0990   58.2560 C.ar    0  <0>0        0.0000
     29  C16        3.0140   35.5460   57.0640 C.ar    0  <0>0        0.0001
     30  C15        2.3710   34.4430   56.5380 C.ar    0  <0>0        0.0023
@<TRIPOS>BOND
     1    23    21    1
     2    22    21   ar
     3    22    24   ar
     4    21    20   ar
     5    24    18   ar
     6    20    19   ar
     7    18    19   ar
     8    18     3    1
     9     3     4    2
    10     3     2    1
    11     4     5    2
    12     2     1    1
    13     5     9    2
    14     5     6    1
    15     9     8    2
    16     1     6    1
    17     1    10    1
    18     6     7    1
    19    30    29   ar
    20    30    25   ar
    21     8     7    1
    22     8    25    1
    23    29    28   ar
    24    11    10   ar
    25    11    12   ar
    26    10    15   ar
    27    25    26   ar
    28    12    13   ar
    29    15    14   ar
    30    28    27   ar
    31    26    27   ar
    32    13    14   ar
    33    13    16    1
    34    17    16    1

@<TRIPOS>MOLECULE
ZINC10228724_replica-1.pdb
 30 32 0 0 0
SMALL
GASTEIGER

@<TRIPOS>ATOM
      1  C11       -2.0690   28.4870   56.7100 C.2     0  <0>0        0.2018
      2  O1        -2.9350   28.2430   57.5220 O.2     0  <0>0       -0.2774
      3  N1        -0.8720   27.8740   56.7970 N.am    0  <0>0       -0.3000
      4  H15       -0.1780   28.0690   56.1470 H       0  <0>0        0.1499
      5  C10       -2.3300   29.4760   55.6030 C.3     0  <0>0        0.0103
      6  N2        -1.0840   29.6670   54.8300 N.4     0  <0>0        0.3952
      7  C9        -0.3570   30.8530   55.3300 C.3     0  <0>0       -0.0994
      8  H23       -0.4890   28.8380   54.9470 H       0  <0>0       -0.0785
      9  C2        -1.4000   29.8340   53.3960 C.3     0  <0>0       -0.0341
     10  C1        -2.8300   30.3610   53.2620 C.3     0  <0>0       -0.0183
     11  C3        -1.2910   28.4960   52.7110 C.ar    0  <0>0       -0.0414
     12  C8        -1.9900   28.2600   51.5430 C.ar    0  <0>0       -0.0040
     13  C7        -1.8910   27.0340   50.9130 C.ar    0  <0>0        0.0292
     14  C6        -1.0910   26.0420   51.4530 C.ar    0  <0>0        0.1401
     15  C5        -0.3900   26.2800   52.6240 C.ar    0  <0>0        0.0292
     16  F1        -0.9910   24.8430   50.8390 F       0  <0>0       -0.2042
     17  C4        -0.4860   27.5090   53.2480 C.ar    0  <0>0       -0.0040
     18  C12       -0.6180   26.9120   57.8720 C.3     0  <0>0        0.1229
     19  C13       -0.2490   25.5770   57.2760 C.ar    0  <0>0        0.0003
     20  C18        0.3200   25.5170   56.0180 C.ar    0  <0>0       -0.0000
     21  C17        0.6580   24.2940   55.4700 C.ar    0  <0>0        0.0294
     22  C16        0.4270   23.1290   56.1820 C.ar    0  <0>0        0.1401
     23  C15       -0.1450   23.1910   57.4430 C.ar    0  <0>0        0.0294
     24  F2         0.7560   21.9320   55.6480 F       0  <0>0       -0.2042
     25  C14       -0.4770   24.4160   57.9900 C.ar    0  <0>0       -0.0000
     26  C19        0.5160   27.4080   58.7320 C.ar    0  <0>0        0.0292
     27  S1         0.6150   27.5150   60.5120 S.2     0  <0>0       -0.0888
     28  C22        2.2620   28.1930   60.6320 C.ar    0  <0>0        0.0352
     29  C21        2.6210   28.2910   59.3290 C.ar    0  <0>0        0.0072
     30  C20        1.7270   27.8890   58.3550 C.ar    0  <0>0        0.0046
@<TRIPOS>BOND
     1    16    14    1
     2    13    14   ar
     3    13    12   ar
     4    14    15   ar
     5    12    11   ar
     6    15    17   ar
     7    11    17   ar
     8    11     9    1
     9    10     9    1
    10     9     6    1
    11     6     8    1
    12     6     7    1
    13     6     5    1
    14    21    20   ar
    15    21    22   ar
    16     5     1    1
    17    24    22    1
    18    20    19   ar
    19     4     3    1
    20    22    23   ar
    21     1     3   am
    22     1     2    2
    23     3    18    1
    24    19    18    1
    25    19    25   ar
    26    23    25   ar
    27    18    26    1
    28    30    26   ar
    29    30    29   ar
    30    26    27   ar
    31    29    28   ar
    32    27    28   ar

@<TRIPOS>MOLECULE
ZINC00198257_replica-1.pdb
 27 29 0 0 0
SMALL
GASTEIGER

@<TRIPOS>ATOM
      1  C1         8.0470   38.5760   58.3480 C.3     0  <0>0        0.0630
      2  C2         8.6250   37.2010   58.5610 C.2     0  <0>0        0.1074
      3  C3         8.3650   36.1860   57.6580 C.3     0  <0>0        0.1211
      4  C4         8.9240   34.9270   57.8910 C.2     0  <0>0        0.1793
      5  N1         9.6790   34.7480   58.9700 N.2     0  <0>0       -0.3287
      6  C5         9.9000   35.7450   59.8140 C.1     0  <0>0        0.1381
      7  N2         9.3820   36.9500   59.6170 N.2     0  <0>0       -0.3482
      8  N3         8.6950   33.8810   57.0110 N.pl3   0  <0>0       -0.2905
      9  H9         9.0460   33.9220   56.1070 H       0  <0>0        0.1543
     10  C12        7.9630   32.7730   57.4220 C.ar    0  <0>0        0.0499
     11  C17        6.6450   32.6150   56.9990 C.ar    0  <0>0        0.0147
     12  C16        5.9220   31.5290   57.4010 C.ar    0  <0>0        0.0041
     13  C15        6.5080   30.5710   58.2400 C.ar    0  <0>0        0.0348
     14  C14        7.8340   30.7340   58.6620 C.ar    0  <0>0        0.0041
     15  C13        8.5510   31.8210   58.2510 C.ar    0  <0>0        0.0147
     16  C18        5.7350   29.4020   58.6750 C.2     0  <0>0        0.1735
     17  O1         4.5230   29.4540   58.7080 O.2     0  <0>0       -0.2913
     18  C19        6.4460   28.1370   59.0810 C.3     0  <0>0        0.0773
     19  C20        7.5020   36.4330   56.4480 C.3     0  <0>0        0.0412
     20  C21        6.0550   36.2170   56.8100 C.2     0  <0>0       -0.0253
     21  C22        5.1280   36.3180   55.8890 C.2     0  <0>0       -0.0049
     22  C6        10.7490   35.5090   61.0080 C.ar    0  <0>0        0.0856
     23  C11       10.9740   36.5380   61.9200 C.ar    0  <0>0        0.0120
     24  C10       11.7640   36.3120   63.0300 C.ar    0  <0>0        0.0007
     25  C9        12.3310   35.0680   63.2360 C.ar    0  <0>0        0.0000
     26  C8        12.1110   34.0430   62.3330 C.ar    0  <0>0        0.0007
     27  C7        11.3190   34.2550   61.2230 C.ar    0  <0>0        0.0120
@<TRIPOS>BOND
     1    21    20    2
     2     9     8    1
     3    19    20    1
     4    19     3    1
     5    11    12   ar
     6    11    10   ar
     7     8    10    1
     8     8     4    1
     9    12    13   ar
    10    10    15   ar
    11     3     4    1
    12     3     2    1
    13     4     5    2
    14    13    14   ar
    15    13    16    1
    16    15    14   ar
    17     1     2    1
    18     2     7    2
    19    16    17    2
    20    16    18    1
    21     5     6    2
    22     7     6    2
    23     6    22    1
    24    22    27   ar
    25    22    23   ar
    26    27    26   ar
    27    23    24   ar
    28    26    25   ar
    29    24    25   ar

@<TRIPOS>MOLECULE
ZINC01102636_replica-1.pdb
 29 33 0 0 0
SMALL
GASTEIGER

@<TRIPOS>ATOM
      1  C9        -0.1690   28.8290   56.1850 C.3     0  <0>0        0.0716
      2  C10       -0.9150   29.1180   54.9140 C.ar    0  <0>0        0.0007
      3  C11       -0.8520   28.2150   53.8400 C.ar    0  <0>0        0.0155
      4  C12       -0.0960   27.0300   53.9300 C.ar    0  <0>0        0.0028
      5  C13       -0.0760   26.1950   52.8490 C.ar    0  <0>0        0.0207
      6  C14       -0.7910   26.5290   51.6990 C.ar    0  <0>0        0.0988
      7  N1        -1.4930   27.6330   51.6210 N.ar    0  <0>0       -0.2438
      8  C15       -1.5570   28.4920   52.6440 C.ar    0  <0>0        0.0811
      9  C16       -2.3170   29.6730   52.5520 C.ar    0  <0>0        0.0203
     10  C17       -2.3650   30.5320   53.6020 C.ar    0  <0>0        0.0158
     11  C18       -1.6660   30.2650   54.7870 C.ar    0  <0>0        0.0447
     12  N2        -1.7280   31.1680   55.8490 N.pl3   0  <0>0       -0.3162
     13  C19       -0.7680   31.1620   56.8200 C.2     0  <0>0        0.0246
     14  C20        0.0080   30.0750   57.0140 C.2     0  <0>0        0.0296
     15  C21        1.0130   30.0740   57.9960 C.2     0  <0>0        0.1706
     16  O2         1.6960   29.0800   58.1470 O.2     0  <0>0       -0.2916
     17  C22        1.2600   31.2770   58.8630 C.3     0  <0>0        0.0693
     18  C23        0.8540   32.5390   58.0950 C.3     0  <0>0        0.0141
     19  C24       -0.6050   32.3980   57.6700 C.3     0  <0>0        0.0414
     20  H16       -2.4590   31.8050   55.8980 H       0  <0>0        0.1519
     21  C6        -0.9380   27.8110   56.9860 C.ar    0  <0>0       -0.0140
     22  C5        -0.3610   26.5900   57.2870 C.ar    0  <0>0       -0.0005
     23  C4        -1.0630   25.6550   58.0210 C.ar    0  <0>0        0.0366
     24  C3        -2.3490   25.9400   58.4580 C.ar    0  <0>0        0.1385
     25  C8        -2.9280   27.1620   58.1500 C.ar    0  <0>0        0.0366
     26  C7        -2.2200   28.0960   57.4200 C.ar    0  <0>0       -0.0005
     27  O1        -3.0420   25.0210   59.1810 O.3     0  <0>0       -0.4755
     28  C2        -2.3820   23.7840   59.4610 C.3     0  <0>0        0.2055
     29  C1        -3.0940   22.6480   58.7250 C.3     0  <0>0        0.0512
@<TRIPOS>BOND
     1     7     6   ar
     2     7     8   ar
     3     6     5   ar
     4     9     8   ar
     5     9    10   ar
     6     8     3   ar
     7     5     4   ar
     8    10    11   ar
     9     3     4   ar
    10     3     2   ar
    11    11     2   ar
    12    11    12    1
    13     2     1    1
    14    12    20    1
    15    12    13    1
    16     1    21    1
    17     1    14    1
    18    13    14    2
    19    13    19    1
    20    21    22   ar
    21    21    26   ar
    22    14    15    1
    23    22    23   ar
    24    26    25   ar
    25    19    18    1
    26    15    16    2
    27    15    17    1
    28    23    24   ar
    29    18    17    1
    30    25    24   ar
    31    24    27    1
    32    29    28    1
    33    27    28    1

@<TRIPOS>MOLECULE
ZINC13412878_replica-1.pdb
 29 31 0 0 0
SMALL
GASTEIGER

@<TRIPOS>ATOM
      1  C3         0.9230   30.3360   57.9170 C.2     0  <0>0        0.2631
      2  O1         1.9710   29.9040   58.3510 O.2     0  <0>0       -0.2712
      3  N1         0.5510   31.6010   58.1930 N.am    0  <0>0       -0.2957
      4  H5        -0.2860   31.9470   57.8460 H       0  <0>0        0.1501
      5  C4         1.4100   32.4550   59.0180 C.3     0  <0>0        0.1170
      6  C5         0.7580   32.6800   60.3580 C.ar    0  <0>0       -0.0003
      7  C10        0.2290   33.9180   60.6700 C.ar    0  <0>0       -0.0024
      8  C9        -0.3690   34.1240   61.8990 C.ar    0  <0>0       -0.0003
      9  C8        -0.4390   33.0910   62.8150 C.ar    0  <0>0       -0.0000
     10  C7         0.0900   31.8530   62.5030 C.ar    0  <0>0       -0.0003
     11  C6         0.6870   31.6470   61.2740 C.ar    0  <0>0       -0.0024
     12  C11        1.6110   33.7800   58.3290 C.ar    0  <0>0       -0.0003
     13  C16        2.7770   34.4950   58.5320 C.ar    0  <0>0       -0.0024
     14  C15        2.9620   35.7110   57.8990 C.ar    0  <0>0       -0.0003
     15  C14        1.9800   36.2120   57.0650 C.ar    0  <0>0       -0.0000
     16  C13        0.8150   35.4970   56.8610 C.ar    0  <0>0       -0.0003
     17  C12        0.6320   34.2790   57.4890 C.ar    0  <0>0       -0.0024
     18  C2         0.0400   29.4590   57.0690 C.3     0  <0>0        0.2411
     19  C1        -1.4090   29.5830   57.5430 C.3     0  <0>0        0.0574
     20  O2         0.1310   29.8690   55.7030 O.3     0  <0>0       -0.4700
     21  C17       -0.1430   28.9330   54.7590 C.ar    0  <0>0        0.1391
     22  C22        0.4280   27.6690   54.8510 C.ar    0  <0>0        0.0371
     23  C21        0.1520   26.7160   53.8960 C.ar    0  <0>0        0.0097
     24  C20       -0.7020   27.0210   52.8330 C.ar    0  <0>0        0.0800
     25  C19       -1.2750   28.2940   52.7440 C.ar    0  <0>0        0.0097
     26  C18       -0.9980   29.2400   53.7060 C.ar    0  <0>0        0.0371
     27  C23       -1.0000   26.0050   51.8070 C.2     0  <0>0        0.3878
     28  O3        -1.7440   26.2740   50.8840 O.co2   0  <0>0       -0.2406
     29  O4        -0.4490   24.7780   51.8920 O.co2   0  <0>0       -0.2406
@<TRIPOS>BOND
     1    28    27   ar
     2    27    29   ar
     3    27    24    1
     4    25    24   ar
     5    25    26   ar
     6    24    23   ar
     7    26    21   ar
     8    23    22   ar
     9    21    22   ar
    10    21    20    1
    11    20    18    1
    12    16    15   ar
    13    16    17   ar
    14    15    14   ar
    15    18    19    1
    16    18     1    1
    17    17    12   ar
    18     4     3    1
    19    14    13   ar
    20     1     3   am
    21     1     2    2
    22     3     5    1
    23    12    13   ar
    24    12     5    1
    25     5     6    1
    26     6     7   ar
    27     6    11   ar
    28     7     8   ar
    29    11    10   ar
    30     8     9   ar
    31    10     9   ar

@<TRIPOS>MOLECULE
ZINC45620650_replica-1.pdb
 26 28 0 0 0
SMALL
GASTEIGER

@<TRIPOS>ATOM
      1  S1         7.8230   33.5630   59.6760 S.O2    0  <0>0        0.0765
      2  O2         8.7400   32.8000   58.9030 O.2     0  <0>0       -0.1497
      3  O3         6.9480   32.9690   60.6250 O.2     0  <0>0       -0.1497
      4  N1         8.7170   34.6880   60.4960 N.pl3   0  <0>0       -0.1909
      5  C5         9.8770   34.3110   61.1880 C.ar    0  <0>0        0.0650
      6  C4        10.1170   32.9620   61.4200 C.ar    0  <0>0        0.0189
      7  C6        10.7780   35.2640   61.6350 C.ar    0  <0>0       -0.0042
      8  C3        11.2540   32.5670   62.0940 C.ar    0  <0>0        0.0382
      9  C2        12.1590   33.5190   62.5400 C.ar    0  <0>0        0.1385
     10  C7        11.9180   34.8640   62.3150 C.ar    0  <0>0        0.0339
     11  C8        10.5440   36.7360   61.4110 C.3     0  <0>0        0.0296
     12  C9         9.5620   36.9520   60.2600 C.3     0  <0>0        0.0281
     13  C10        8.3100   36.1000   60.5100 C.3     0  <0>0        0.1162
     14  O1        13.2810   33.1330   63.2040 O.3     0  <0>0       -0.4714
     15  C1        13.4490   31.7320   63.4330 C.3     0  <0>0        0.2525
     16  C11        6.8070   34.4370   58.5320 C.ar    0  <0>0        0.1254
     17  C16        7.3730   35.0330   57.4200 C.ar    0  <0>0        0.0249
     18  C15        6.5760   35.7150   56.5200 C.ar    0  <0>0        0.0833
     19  C14        5.2130   35.8090   56.7360 C.ar    0  <0>0        0.0616
     20  C13        4.6480   35.2170   57.8510 C.ar    0  <0>0        0.0127
     21 Cl          4.2130   36.6690   55.6090 Cl      0  <0>0       -0.0823
     22  C12        5.4450   34.5310   58.7480 C.ar    0  <0>0        0.0210
     23  C17        7.1930   36.3600   55.3050 C.3     0  <0>0        0.4194
     24  F1         6.9310   37.7340   55.3220 F       0  <0>0       -0.1658
     25  F2         8.5760   36.1480   55.3170 F       0  <0>0       -0.1658
     26  F3         6.6450   35.7950   54.1490 F       0  <0>0       -0.1658
@<TRIPOS>BOND
     1    26    23    1
     2    23    25    1
     3    23    24    1
     4    23    18    1
     5    21    19    1
     6    18    19   ar
     7    18    17   ar
     8    19    20   ar
     9    17    16   ar
    10    20    22   ar
    11    16    22   ar
    12    16     1    1
    13     2     1    2
    14     1     4    1
    15     1     3    2
    16    12    13    1
    17    12    11    1
    18     4    13    1
    19     4     5    1
    20     5     6   ar
    21     5     7   ar
    22    11     7    1
    23     6     8   ar
    24     7    10   ar
    25     8     9   ar
    26    10     9   ar
    27     9    14    1
    28    14    15    1

@<TRIPOS>MOLECULE
ZINC04970169_replica-1.pdb
 28 32 0 0 0
SMALL
GASTEIGER

@<TRIPOS>ATOM
      1  C7        10.8070   33.1830   61.7160 C.ar    0  <0>0        0.1042
      2  C8        10.4280   34.5480   61.3460 C.ar    0  <0>0        0.0562
      3  C9        10.9890   35.8160   61.5660 C.ar    0  <0>0        0.1018
      4  N1        10.4190   36.9000   61.1060 N.ar    0  <0>0       -0.2436
      5  C10        9.2750   36.8650   60.4070 C.ar    0  <0>0        0.0851
      6  C11        8.6920   38.0490   59.9310 C.ar    0  <0>0        0.0511
      7  C12        7.5280   37.9970   59.2220 C.ar    0  <0>0        0.1689
      8  C13        6.9010   36.7770   58.9600 C.ar    0  <0>0        0.1675
      9  C14        7.4420   35.6080   59.4100 C.ar    0  <0>0        0.0350
     10  C15        8.6370   35.6300   60.1400 C.ar    0  <0>0        0.0378
     11  C16        9.2300   34.4390   60.6220 C.ar    0  <0>0        0.0872
     12  N2         8.9130   33.1160   60.5610 N.ar    0  <0>0       -0.2296
     13  N3         9.8870   32.3750   61.2410 N.ar    0  <0>0       -0.1651
     14  F2         5.7490   36.7540   58.2550 F       0  <0>0       -0.2018
     15  F3         6.9730   39.1420   58.7670 F       0  <0>0       -0.2017
     16  C17        7.7870   32.5810   59.9240 C.ar    0  <0>0        0.0829
     17  C22        6.5980   32.4290   60.6250 C.ar    0  <0>0        0.0215
     18  C21        5.4880   31.9020   59.9950 C.ar    0  <0>0        0.0312
     19  C20        5.5610   31.5240   58.6640 C.ar    0  <0>0        0.1402
     20  C19        6.7440   31.6800   57.9620 C.ar    0  <0>0        0.0312
     21  F1         4.4740   31.0090   58.0490 F       0  <0>0       -0.2042
     22  C18        7.8580   32.2010   58.5900 C.ar    0  <0>0        0.0215
     23  C4        12.0070   32.7850   62.4910 C.ar    0  <0>0        0.0194
     24  C3        13.1190   33.6250   62.5390 C.ar    0  <0>0        0.0016
     25  C2        14.2330   33.2500   63.2610 C.ar    0  <0>0        0.0000
     26  C1        14.2470   32.0430   63.9380 C.ar    0  <0>0        0.0000
     27  C6        13.1470   31.2050   63.8930 C.ar    0  <0>0        0.0000
     28  C5        12.0250   31.5720   63.1790 C.ar    0  <0>0        0.0016
@<TRIPOS>BOND
     1    20    22   ar
     2    20    19   ar
     3    21    19    1
     4    14     8    1
     5    22    16   ar
     6    19    18   ar
     7    15     7    1
     8     8     7   ar
     9     8     9   ar
    10     7     6   ar
    11     9    10   ar
    12    16    12    1
    13    16    17   ar
    14     6     5   ar
    15    18    17   ar
    16    10     5   ar
    17    10    11   ar
    18     5     4   ar
    19    12    11   ar
    20    12    13   ar
    21    11     2   ar
    22     4     3   ar
    23    13     1   ar
    24     2     3   ar
    25     2     1   ar
    26     1    23    1
    27    23    24   ar
    28    23    28   ar
    29    24    25   ar
    30    28    27   ar
    31    25    26   ar
    32    27    26   ar

@<TRIPOS>MOLECULE
ZINC59382142_replica-1.pdb
 32 36 0 0 0
SMALL
GASTEIGER

@<TRIPOS>ATOM
      1  C1         9.2860   34.8970   58.2060 C.3     0  <0>0        0.0103
      2  C2         8.0170   34.3830   58.8880 C.3     0  <0>0        0.0860
      3  C3         7.8440   34.9080   60.3150 C.3     0  <0>0        0.0525
      4  C4         7.0790   36.1850   60.3860 C.2     0  <0>0       -0.0258
      5  C5         6.3280   36.6480   59.4440 C.2     0  <0>0       -0.0258
      6  C6         6.1650   35.9760   58.1160 C.3     0  <0>0        0.0530
      7  C7         6.7420   34.6200   58.0620 C.3     0  <0>0        0.0942
      8  C8         5.8420   33.5020   58.5070 C.2     0  <0>0        0.2358
      9  O1         4.6300   33.5000   58.5040 O.2     0  <0>0       -0.2741
     10  N1         6.6540   32.5000   58.9090 N.am    0  <0>0       -0.2051
     11  C9         7.9520   32.8500   58.9970 C.2     0  <0>0        0.2354
     12  O2         8.8930   32.0980   59.1370 O.2     0  <0>0       -0.2741
     13  C10        6.1870   31.2100   59.2090 C.ar    0  <0>0        0.0945
     14  C15        5.9130   30.8560   60.5270 C.ar    0  <0>0        0.1526
     15  C14        5.4480   29.5820   60.8160 C.ar    0  <0>0        0.0382
     16  C13        5.2680   28.6650   59.7990 C.ar    0  <0>0        0.0032
     17  C12        5.5450   29.0150   58.4900 C.ar    0  <0>0        0.0015
     18  C11        6.0050   30.2840   58.1920 C.ar    0  <0>0        0.0184
     19  O3         6.0960   31.7580   61.5270 O.3     0  <0>0       -0.4702
     20  C16        4.9730   32.5660   61.8850 C.3     0  <0>0        0.2525
     21  C17        4.6960   35.9000   57.7910 C.ar    0  <0>0       -0.0180
     22  C22        4.2870   35.6390   56.4970 C.ar    0  <0>0       -0.0039
     23  C21        2.9380   35.5650   56.2010 C.ar    0  <0>0       -0.0003
     24  C20        2.0000   35.7620   57.1960 C.ar    0  <0>0       -0.0000
     25  C19        2.4090   36.0290   58.4890 C.ar    0  <0>0       -0.0003
     26  C18        3.7570   36.0980   58.7870 C.ar    0  <0>0       -0.0039
     27  C23        9.2080   35.1310   60.9170 C.ar    0  <0>0       -0.0180
     28  C28       10.0540   34.0580   61.1300 C.ar    0  <0>0       -0.0039
     29  C27       11.3060   34.2640   61.6780 C.ar    0  <0>0       -0.0003
     30  C26       11.7090   35.5410   62.0210 C.ar    0  <0>0       -0.0000
     31  C25       10.8610   36.6120   61.8130 C.ar    0  <0>0       -0.0003
     32  C24        9.6100   36.4080   61.2610 C.ar    0  <0>0       -0.0039
@<TRIPOS>BOND
     1    23    22   ar
     2    23    24   ar
     3    22    21   ar
     4    24    25   ar
     5    21     6    1
     6    21    26   ar
     7     7     6    1
     8     7     8    1
     9     7     2    1
    10     6     5    1
    11    18    17   ar
    12    18    13   ar
    13     1     2    1
    14    25    26   ar
    15    17    16   ar
    16     9     8    2
    17     8    10   am
    18     2    11    1
    19     2     3    1
    20    10    11   am
    21    10    13    1
    22    11    12    2
    23    13    14   ar
    24     5     4    2
    25    16    15   ar
    26     3     4    1
    27     3    27    1
    28    14    15   ar
    29    14    19    1
    30    27    28   ar
    31    27    32   ar
    32    28    29   ar
    33    32    31   ar
    34    19    20    1
    35    29    30   ar
    36    31    30   ar

@<TRIPOS>MOLECULE
ZINC21250641_replica-1.pdb
 36 40 0 0 0
SMALL
GASTEIGER

@<TRIPOS>ATOM
      1  C11        8.3340   35.1400   59.9210 C.3     0  <0>0        0.0356
      2  C12        7.1250   35.2530   60.8470 C.3     0  <0>0        0.0458
      3  C13        5.8570   35.4230   60.0270 C.2     0  <0>0        0.0262
      4  C14        5.8890   36.0730   58.8510 C.2     0  <0>0        0.0437
      5  C15        4.7090   36.3100   57.9380 C.3     0  <0>0        0.1208
      6  N1         3.4230   36.0080   58.5300 N.pl3   0  <0>0       -0.3261
      7  C16        3.0940   34.7070   58.9010 C.ar    0  <0>0        0.0586
      8  C17        2.0890   34.0050   58.2520 C.ar    0  <0>0        0.0156
      9  C18        1.8370   32.6920   58.6080 C.ar    0  <0>0        0.0013
     10  C19        2.5800   32.0800   59.6020 C.ar    0  <0>0        0.0014
     11  C20        3.5720   32.7830   60.2640 C.ar    0  <0>0        0.0158
     12  C21        3.8110   34.1020   59.9220 C.ar    0  <0>0        0.0614
     13  N2         4.7430   34.8890   60.5910 N.pl3   0  <0>0       -0.3150
     14  C28        7.1080   36.5930   58.3570 C.2     0  <0>0        0.1722
     15  O2         7.1030   37.1980   57.3020 O.2     0  <0>0       -0.2916
     16  C29        8.4060   36.4250   59.0880 C.3     0  <0>0        0.0736
     17  H18        2.6910   36.8120   58.6930 H       0  <0>0        0.1474
     18  H23        4.5250   35.0670   61.6540 H       0  <0>0        0.1520
     19  C8         9.5920   34.9890   60.7380 C.ar    0  <0>0       -0.0215
     20  C7        10.2360   36.1120   61.2260 C.ar    0  <0>0       -0.0011
     21  C6        11.3880   35.9760   61.9760 C.ar    0  <0>0        0.0366
     22  C5        11.8990   34.7130   62.2380 C.ar    0  <0>0        0.1385
     23  C10       11.2520   33.5900   61.7470 C.ar    0  <0>0        0.0366
     24  C9        10.0960   33.7290   61.0030 C.ar    0  <0>0       -0.0011
     25  O1        13.0330   34.5780   62.9740 O.3     0  <0>0       -0.4755
     26  C4        14.1660   34.0000   62.3220 C.3     0  <0>0        0.2053
     27  C2        14.8790   33.0500   63.2850 C.3     0  <0>0        0.0438
     28  C1        15.3210   33.8220   64.5290 C.3     0  <0>0        0.0038
     29  C3        13.9230   31.9270   63.6950 C.3     0  <0>0        0.0038
     30  C22        4.8770   35.4560   56.7080 C.ar    0  <0>0        0.0272
     31  C27        4.3220   35.8580   55.5050 C.ar    0  <0>0        0.1380
     32  C26        4.4800   35.0730   54.3740 C.ar    0  <0>0        0.0294
     33  F1         3.6280   37.0140   55.4340 F       0  <0>0       -0.2044
     34  C25        5.1850   33.8870   54.4500 C.ar    0  <0>0        0.0023
     35  C24        5.7360   33.4850   55.6520 C.ar    0  <0>0       -0.0001
     36  C23        5.5820   34.2690   56.7810 C.ar    0  <0>0       -0.0001
@<TRIPOS>BOND
     1    32    34   ar
     2    32    31   ar
     3    34    35   ar
     4    33    31    1
     5    31    30   ar
     6    35    36   ar
     7    30    36   ar
     8    30     5    1
     9    15    14    2
    10     5     6    1
    11     5     4    1
    12     8     9   ar
    13     8     7   ar
    14    14     4    1
    15    14    16    1
    16     6    17    1
    17     6     7    1
    18     9    10   ar
    19     4     3    2
    20     7    12   ar
    21    16     1    1
    22    10    11   ar
    23     1    19    1
    24     1     2    1
    25    12    11   ar
    26    12    13    1
    27     3    13    1
    28     3     2    1
    29    13    18    1
    30    19    24   ar
    31    19    20   ar
    32    24    23   ar
    33    20    21   ar
    34    23    22   ar
    35    21    22   ar
    36    22    25    1
    37    26    25    1
    38    26    27    1
    39    27    29    1
    40    27    28    1

@<TRIPOS>MOLECULE
ZINC02151438_replica-1.pdb
 30 32 0 0 0
SMALL
GASTEIGER

@<TRIPOS>ATOM
      1  C11        5.1470   35.4410   58.6120 C.3     0  <0>0        0.0234
      2  C10        5.4360   35.9340   60.0310 C.3     0  <0>0       -0.0189
      3  C9         5.9610   37.3700   59.9760 C.3     0  <0>0       -0.0809
      4  N1         6.6970   37.5670   58.7120 N.4     0  <0>0        0.3876
      5  H35        6.8020   36.6620   58.2370 H       0  <0>0       -0.0839
      6  H36        6.1710   38.2110   58.1100 H       0  <0>0       -0.0839
      7  C2         8.0320   38.1330   58.9810 C.3     0  <0>0       -0.0385
      8  C1         8.6020   38.7320   57.6930 C.3     0  <0>0       -0.0189
      9  C3         8.9440   37.0370   59.4730 C.ar    0  <0>0       -0.0421
     10  C8         9.5380   37.1400   60.7170 C.ar    0  <0>0       -0.0063
     11  C7        10.3730   36.1360   61.1690 C.ar    0  <0>0       -0.0004
     12  C6        10.6100   35.0270   60.3790 C.ar    0  <0>0       -0.0000
     13  C5        10.0210   34.9270   59.1330 C.ar    0  <0>0       -0.0004
     14  C4         9.1850   35.9310   58.6810 C.ar    0  <0>0       -0.0063
     15  C12        3.6590   35.4270   58.3780 C.ar    0  <0>0        0.0114
     16  C17        3.1430   35.8580   57.1640 C.ar    0  <0>0        0.1347
     17  C16        1.7730   35.8400   56.9490 C.ar    0  <0>0        0.0366
     18  C15        0.9250   35.4020   57.9470 C.ar    0  <0>0        0.0031
     19  C14        1.4400   34.9770   59.1580 C.ar    0  <0>0       -0.0001
     20  C13        2.8060   34.9890   59.3730 C.ar    0  <0>0       -0.0013
     21  O1         3.9790   36.2950   56.1860 O.3     0  <0>0       -0.4717
     22  C18        3.9960   35.5500   54.9660 C.3     0  <0>0        0.2525
     23  C19        5.7040   34.0260   58.4400 C.3     0  <0>0        0.0089
     24  C23        6.5860   33.6720   59.6420 C.3     0  <0>0        0.0276
     25  C22        7.2010   32.2880   59.4230 C.3     0  <0>0        0.0929
     26  O2         7.9470   32.2860   58.2050 O.3     0  <0>0       -0.3585
     27  C24        6.0870   31.2420   59.3410 C.3     0  <0>0        0.0296
     28  C25        8.1300   31.9530   60.5910 C.3     0  <0>0        0.0296
     29  C21        7.1650   32.5640   57.0410 C.3     0  <0>0        0.1420
     30  C20        6.5490   33.9600   57.1630 C.3     0  <0>0        0.0325
@<TRIPOS>BOND
     1    22    21    1
     2    21    16    1
     3    17    16   ar
     4    17    18   ar
     5    29    30    1
     6    29    26    1
     7    30    23    1
     8    16    15   ar
     9     8     7    1
    10    18    19   ar
    11     6     4    1
    12    26    25    1
    13     5     4    1
    14    15     1    1
    15    15    20   ar
    16    23     1    1
    17    23    24    1
    18     1     2    1
    19    14    13   ar
    20    14     9   ar
    21     4     7    1
    22     4     3    1
    23     7     9    1
    24    13    12   ar
    25    19    20   ar
    26    27    25    1
    27    25    24    1
    28    25    28    1
    29     9    10   ar
    30     3     2    1
    31    12    11   ar
    32    10    11   ar

@<TRIPOS>MOLECULE
ZINC14986657_replica-1.pdb
 30 33 0 0 0
SMALL
GASTEIGER

@<TRIPOS>ATOM
      1  C2        -1.1270   28.5270   59.7730 C.ar    0  <0>0        0.1393
      2  C3        -0.3220   29.6240   60.0430 C.ar    0  <0>0        0.0382
      3  C4        -0.0360   30.5500   59.0570 C.ar    0  <0>0        0.0181
      4  C5        -0.5610   30.3800   57.7800 C.ar    0  <0>0        0.0541
      5  C6        -1.3680   29.2890   57.5200 C.ar    0  <0>0        0.0418
      6  C7        -1.6560   28.3560   58.4990 C.ar    0  <0>0        0.0443
      7  S1        -2.0470   29.1140   55.8880 S.3     0  <0>0       -0.1087
      8  C8        -0.5470   28.8330   54.8890 C.3     0  <0>0        0.0757
      9  C9         0.1560   30.1570   54.6510 C.3     0  <0>0        0.0370
     10  C10        0.7730   30.8040   55.8720 C.3     0  <0>0        0.0924
     11  N1        -0.2500   31.3310   56.7860 N.pl3   0  <0>0       -0.3007
     12  C15       -0.9320   28.2260   53.5650 C.ar    0  <0>0       -0.0082
     13  C20       -0.5070   26.9520   53.2380 C.ar    0  <0>0        0.0683
     14  C19       -0.8600   26.3960   52.0220 C.ar    0  <0>0        0.0036
     15  C18       -1.6380   27.1140   51.1340 C.ar    0  <0>0       -0.0001
     16  C17       -2.0590   28.3890   51.4580 C.ar    0  <0>0       -0.0003
     17  C16       -1.7100   28.9440   52.6760 C.ar    0  <0>0       -0.0035
     18  C21        0.3420   26.1700   54.2070 C.3     0  <0>0        0.4183
     19  F1         1.6450   26.6790   54.2010 F       0  <0>0       -0.1659
     20  F2        -0.1960   26.2790   55.4930 F       0  <0>0       -0.1659
     21  F3         0.3670   24.8250   53.8240 F       0  <0>0       -0.1659
     22  C11        0.1840   32.5980   57.3870 C.3     0  <0>0        0.1554
     23  C12        1.5830   32.9200   56.9280 C.ar    0  <0>0        0.1374
     24  N3         2.6840   32.5160   57.5010 N.ar    0  <0>0       -0.2278
     25  C14        3.7370   32.9900   56.8200 C.ar    0  <0>0        0.1187
     26  C13        3.2720   33.7230   55.7900 C.ar    0  <0>0        0.0943
     27  N2         1.9050   33.6790   55.8580 N.ar    0  <0>0       -0.3382
     28  H2         1.2650   34.1260   55.2340 H       0  <0>0        0.1672
     29  O1        -1.3980   27.6230   60.7510 O.3     0  <0>0       -0.4714
     30  C1        -1.4410   26.2460   60.3680 C.3     0  <0>0        0.2525
@<TRIPOS>BOND
     1    15    16   ar
     2    15    14   ar
     3    16    17   ar
     4    14    13   ar
     5    17    12   ar
     6    13    12   ar
     7    13    18    1
     8    12     8    1
     9    21    18    1
    10    19    18    1
    11    18    20    1
    12     9     8    1
    13     9    10    1
    14     8     7    1
    15    28    27    1
    16    26    27   ar
    17    26    25   ar
    18    27    23   ar
    19    10    11    1
    20     7     5    1
    21    11    22    1
    22    11     4    1
    23    25    24   ar
    24    23    22    1
    25    23    24   ar
    26     5     4   ar
    27     5     6   ar
    28     4     3   ar
    29     6     1   ar
    30     3     2   ar
    31     1     2   ar
    32     1    29    1
    33    30    29    1

@<TRIPOS>MOLECULE
ZINC09225696_replica-1.pdb
 31 35 0 0 0
SMALL
GASTEIGER

@<TRIPOS>ATOM
      1  C1         6.9980   30.3390   58.6040 C.ar    0  <0>0       -0.0001
      2  C2         8.2480   30.7850   58.2140 C.ar    0  <0>0        0.0013
      3  C3         8.5400   32.1330   58.2260 C.ar    0  <0>0        0.0147
      4  C4         7.5780   33.0560   58.6320 C.ar    0  <0>0        0.0530
      5  C5         6.3230   32.5950   59.0220 C.ar    0  <0>0        0.0258
      6  C6         6.0370   31.2470   59.0070 C.ar    0  <0>0       -0.0002
      7  C7         5.5430   33.8190   59.3890 C.3     0  <0>0        0.1938
      8  C8         6.4730   34.9730   59.1720 C.2     0  <0>0        0.2599
      9  O1         6.2300   36.1470   59.3560 O.2     0  <0>0       -0.2715
     10  N1         7.6340   34.4480   58.7300 N.am    0  <0>0       -0.2523
     11  N2         4.2840   33.9440   58.6630 N.am    0  <0>0       -0.2414
     12  C16        3.1440   33.6910   59.3050 C.2     0  <0>0        0.2415
     13  O2         2.0720   33.7890   58.7470 O.2     0  <0>0       -0.2735
     14  C17        3.2390   33.2750   60.7660 C.3     0  <0>0        0.1451
     15  S1         4.9860   33.7470   61.1370 S.3     0  <0>0       -0.1007
     16  C18        4.2730   34.3210   57.3140 C.ar    0  <0>0        0.0576
     17  C23        3.9570   35.6250   56.9590 C.ar    0  <0>0        0.0469
     18  C22        3.9480   35.9930   55.6260 C.ar    0  <0>0        0.1686
     19  C21        4.2540   35.0620   54.6460 C.ar    0  <0>0        0.1675
     20  F2         3.6400   37.2630   55.2790 F       0  <0>0       -0.2018
     21  C20        4.5690   33.7610   55.0000 C.ar    0  <0>0        0.0332
     22  F3         4.2440   35.4220   53.3440 F       0  <0>0       -0.2018
     23  C19        4.5740   33.3880   56.3310 C.ar    0  <0>0        0.0174
     24  C9         8.8170   35.2450   58.3940 C.3     0  <0>0        0.1248
     25  C10        9.6310   35.4850   59.6400 C.ar    0  <0>0       -0.0019
     26  C15       10.4990   34.5100   60.0950 C.ar    0  <0>0       -0.0003
     27  C14       11.2470   34.7280   61.2370 C.ar    0  <0>0        0.0294
     28  C13       11.1260   35.9230   61.9260 C.ar    0  <0>0        0.1401
     29  C12       10.2550   36.8980   61.4690 C.ar    0  <0>0        0.0294
     30  F1        11.8560   36.1370   63.0410 F       0  <0>0       -0.2042
     31  C11        9.5130   36.6800   60.3240 C.ar    0  <0>0       -0.0003
@<TRIPOS>BOND
     1    22    19    1
     2    19    21   ar
     3    19    18   ar
     4    21    23   ar
     5    20    18    1
     6    18    17   ar
     7    23    16   ar
     8    17    16   ar
     9    16    11    1
    10     2     3   ar
    11     2     1   ar
    12     3     4   ar
    13    24    10    1
    14    24    25    1
    15     1     6   ar
    16     4    10    1
    17     4     5   ar
    18    11    12   am
    19    11     7    1
    20    10     8   am
    21    13    12    2
    22     6     5   ar
    23     5     7    1
    24     8     9    2
    25     8     7    1
    26    12    14    1
    27     7    15    1
    28    25    26   ar
    29    25    31   ar
    30    26    27   ar
    31    31    29   ar
    32    14    15    1
    33    27    28   ar
    34    29    28   ar
    35    28    30    1

@<TRIPOS>MOLECULE
ZINC59888720_replica-1.pdb
 28 31 0 0 0
SMALL
GASTEIGER

@<TRIPOS>ATOM
      1  C14       -0.3620   28.2700   55.6660 C.2     0  <0>0        0.2305
      2  O1        -1.5360   28.1210   55.9300 O.2     0  <0>0       -0.2744
      3  N1         0.3020   29.3450   56.1330 N.am    0  <0>0       -0.2980
      4  H12        1.2420   29.4640   55.9220 H       0  <0>0        0.1498
      5  C7         0.3540   27.2520   54.8170 C.3     0  <0>0        0.1209
      6  C4         0.3200   25.9110   55.5030 C.ar    0  <0>0       -0.0098
      7  C3         0.7000   24.7730   54.8170 C.ar    0  <0>0       -0.0035
      8  C2         0.6710   23.5430   55.4470 C.ar    0  <0>0       -0.0003
      9  C1         0.2610   23.4510   56.7640 C.ar    0  <0>0       -0.0000
     10  C6        -0.1180   24.5890   57.4510 C.ar    0  <0>0       -0.0003
     11  C5        -0.0900   25.8190   56.8200 C.ar    0  <0>0       -0.0035
     12  C8        -0.3290   27.1470   53.4760 C.ar    0  <0>0       -0.0098
     13  C13       -1.0300   28.2260   52.9720 C.ar    0  <0>0       -0.0035
     14  C12       -1.6520   28.1320   51.7420 C.ar    0  <0>0       -0.0003
     15  C11       -1.5810   26.9540   51.0190 C.ar    0  <0>0       -0.0000
     16  C10       -0.8850   25.8740   51.5270 C.ar    0  <0>0       -0.0003
     17  C9        -0.2580   25.9700   52.7550 C.ar    0  <0>0       -0.0035
     18  C15       -0.3930   30.3350   56.9590 C.3     0  <0>0        0.1464
     19  C16        0.3320   31.6530   56.8810 C.2     0  <0>0        0.1284
     20  N3        -0.0960   32.8080   57.3940 N.2     0  <0>0       -0.3918
     21  C22        0.7960   33.7560   57.1370 C.2     0  <0>0        0.1867
     22  N2         1.8240   33.1900   56.4300 N.pl3   0  <0>0       -0.2544
     23  C21        0.8380   35.1300   57.4490 C.2     0  <0>0        0.0485
     24  C17        1.5210   31.8640   56.2740 C.3     0  <0>0        0.1540
     25  C18        2.8860   33.9470   56.0270 C.2     0  <0>0        0.0743
     26  C19        2.9400   35.2640   56.3180 C.2     0  <0>0        0.0496
     27  C20        1.9010   35.8740   57.0420 C.2     0  <0>0        0.0120
     28 Br          4.4210   36.2950   55.7500 Br      0  <0>0       -0.0477
@<TRIPOS>BOND
     1    15    16   ar
     2    15    14   ar
     3    16    17   ar
     4    14    13   ar
     5    17    12   ar
     6    13    12   ar
     7    12     5    1
     8     5     6    1
     9     5     1    1
    10     7     8   ar
    11     7     6   ar
    12     8     9   ar
    13     6    11   ar
    14     1     2    2
    15     1     3   am
    16    28    26    1
    17     4     3    1
    18    25    26    2
    19    25    22    1
    20     3    18    1
    21    24    22    1
    22    24    19    1
    23    26    27    1
    24    22    21    1
    25     9    10   ar
    26    11    10   ar
    27    19    18    1
    28    19    20    2
    29    27    23    2
    30    21    20    2
    31    21    23    1

@<TRIPOS>MOLECULE
ZINC02502976_replica-1.pdb
 30 33 0 0 0
SMALL
GASTEIGER

@<TRIPOS>ATOM
      1  N1         6.6190   35.3990   60.4390 N.3     0  <0>0       -0.1304
      2  C8         6.9160   36.8430   60.5250 C.3     0  <0>0        0.1746
      3  N2         7.9680   37.0460   61.5180 N.pl3   0  <0>0       -0.3160
      4  C9         9.1600   36.3270   61.5280 C.ar    0  <0>0        0.0646
      5  C10       10.2660   36.8680   62.1830 C.ar    0  <0>0        0.0157
      6  C11       11.4560   36.1730   62.2250 C.ar    0  <0>0        0.0013
      7  C12       11.5620   34.9340   61.6200 C.ar    0  <0>0        0.0015
      8  C13       10.4710   34.3940   60.9610 C.ar    0  <0>0        0.0212
      9  C14        9.2820   35.0900   60.9100 C.ar    0  <0>0        0.1353
     10  S1         7.9030   34.4140   60.0350 S.O2    0  <0>0        0.0664
     11  O1         8.1550   34.6080   58.6490 O.2     0  <0>0       -0.1527
     12  O2         7.6420   33.1350   60.5960 O.2     0  <0>0       -0.1527
     13  H9         7.8280   37.7160   62.2050 H       0  <0>0        0.1484
     14  C15        7.3840   37.3430   59.1820 C.ar    0  <0>0        0.0124
     15  C20        6.7960   36.8690   58.0260 C.ar    0  <0>0        0.0026
     16  C19        7.2250   37.3270   56.7930 C.ar    0  <0>0        0.0712
     17  C18        8.2430   38.2600   56.7200 C.ar    0  <0>0        0.0038
     18  C17        8.8350   38.7300   57.8770 C.ar    0  <0>0       -0.0003
     19  C16        8.4020   38.2760   59.1090 C.ar    0  <0>0       -0.0013
     20  C21        6.5840   36.8100   55.5310 C.3     0  <0>0        0.4186
     21  F1         5.4670   37.5920   55.2220 F       0  <0>0       -0.1659
     22  F2         7.5050   36.8760   54.4800 F       0  <0>0       -0.1659
     23  F3         6.1860   35.4820   55.7200 F       0  <0>0       -0.1659
     24  C7         5.2780   34.8640   60.6930 C.3     0  <0>0        0.1242
     25  C4         4.4930   34.8430   59.4060 C.ar    0  <0>0       -0.0044
     26  C3         3.6850   35.9130   59.0710 C.ar    0  <0>0       -0.0029
     27  C2         2.9650   35.8930   57.8920 C.ar    0  <0>0       -0.0003
     28  C1         3.0540   34.8030   57.0460 C.ar    0  <0>0       -0.0000
     29  C6         3.8620   33.7330   57.3810 C.ar    0  <0>0       -0.0003
     30  C5         4.5860   33.7550   58.5590 C.ar    0  <0>0       -0.0029
@<TRIPOS>BOND
     1    22    20    1
     2    21    20    1
     3    20    23    1
     4    20    16    1
     5    17    16   ar
     6    17    18   ar
     7    16    15   ar
     8    28    29   ar
     9    28    27   ar
    10    29    30   ar
    11    18    19   ar
    12    27    26   ar
    13    15    14   ar
    14    30    25   ar
    15    11    10    2
    16    26    25   ar
    17    19    14   ar
    18    14     2    1
    19    25    24    1
    20    10     1    1
    21    10    12    2
    22    10     9    1
    23     1     2    1
    24     1    24    1
    25     2     3    1
    26     9     8   ar
    27     9     4   ar
    28     8     7   ar
    29     3     4    1
    30     3    13    1
    31     4     5   ar
    32     7     6   ar
    33     5     6   ar

@<TRIPOS>MOLECULE
ZINC12651926_replica-1.pdb
 27 29 0 0 0
SMALL
GASTEIGER

@<TRIPOS>ATOM
      1  C1         1.1570   31.0990   59.7140 C.3     0  <0>0        0.0630
      2  C2         1.3990   31.5490   58.2960 C.2     0  <0>0        0.1075
      3  C3         0.4950   31.2320   57.2990 C.3     0  <0>0        0.1224
      4  C4         0.7580   31.6690   55.9980 C.2     0  <0>0        0.1943
      5  N1         1.8620   32.3720   55.7640 N.2     0  <0>0       -0.3274
      6  C5         2.7030   32.6550   56.7490 C.1     0  <0>0        0.1382
      7  N2         2.4760   32.2570   57.9930 N.2     0  <0>0       -0.3482
      8  N3        -0.1190   31.3740   54.9660 N.pl3   0  <0>0       -0.2127
      9  H9        -0.7940   32.0190   54.7050 H       0  <0>0        0.1767
     10  N4        -0.0310   30.1440   54.3020 N.2     0  <0>0       -0.1840
     11  C12       -1.0930   29.6100   53.7830 C.2     0  <0>0        0.0766
     12  C13       -2.4210   30.3120   53.8930 C.3     0  <0>0        0.0537
     13  C14       -1.0000   28.3140   53.0830 C.ar    0  <0>0        0.0151
     14  C19       -0.3170   27.2470   53.6710 C.ar    0  <0>0        0.0012
     15  C18       -0.2390   26.0370   53.0130 C.ar    0  <0>0        0.0000
     16  C17       -0.8250   25.8830   51.7700 C.ar    0  <0>0        0.0000
     17  C16       -1.4990   26.9370   51.1790 C.ar    0  <0>0        0.0000
     18  C15       -1.5900   28.1510   51.8280 C.ar    0  <0>0        0.0012
     19  C20       -0.7440   30.4320   57.6070 C.3     0  <0>0        0.0413
     20  C21       -0.4260   28.9620   57.5230 C.2     0  <0>0       -0.0252
     21  C22       -1.3730   28.1020   57.2370 C.2     0  <0>0       -0.0049
     22  C6         3.9260   33.4400   56.4520 C.ar    0  <0>0        0.0856
     23  C11        4.0990   34.0160   55.1950 C.ar    0  <0>0        0.0120
     24  C10        5.2350   34.7520   54.9270 C.ar    0  <0>0        0.0007
     25  C9         6.2070   34.9070   55.8990 C.ar    0  <0>0        0.0000
     26  C8         6.0430   34.3330   57.1470 C.ar    0  <0>0        0.0007
     27  C7         4.9070   33.6000   57.4270 C.ar    0  <0>0        0.0120
@<TRIPOS>BOND
     1    17    16   ar
     2    17    18   ar
     3    16    15   ar
     4    18    13   ar
     5    15    14   ar
     6    13    14   ar
     7    13    11    1
     8    11    12    1
     9    11    10    2
    10    10     8    1
    11     9     8    1
    12    24    23   ar
    13    24    25   ar
    14     8     4    1
    15    23    22   ar
    16     5     4    2
    17     5     6    2
    18    25    26   ar
    19     4     3    1
    20    22     6    1
    21    22    27   ar
    22     6     7    2
    23    26    27   ar
    24    21    20    2
    25     3    19    1
    26     3     2    1
    27    20    19    1
    28     7     2    2
    29     2     1    1

@<TRIPOS>MOLECULE
ZINC21229582_replica-1.pdb
 34 38 0 0 0
SMALL
GASTEIGER

@<TRIPOS>ATOM
      1  C9        -0.2050   31.3870   58.2240 C.3     0  <0>0        0.1187
      2  C10       -0.2400   30.6040   56.9330 C.2     0  <0>0        0.0436
      3  C11        0.2990   30.9860   55.7640 C.2     0  <0>0        0.0262
      4  C12        0.2210   30.0770   54.5480 C.3     0  <0>0        0.0458
      5  C13       -1.0850   29.2840   54.5770 C.3     0  <0>0        0.0365
      6  C14       -1.0950   28.4480   55.8620 C.3     0  <0>0        0.0737
      7  C15       -0.9210   29.3670   57.0340 C.2     0  <0>0        0.1722
      8  O2        -1.3820   29.0380   58.1090 O.2     0  <0>0       -0.2916
      9  N1         0.9520   32.1570   55.5560 N.pl3   0  <0>0       -0.3150
     10  C22        1.9300   32.6800   56.3940 C.ar    0  <0>0        0.0614
     11  C23        3.2400   32.8530   55.9830 C.ar    0  <0>0        0.0158
     12  C24        4.1520   33.4340   56.8490 C.ar    0  <0>0        0.0014
     13  C25        3.7560   33.8360   58.1110 C.ar    0  <0>0        0.0013
     14  C26        2.4500   33.6490   58.5290 C.ar    0  <0>0        0.0156
     15  C27        1.5410   33.0530   57.6710 C.ar    0  <0>0        0.0586
     16  N2         0.2410   32.7570   58.0800 N.pl3   0  <0>0       -0.3262
     17  H20        0.7180   32.7670   54.6700 H       0  <0>0        0.1520
     18  H25       -0.4490   33.5860   58.2960 H       0  <0>0        0.1474
     19  C7         0.7160   30.6830   59.1860 C.ar    0  <0>0        0.0027
     20  C6         0.4810   30.7590   60.5470 C.ar    0  <0>0       -0.0022
     21  C5         1.3250   30.1150   61.4330 C.ar    0  <0>0        0.0029
     22  C4         2.4030   29.3910   60.9610 C.ar    0  <0>0        0.0369
     23  C3         2.6400   29.3130   59.5960 C.ar    0  <0>0        0.1383
     24  C8         1.7900   29.9580   58.7090 C.ar    0  <0>0        0.0345
     25  O1         3.7000   28.6020   59.1280 O.3     0  <0>0       -0.4755
     26  C2         5.0020   29.0570   59.5030 C.3     0  <0>0        0.2055
     27  C1         5.3730   30.2840   58.6680 C.3     0  <0>0        0.0512
     28  C16       -1.1580   28.3760   53.3770 C.ar    0  <0>0       -0.0111
     29  C21       -1.9600   28.7140   52.3010 C.ar    0  <0>0        0.0537
     30  C20       -2.0220   27.8820   51.1970 C.ar    0  <0>0        0.0111
     31 Cl         -2.8820   30.1850   52.3340 Cl      0  <0>0       -0.0826
     32  C19       -1.2930   26.7090   51.1740 C.ar    0  <0>0        0.0008
     33  C18       -0.4960   26.3700   52.2510 C.ar    0  <0>0       -0.0003
     34  C17       -0.4280   27.2020   53.3520 C.ar    0  <0>0       -0.0034
@<TRIPOS>BOND
     1    32    30   ar
     2    32    33   ar
     3    30    29   ar
     4    33    34   ar
     5    29    31    1
     6    29    28   ar
     7    34    28   ar
     8    28     5    1
     9     4     5    1
    10     4     3    1
    11     5     6    1
    12    17     9    1
    13     9     3    1
    14     9    10    1
    15     3     2    2
    16     6     7    1
    17    11    10   ar
    18    11    12   ar
    19    10    15   ar
    20    12    13   ar
    21     2     7    1
    22     2     1    1
    23     7     8    2
    24    15    16    1
    25    15    14   ar
    26    16     1    1
    27    16    18    1
    28    13    14   ar
    29     1    19    1
    30    27    26    1
    31    24    19   ar
    32    24    23   ar
    33    25    26    1
    34    25    23    1
    35    19    20   ar
    36    23    22   ar
    37    20    21   ar
    38    22    21   ar

@<TRIPOS>MOLECULE
ZINC08867511_replica-1.pdb
 34 37 0 0 0
SMALL
GASTEIGER

@<TRIPOS>ATOM
      1  C7         1.0010   32.7470   58.3630 C.2     0  <0>0        0.1399
      2  C8         2.2580   33.0620   57.9040 C.3     0  <0>0        0.1811
      3  S1         2.0750   32.7090   56.1610 S.3     0  <0>0       -0.0392
      4  C9         0.3650   32.1950   56.2110 C.2     0  <0>0        0.2276
      5  N1         0.0850   32.3200   57.4940 N.2     0  <0>0       -0.3812
      6  N2        -0.4520   31.7720   55.1750 N.pl3   0  <0>0       -0.2049
      7  H6        -1.2080   32.3140   54.9010 H       0  <0>0        0.1775
      8  N3        -0.1850   30.5600   54.5230 N.2     0  <0>0       -0.1773
      9  C10       -1.0280   29.5760   54.6140 C.2     0  <0>0        0.1207
     10  C11       -0.7480   28.3010   53.9280 C.ar    0  <0>0        0.0587
     11  C16       -0.0160   27.3020   54.5740 C.ar    0  <0>0        0.0614
     12  C15        0.2420   26.1100   53.9260 C.ar    0  <0>0        0.0116
     13 Cl          0.5680   27.5570   56.1890 Cl      0  <0>0       -0.0821
     14  C14       -0.2220   25.9040   52.6390 C.ar    0  <0>0        0.0032
     15  C13       -0.9480   26.8890   51.9910 C.ar    0  <0>0        0.0297
     16  C12       -1.2190   28.0840   52.6290 C.ar    0  <0>0        0.1424
     17  F1        -1.9320   29.0420   51.9970 F       0  <0>0       -0.2041
     18  N4         3.3710   33.5220   58.6060 N.am    0  <0>0       -0.2878
     19  C17        3.6770   34.8340   58.6000 C.2     0  <0>0        0.2467
     20  O1         2.9820   35.6170   57.9820 O.2     0  <0>0       -0.2701
     21  H11        3.9260   32.8970   59.0990 H       0  <0>0        0.1509
     22  C18        4.8560   35.3210   59.3440 C.ar    0  <0>0        0.0535
     23  C23        5.8040   34.4160   59.8260 C.ar    0  <0>0        0.0068
     24  C22        6.9020   34.8770   60.5200 C.ar    0  <0>0        0.0298
     25  C21        7.0670   36.2350   60.7400 C.ar    0  <0>0        0.1401
     26  C20        6.1290   37.1380   60.2640 C.ar    0  <0>0        0.0298
     27  F2         8.1450   36.6810   61.4210 F       0  <0>0       -0.2042
     28  C19        5.0290   36.6890   59.5650 C.ar    0  <0>0        0.0068
     29  C4         0.6700   32.8800   59.7990 C.ar    0  <0>0        0.0280
     30  C3         0.2490   34.1090   60.3100 C.ar    0  <0>0        0.0023
     31  C2        -0.0580   34.2260   61.6500 C.ar    0  <0>0        0.0001
     32  C1         0.0520   33.1300   62.4870 C.ar    0  <0>0        0.0000
     33  C6         0.4690   31.9090   61.9870 C.ar    0  <0>0        0.0001
     34  C5         0.7730   31.7770   60.6470 C.ar    0  <0>0        0.0023
@<TRIPOS>BOND
     1    15    16   ar
     2    15    14   ar
     3    17    16    1
     4    16    10   ar
     5    14    12   ar
     6    12    11   ar
     7    10    11   ar
     8    10     9    1
     9     8     9    2
    10     8     6    1
    11    11    13    1
    12     7     6    1
    13     6     4    1
    14     3     4    1
    15     3     2    1
    16     4     5    2
    17     5     1    2
    18     2     1    1
    19     2    18    1
    20    20    19    2
    21     1    29    1
    22    19    18   am
    23    19    22    1
    24    18    21    1
    25    22    28   ar
    26    22    23   ar
    27    28    26   ar
    28    29    30   ar
    29    29    34   ar
    30    23    24   ar
    31    26    25   ar
    32    30    31   ar
    33    24    25   ar
    34    34    33   ar
    35    25    27    1
    36    31    32   ar
    37    33    32   ar

@<TRIPOS>MOLECULE
ZINC00407760_replica-1.pdb
 25 28 0 0 0
SMALL
GASTEIGER

@<TRIPOS>ATOM
      1  C9        10.0160   33.6970   60.8960 C.2     0  <0>0        0.1247
      2  C10        9.9700   34.8170   59.8940 C.3     0  <0>0        0.0872
      3  C11        9.1190   34.4360   58.6770 C.3     0  <0>0        0.1387
      4  N1         7.9220   33.7460   59.1580 N.pl3   0  <0>0       -0.1225
      5  C12        7.9090   33.0070   60.3090 C.1     0  <0>0        0.2319
      6  N2         6.7030   32.5140   60.4460 N.2     0  <0>0       -0.2749
      7  C13        5.9360   32.9150   59.4310 C.1     0  <0>0        0.0948
      8  N3         6.6400   33.6720   58.6230 N.2     0  <0>0       -0.1049
      9  C14        4.4860   32.5540   59.2410 C.3     0  <0>0        0.1315
     10  N4         9.0130   32.8850   61.0930 N.2     0  <0>0       -0.3308
     11  C5        11.2440   33.5060   61.6840 C.ar    0  <0>0        0.0261
     12  C4        12.2190   34.5100   61.7210 C.ar    0  <0>0        0.0019
     13  C3        13.3670   34.3230   62.4610 C.ar    0  <0>0       -0.0045
     14  C2        13.5560   33.1470   63.1670 C.ar    0  <0>0       -0.0258
     15  C1        14.8140   32.9510   63.9740 C.3     0  <0>0        0.0307
     16  C7        12.5980   32.1480   63.1310 C.ar    0  <0>0       -0.0257
     17  C6        11.4420   32.3210   62.3990 C.ar    0  <0>0       -0.0023
     18  C8        12.8180   30.8700   63.8980 C.3     0  <0>0        0.0307
     19  C15        8.7230   35.6790   57.9240 C.ar    0  <0>0       -0.0010
     20  C20        8.4720   35.6140   56.5650 C.ar    0  <0>0       -0.0003
     21  C19        8.1040   36.7530   55.8750 C.ar    0  <0>0        0.0294
     22  C18        7.9970   37.9620   56.5410 C.ar    0  <0>0        0.1401
     23  C17        8.2550   38.0280   57.9000 C.ar    0  <0>0        0.0294
     24  F1         7.6430   39.0770   55.8660 F       0  <0>0       -0.2042
     25  C16        8.6170   36.8870   58.5890 C.ar    0  <0>0       -0.0003
@<TRIPOS>BOND
     1    24    22    1
     2    21    22   ar
     3    21    20   ar
     4    22    23   ar
     5    20    19   ar
     6    23    25   ar
     7    19    25   ar
     8    19     3    1
     9     8     4    1
    10     8     7    2
    11     3     4    1
    12     3     2    1
    13     4     5    1
    14     9     7    1
    15     7     6    2
    16     2     1    1
    17     5     6    2
    18     5    10    2
    19     1    10    2
    20     1    11    1
    21    11    12   ar
    22    11    17   ar
    23    12    13   ar
    24    17    16   ar
    25    13    14   ar
    26    16    14   ar
    27    16    18    1
    28    14    15    1

@<TRIPOS>MOLECULE
ZINC15084706_replica-1.pdb
 25 28 0 0 0
SMALL
GASTEIGER

@<TRIPOS>ATOM
      1  C1         7.2890   38.3230   55.8100 C.3     0  <0>0        0.0494
      2  C2         7.6910   37.2820   56.8220 C.2     0  <0>0        0.0639
      3  C3         7.1810   35.9950   56.9070 C.3     0  <0>0        0.1207
      4  C4         7.8070   35.3550   57.9640 C.2     0  <0>0        0.1889
      5  N1         8.6740   36.2500   58.5090 N.pl3   0  <0>0       -0.1664
      6  N2         8.5820   37.4410   57.7730 N.2     0  <0>0       -0.1802
      7  N3         7.5390   34.0820   58.3550 N.2     0  <0>0       -0.3873
      8  C11        6.9720   33.2170   57.5740 C.2     0  <0>0        0.1363
      9  S1         6.5560   33.5780   55.9020 S.3     0  <0>0       -0.0823
     10  C12        6.1340   35.3370   56.0420 C.3     0  <0>0        0.0894
     11  C19        6.6520   31.8490   58.1190 C.3     0  <0>0        0.0736
     12  C5         9.5070   36.0250   59.6140 C.ar    0  <0>0        0.0763
     13  C10       10.2810   34.8730   59.6770 C.ar    0  <0>0        0.0191
     14  C9        11.1020   34.6530   60.7660 C.ar    0  <0>0        0.0310
     15  C8        11.1520   35.5790   61.7940 C.ar    0  <0>0        0.1402
     16  C7        10.3800   36.7270   61.7340 C.ar    0  <0>0        0.0310
     17  F1        11.9550   35.3620   62.8590 F       0  <0>0       -0.2042
     18  C6         9.5630   36.9540   60.6440 C.ar    0  <0>0        0.0191
     19  C13        4.7780   35.4870   56.6810 C.ar    0  <0>0       -0.0111
     20  C18        4.6750   35.9090   57.9940 C.ar    0  <0>0       -0.0011
     21  C17        3.4320   36.0480   58.5810 C.ar    0  <0>0        0.0293
     22  C16        2.2880   35.7630   57.8540 C.ar    0  <0>0        0.1401
     23  C15        2.3930   35.3400   56.5400 C.ar    0  <0>0        0.0293
     24  F2         1.0720   35.8980   58.4260 F       0  <0>0       -0.2042
     25  C14        3.6370   35.2080   55.9530 C.ar    0  <0>0       -0.0011
@<TRIPOS>BOND
     1     1     2    1
     2     9    10    1
     3     9     8    1
     4    25    23   ar
     5    25    19   ar
     6    10    19    1
     7    10     3    1
     8    23    22   ar
     9    19    20   ar
    10     2     3    1
    11     2     6    2
    12     3     4    1
    13     8    11    1
    14     8     7    2
    15     6     5    1
    16    22    24    1
    17    22    21   ar
    18     4     7    2
    19     4     5    1
    20    20    21   ar
    21     5    12    1
    22    12    13   ar
    23    12    18   ar
    24    13    14   ar
    25    18    16   ar
    26    14    15   ar
    27    16    15   ar
    28    15    17    1

@<TRIPOS>MOLECULE
ZINC20528808_replica-1.pdb
 37 41 0 0 0
SMALL
GASTEIGER

@<TRIPOS>ATOM
      1  N1         5.8640   33.0340   58.9480 N.3     0  <0>0       -0.2614
      2  C8         5.9190   34.4910   59.1690 C.3     0  <0>0        0.1027
      3  C9         4.8610   35.1130   58.2830 C.2     0  <0>0        0.0280
      4  C10        5.0970   36.2530   57.6100 C.2     0  <0>0        0.0009
      5  C17        3.5590   34.4220   58.1850 C.2     0  <0>0        0.1381
      6  C18        3.4260   33.1910   58.6820 C.2     0  <0>0        0.0147
      7  C19        4.5710   32.4950   59.3720 C.3     0  <0>0        0.0990
      8  C20        2.1090   32.4620   58.5730 C.3     0  <0>0        0.0820
      9  C21        1.2430   33.1040   57.5250 C.2     0  <0>0        0.1024
     10  C22        1.4960   34.3580   57.0870 C.2     0  <0>0        0.1988
     11  O1         2.5300   35.0630   57.5790 O.2     0  <0>0       -0.4409
     12  C23        0.1340   32.3800   56.9810 C.1     0  <0>0        0.1011
     13  N3        -0.7460   31.8060   56.5500 N.1     0  <0>0       -0.1910
     14  C24        1.4010   32.5100   59.9010 C.ar    0  <0>0       -0.0031
     15  C29        1.2690   31.3570   60.6560 C.ar    0  <0>0        0.0543
     16  C28        0.6180   31.4020   61.8760 C.ar    0  <0>0        0.0111
     17 Cl          1.9190   29.8580   60.0740 Cl      0  <0>0       -0.0826
     18  C27        0.1000   32.5960   62.3400 C.ar    0  <0>0        0.0008
     19  C26        0.2330   33.7480   61.5860 C.ar    0  <0>0       -0.0002
     20  C25        0.8830   33.7040   60.3660 C.ar    0  <0>0       -0.0028
     21  N2         0.6880   34.9190   56.1290 N.pl3   0  <0>0       -0.3284
     22  H18       -0.2440   34.4150   55.8320 H       0  <0>0        0.1451
     23  H19        0.9720   35.8710   55.6580 H       0  <0>0        0.1451
     24  C7         6.9700   32.3550   59.6370 C.3     0  <0>0        0.0996
     25  C4         8.1710   33.2650   59.6800 C.ar    0  <0>0       -0.0061
     26  C3         8.9070   33.3810   60.8440 C.ar    0  <0>0       -0.0029
     27  C2        10.0090   34.2160   60.8840 C.ar    0  <0>0       -0.0003
     28  C1        10.3720   34.9350   59.7600 C.ar    0  <0>0       -0.0000
     29  C6         9.6340   34.8200   58.5980 C.ar    0  <0>0       -0.0003
     30  C5         8.5360   33.9810   58.5550 C.ar    0  <0>0       -0.0029
     31  C11        6.3400   37.0070   57.8510 C.ar    0  <0>0        0.0104
     32  C16        7.2870   37.1450   56.8300 C.ar    0  <0>0        0.0576
     33  C15        8.4490   37.8530   57.0650 C.ar    0  <0>0        0.0114
     34 Cl          7.0000   36.4310   55.2750 Cl      0  <0>0       -0.0822
     35  C14        8.6780   38.4230   58.3040 C.ar    0  <0>0        0.0009
     36  C13        7.7450   38.2900   59.3190 C.ar    0  <0>0        0.0001
     37  C12        6.5770   37.5910   59.0990 C.ar    0  <0>0        0.0008
@<TRIPOS>BOND
     1    34    32    1
     2    23    21    1
     3    22    21    1
     4    21    10    1
     5    13    12    3
     6    32    33   ar
     7    32    31   ar
     8    12     9    1
     9    33    35   ar
    10    10     9    2
    11    10    11    1
    12     9     8    1
    13    11     5    1
    14     4    31    1
    15     4     3    2
    16    31    37   ar
    17     5     3    1
    18     5     6    2
    19     3     2    1
    20    35    36   ar
    21    30    29   ar
    22    30    25   ar
    23     8     6    1
    24     8    14    1
    25    29    28   ar
    26     6     7    1
    27     1     2    1
    28     1     7    1
    29     1    24    1
    30    37    36   ar
    31    24    25    1
    32    25    26   ar
    33    28    27   ar
    34    14    20   ar
    35    14    15   ar
    36    17    15    1
    37    20    19   ar
    38    15    16   ar
    39    26    27   ar
    40    19    18   ar
    41    16    18   ar

@<TRIPOS>MOLECULE
ZINC32101645_replica-1.pdb
 22 24 0 0 0
SMALL
GASTEIGER

@<TRIPOS>ATOM
      1  C10        0.0870   28.5120   55.1180 C.ar    0  <0>0        0.0528
      2  C11        0.6480   27.2360   55.3160 C.ar    0  <0>0        0.0046
      3  C12        0.4700   26.2470   54.4070 C.ar    0  <0>0        0.0002
      4  C13       -0.2850   26.4840   53.2410 C.ar    0  <0>0        0.0029
      5  C14       -0.4800   25.4710   52.2880 C.ar    0  <0>0        0.0001
      6  C15       -1.2150   25.7280   51.1700 C.ar    0  <0>0        0.0000
      7  C16       -1.7790   26.9830   50.9550 C.ar    0  <0>0        0.0001
      8  C17       -1.6110   27.9890   51.8570 C.ar    0  <0>0        0.0030
      9  C18       -0.8590   27.7610   53.0220 C.ar    0  <0>0        0.0338
     10  C19       -0.6710   28.7790   53.9780 C.ar    0  <0>0        0.1350
     11  C9         0.2960   29.5660   56.1200 C.2     0  <0>0        0.1018
     12  N1        -0.3040   29.4950   57.2760 N.2     0  <0>0       -0.2441
     13  C5        -0.9790   28.3590   57.6280 C.ar    0  <0>0        0.0773
     14  C4        -0.3170   27.3280   58.3000 C.ar    0  <0>0        0.0185
     15  C3        -1.0040   26.1860   58.6520 C.ar    0  <0>0       -0.0027
     16  C2        -2.3460   26.0580   58.3410 C.ar    0  <0>0       -0.0221
     17  C1        -3.0900   24.8070   58.7300 C.3     0  <0>0        0.0310
     18  C7        -3.0070   27.0720   57.6710 C.ar    0  <0>0       -0.0070
     19  C6        -2.3340   28.2230   57.3170 C.ar    0  <0>0       -0.0045
     20  C8        -3.0570   29.3280   56.5920 C.3     0  <0>0        0.0326
     21  O1        -1.2160   30.0050   53.7890 O.3     0  <0>0       -0.5055
     22  H17       -1.9070   30.2300   54.4260 H       0  <0>0        0.2922
@<TRIPOS>BOND
     1     7     6   ar
     2     7     8   ar
     3     6     5   ar
     4     8     9   ar
     5     5     4   ar
     6     9     4   ar
     7     9    10   ar
     8     4     3   ar
     9    21    10    1
    10    21    22    1
    11    10     1   ar
    12     3     2   ar
    13     1     2   ar
    14     1    11    1
    15    11    12    2
    16    20    19    1
    17    12    13    1
    18    19    13   ar
    19    19    18   ar
    20    13    14   ar
    21    18    16   ar
    22    14    15   ar
    23    16    15   ar
    24    16    17    1

@<TRIPOS>MOLECULE
ZINC14667974_replica-1.pdb
 29 31 0 0 0
SMALL
GASTEIGER

@<TRIPOS>ATOM
      1  C10        1.2450   31.9330   57.3190 C.2     0  <0>0        0.2643
      2  O2         1.8040   30.9440   57.7510 O.2     0  <0>0       -0.2685
      3  N1         0.6380   31.8940   56.1160 N.am    0  <0>0       -0.2300
      4  H11        0.1920   32.6830   55.7720 H       0  <0>0        0.1731
      5  N2         0.6500   30.7120   55.3650 N.am    0  <0>0       -0.2297
      6  C11       -0.4640   29.9590   55.2760 C.2     0  <0>0        0.2682
      7  O3        -1.4800   30.3060   55.8480 O.2     0  <0>0       -0.2680
      8  H12        1.4600   30.4350   54.9090 H       0  <0>0        0.1731
      9  C12       -0.4520   28.7190   54.4880 C.ar    0  <0>0        0.0948
     10  S1         0.3830   27.1830   54.8460 S.2     0  <0>0       -0.0815
     11  C19       -0.1300   26.2700   53.4130 C.ar    0  <0>0        0.0304
     12  C14       -0.9340   27.1930   52.7040 C.ar    0  <0>0        0.0172
     13  C18        0.0990   24.9910   52.9530 C.ar    0  <0>0        0.0065
     14  C13       -1.0720   28.4600   53.3060 C.ar    0  <0>0        0.0685
     15  C15       -1.4960   26.7360   51.4850 C.ar    0  <0>0        0.0014
     16 Cl         -2.0330   29.6860   52.5400 Cl      0  <0>0       -0.0816
     17  C16       -1.2630   25.4730   51.0440 C.ar    0  <0>0        0.0001
     18  C17       -0.4720   24.5840   51.7640 C.ar    0  <0>0        0.0005
     19  C9         1.2320   33.1780   58.1110 C.ar    0  <0>0        0.0892
     20  C4         1.8060   34.3470   57.5960 C.ar    0  <0>0        0.1427
     21  C5         1.7880   35.5120   58.3490 C.ar    0  <0>0        0.0376
     22  C6         1.2050   35.5190   59.6000 C.ar    0  <0>0        0.0098
     23  C7         0.6350   34.3630   60.1140 C.ar    0  <0>0        0.0349
     24  C8         0.6410   33.1990   59.3770 C.ar    0  <0>0        0.0143
     25 Br         -0.1590   34.3890   61.8300 Br      0  <0>0       -0.0490
     26  O1         2.3770   34.3410   56.3650 O.3     0  <0>0       -0.4790
     27  C2         3.7620   34.6870   56.2910 C.3     0  <0>0        0.1661
     28  C1         4.6010   33.5720   56.9210 C.3     0  <0>0        0.0472
     29  C3         4.1650   34.8630   54.8260 C.3     0  <0>0        0.0472
@<TRIPOS>BOND
     1    17    15   ar
     2    17    18   ar
     3    15    12   ar
     4    18    13   ar
     5    16    14    1
     6    12    14   ar
     7    12    11   ar
     8    13    11   ar
     9    14     9   ar
    10    11    10   ar
    11     9    10   ar
    12     9     6    1
    13    29    27    1
    14     8     5    1
    15     6     5   am
    16     6     7    2
    17     5     3    1
    18     4     3    1
    19     3     1   am
    20    27    26    1
    21    27    28    1
    22    26    20    1
    23     1     2    2
    24     1    19    1
    25    20    19   ar
    26    20    21   ar
    27    19    24   ar
    28    21    22   ar
    29    24    23   ar
    30    22    23   ar
    31    23    25    1

@<TRIPOS>MOLECULE
ZINC21255147_replica-1.pdb
 34 37 0 0 0
SMALL
GASTEIGER

@<TRIPOS>ATOM
      1  C11        1.6810   32.5880   58.9590 C.3     0  <0>0        0.0356
      2  C12        3.1300   32.1930   58.6670 C.3     0  <0>0        0.0458
      3  C13        4.0460   33.3400   59.0150 C.2     0  <0>0        0.0268
      4  C14        3.6260   34.6180   58.9070 C.2     0  <0>0        0.0261
      5  C15        4.5650   35.7500   59.2500 C.3     0  <0>0        0.0575
      6  C16        5.4650   35.3300   60.4130 C.3     0  <0>0        0.0942
      7  C17        6.0400   33.9680   60.1240 C.2     0  <0>0        0.2265
      8  O1         7.1560   33.6880   60.5080 O.2     0  <0>0       -0.2748
      9  N1         5.3200   33.0610   59.4410 N.am    0  <0>0       -0.2875
     10  C25        2.3240   34.9260   58.4810 C.2     0  <0>0        0.1706
     11  O4         1.9850   36.0900   58.3840 O.2     0  <0>0       -0.2916
     12  C26        1.3410   33.8390   58.1410 C.3     0  <0>0        0.0736
     13  H20        5.7690   32.0800   59.2260 H       0  <0>0        0.1545
     14  C18        5.4150   36.0790   58.0500 C.ar    0  <0>0       -0.0141
     15  C23        6.4500   36.9880   58.1660 C.ar    0  <0>0        0.0060
     16  C22        7.2320   37.2940   57.0670 C.ar    0  <0>0        0.0709
     17  C21        6.9790   36.6890   55.8460 C.ar    0  <0>0        0.1740
     18 Br          8.6470   38.5380   57.2290 Br      0  <0>0       -0.0458
     19  C20        5.9360   35.7740   55.7300 C.ar    0  <0>0        0.1723
     20  C19        5.1600   35.4690   56.8360 C.ar    0  <0>0        0.0361
     21  O2         7.7460   36.9890   54.7640 O.3     0  <0>0       -0.5025
     22  H23        7.2700   37.2330   53.8030 H       0  <0>0        0.2923
     23  O3         5.6830   35.1780   54.5340 O.3     0  <0>0       -0.4684
     24  C24        4.4060   34.5570   54.3760 C.3     0  <0>0        0.2526
     25  C8         0.7610   31.4610   58.5650 C.ar    0  <0>0       -0.0217
     26  C7         0.2910   31.3730   57.2680 C.ar    0  <0>0       -0.0046
     27  C6        -0.5560   30.3430   56.9080 C.ar    0  <0>0       -0.0046
     28  C5        -0.9250   29.3920   57.8420 C.ar    0  <0>0       -0.0228
     29  C10       -0.4510   29.4770   59.1370 C.ar    0  <0>0       -0.0046
     30  C9         0.3920   30.5110   59.4990 C.ar    0  <0>0       -0.0046
     31  C2        -1.8440   28.2650   57.4480 C.3     0  <0>0        0.0189
     32  C1        -2.9740   28.8110   56.5720 C.3     0  <0>0        0.0044
     33  C3        -1.0550   27.2130   56.6660 C.3     0  <0>0        0.0044
     34  C4        -2.4380   27.6280   58.7060 C.3     0  <0>0        0.0044
@<TRIPOS>BOND
     1    22    21    1
     2    24    23    1
     3    23    19    1
     4    21    17    1
     5    19    17   ar
     6    19    20   ar
     7    17    16   ar
     8    32    31    1
     9    33    31    1
    10    20    14   ar
    11    27    26   ar
    12    27    28   ar
    13    16    18    1
    14    16    15   ar
    15    26    25   ar
    16    31    28    1
    17    31    34    1
    18    28    29   ar
    19    14    15   ar
    20    14     5    1
    21    12    10    1
    22    12     1    1
    23    11    10    2
    24    10     4    1
    25    25     1    1
    26    25    30   ar
    27     2     1    1
    28     2     3    1
    29     4     3    2
    30     4     5    1
    31     3     9    1
    32    29    30   ar
    33    13     9    1
    34     5     6    1
    35     9     7   am
    36     7     6    1
    37     7     8    2

@<TRIPOS>MOLECULE
ZINC14464996_replica-1.pdb
 29 33 0 0 0
SMALL
GASTEIGER

@<TRIPOS>ATOM
      1  C7         7.9640   34.8500   56.2880 C.3     0  <0>0        0.0921
      2  C8         7.3150   33.4970   56.5200 C.3     0  <0>0        0.0262
      3  C9         8.1750   32.4080   57.1760 C.3     0  <0>0        0.0023
      4  C10        7.1170   31.5750   57.9020 C.3     0  <0>0        0.0004
      5  C11        6.0580   32.3260   58.1770 C.3     0  <0>0        0.0045
      6  C12        6.3200   33.7100   57.7010 C.3     0  <0>0        0.0255
      7  C13        5.2330   34.5920   57.2250 C.ar    0  <0>0       -0.0080
      8  C14        3.9320   34.4660   57.6630 C.ar    0  <0>0        0.0168
      9  C15        2.9570   35.3370   57.2150 C.ar    0  <0>0        0.1220
     10  C16        3.2860   36.3410   56.3220 C.ar    0  <0>0        0.0211
     11  C17        4.5830   36.4710   55.8710 C.ar    0  <0>0        0.0154
     12  C18        5.5690   35.5970   56.3110 C.ar    0  <0>0        0.0408
     13  N1         6.8770   35.7400   55.8280 N.pl3   0  <0>0       -0.3308
     14  H15        7.0710   36.4360   55.1800 H       0  <0>0        0.1471
     15  S1         1.2970   35.1680   57.7810 S.O2    0  <0>0        0.0633
     16  O1         1.2840   35.5980   59.1360 O.2     0  <0>0       -0.1528
     17  O2         0.4680   35.7570   56.7880 O.2     0  <0>0       -0.1528
     18  N2         0.9450   33.5500   57.7930 N.3     0  <0>0       -0.1555
     19  C22        0.6670   32.7230   56.6030 C.3     0  <0>0        0.0958
     20  C21        1.0160   31.2780   57.0360 C.3     0  <0>0        0.0206
     21  C20        0.5360   31.2700   58.5110 C.3     0  <0>0        0.0206
     22  C19        0.8650   32.6990   58.9880 C.3     0  <0>0        0.0958
     23  C6         8.5550   35.3710   57.5730 C.ar    0  <0>0       -0.0045
     24  C1         8.2220   36.6340   58.0240 C.ar    0  <0>0       -0.0018
     25  C2         8.7590   37.1100   59.2060 C.ar    0  <0>0        0.0111
     26  C3         9.6410   36.3270   59.9290 C.ar    0  <0>0        0.0577
     27  C4         9.9780   35.0650   59.4740 C.ar    0  <0>0        0.0111
     28 Cl         10.3240   36.9270   61.4080 Cl      0  <0>0       -0.0822
     29  C5         9.4350   34.5870   58.2960 C.ar    0  <0>0       -0.0018
@<TRIPOS>BOND
     1    14    13    1
     2    13     1    1
     3    13    12    1
     4    11    12   ar
     5    11    10   ar
     6     1     2    1
     7     1    23    1
     8    12     7   ar
     9    10     9   ar
    10     2     3    1
    11     2     6    1
    12    19    20    1
    13    19    18    1
    14    17    15    2
    15    20    21    1
    16     3     4    1
    17     9     8   ar
    18     9    15    1
    19     7     8   ar
    20     7     6    1
    21    23    24   ar
    22    23    29   ar
    23     6     5    1
    24    15    18    1
    25    15    16    2
    26    18    22    1
    27     4     5    1
    28    24    25   ar
    29    29    27   ar
    30    21    22    1
    31    25    26   ar
    32    27    26   ar
    33    26    28    1

@<TRIPOS>MOLECULE
ZINC06555890_replica-1.pdb
 25 27 0 0 0
SMALL
GASTEIGER

@<TRIPOS>ATOM
      1  N1        -0.8680   29.8760   54.7900 N.ar    0  <0>0       -0.1949
      2  C9        -1.8180   30.1850   55.6990 C.ar    0  <0>0        0.1714
      3  N2        -1.4220   31.2640   56.3220 N.ar    0  <0>0       -0.1119
      4  N3        -0.2920   31.6640   55.8620 N.ar    0  <0>0       -0.0227
      5  N4         0.1130   30.8730   54.9270 N.ar    0  <0>0       -0.0388
      6  C10       -3.0940   29.4250   55.9510 C.3     0  <0>0        0.1162
      7  C11       -2.8380   28.3310   56.9560 C.2     0  <0>0        0.0992
      8  N5        -1.7720   28.3480   57.6620 N.2     0  <0>0       -0.1841
      9  N6        -1.5350   27.3310   58.5960 N.pl3   0  <0>0       -0.2362
     10  H13       -1.6790   27.4970   59.5410 H       0  <0>0        0.1744
     11  C12       -1.0920   26.0780   58.1670 C.ar    0  <0>0        0.0651
     12  C17       -0.1660   25.9820   57.1350 C.ar    0  <0>0        0.0169
     13  C16        0.2700   24.7410   56.7140 C.ar    0  <0>0        0.0127
     14  C15       -0.2140   23.5950   57.3170 C.ar    0  <0>0        0.0578
     15  C14       -1.1370   23.6860   58.3460 C.ar    0  <0>0        0.0127
     16 Cl          0.3360   22.0360   56.7840 Cl      0  <0>0       -0.0822
     17  C13       -1.5710   24.9240   58.7760 C.ar    0  <0>0        0.0169
     18  C6        -0.8650   28.7960   53.8960 C.ar    0  <0>0        0.0858
     19  C5        -1.5680   28.8780   52.7030 C.ar    0  <0>0        0.0189
     20  C4        -1.5630   27.8120   51.8240 C.ar    0  <0>0       -0.0027
     21  C3        -0.8570   26.6640   52.1320 C.ar    0  <0>0       -0.0221
     22  C8        -0.1550   26.5790   53.3200 C.ar    0  <0>0       -0.0027
     23  C7        -0.1520   27.6430   54.2000 C.ar    0  <0>0        0.0189
     24  C2        -0.8530   25.5020   51.1720 C.3     0  <0>0        0.0264
     25  C1        -0.4780   24.2220   51.9220 C.3     0  <0>0        0.0050
@<TRIPOS>BOND
     1    24    25    1
     2    24    21    1
     3    20    21   ar
     4    20    19   ar
     5    21    22   ar
     6    19    18   ar
     7    22    23   ar
     8    18    23   ar
     9    18     1    1
    10     1     5   ar
    11     1     2   ar
    12     5     4   ar
    13     2     6    1
    14     2     3   ar
    15     4     3   ar
    16     6     7    1
    17    13    12   ar
    18    13    14   ar
    19    16    14    1
    20     7     8    2
    21    12    11   ar
    22    14    15   ar
    23     8     9    1
    24    11     9    1
    25    11    17   ar
    26    15    17   ar
    27     9    10    1

@<TRIPOS>MOLECULE
ZINC13467712_replica-1.pdb
 23 26 0 0 0
SMALL
GASTEIGER

@<TRIPOS>ATOM
      1  N1         7.5600   34.8660   59.9960 N.2     0  <0>0       -0.2242
      2  C7         7.3010   35.3410   58.8010 C.2     0  <0>0        0.1688
      3  N2         6.1540   35.1790   58.0460 N.am    0  <0>0       -0.2165
      4  C8         6.0190   35.7120   56.8370 C.2     0  <0>0        0.2433
      5  O1         5.0170   35.5680   56.1710 O.2     0  <0>0       -0.2733
      6  C9         7.1990   36.5140   56.3550 C.3     0  <0>0        0.1151
      7  S1         8.3520   36.3520   57.7620 S.3     0  <0>0       -0.0722
      8  C10        7.6820   36.5270   54.9210 C.3     0  <0>0        0.0205
      9  C11        7.0880   37.7910   55.5530 C.3     0  <0>0        0.0205
     10  C6         8.7630   35.1330   60.5940 C.ar    0  <0>0        0.0834
     11  C1         9.7810   34.1790   60.5760 C.ar    0  <0>0        0.0215
     12  C2        10.9920   34.4550   61.1760 C.ar    0  <0>0        0.0312
     13  C3        11.1960   35.6730   61.8060 C.ar    0  <0>0        0.1402
     14  C4        10.1870   36.6220   61.8300 C.ar    0  <0>0        0.0312
     15  F2        12.3820   35.9360   62.3960 F       0  <0>0       -0.2042
     16  C5         8.9720   36.3580   61.2300 C.ar    0  <0>0        0.0215
     17  C12        5.0980   34.4210   58.5730 C.ar    0  <0>0        0.0601
     18  C17        4.0830   35.0430   59.2860 C.ar    0  <0>0        0.0176
     19  C16        3.0450   34.2950   59.8050 C.ar    0  <0>0        0.0309
     20  C15        3.0120   32.9240   59.6080 C.ar    0  <0>0        0.1402
     21  C14        4.0270   32.3010   58.9020 C.ar    0  <0>0        0.0309
     22  F1         1.9930   32.1950   60.1110 F       0  <0>0       -0.2042
     23  C13        5.0680   33.0460   58.3820 C.ar    0  <0>0        0.0176
@<TRIPOS>BOND
     1     8     9    1
     2     8     6    1
     3     9     6    1
     4     5     4    2
     5     6     4    1
     6     6     7    1
     7     4     3   am
     8     7     2    1
     9     3    17    1
    10     3     2    1
    11    23    17   ar
    12    23    21   ar
    13    17    18   ar
    14     2     1    2
    15    21    20   ar
    16    18    19   ar
    17    20    19   ar
    18    20    22    1
    19     1    10    1
    20    11    10   ar
    21    11    12   ar
    22    10    16   ar
    23    12    13   ar
    24    16    14   ar
    25    13    14   ar
    26    13    15    1

@<TRIPOS>MOLECULE
ZINC13421465_replica-1.pdb
 29 31 0 0 0
SMALL
GASTEIGER

@<TRIPOS>ATOM
      1  N1         6.1770   35.9200   59.4340 N.am    0  <0>0       -0.2952
      2  C12        6.9890   36.9900   59.5490 C.2     0  <0>0        0.2674
      3  O1         7.0030   37.8360   58.6800 O.2     0  <0>0       -0.2710
      4  H9         6.1650   35.2430   60.1290 H       0  <0>0        0.1501
      5  C5         5.3120   35.7790   58.2600 C.3     0  <0>0        0.1230
      6  C3         5.8700   34.7160   57.3490 C.ar    0  <0>0        0.0292
      7  C2         5.5520   34.4430   56.0610 C.ar    0  <0>0        0.0046
      8  C1         6.2030   33.4090   55.4140 C.ar    0  <0>0        0.0072
      9  C4         7.1330   32.6930   56.0900 C.ar    0  <0>0        0.0352
     10  S1         7.1160   33.4840   57.6910 S.2     0  <0>0       -0.0888
     11  C6         3.9260   35.3870   58.7010 C.ar    0  <0>0        0.0003
     12  C11        2.8240   36.0410   58.1810 C.ar    0  <0>0       -0.0000
     13  C10        1.5520   35.6810   58.5850 C.ar    0  <0>0        0.0294
     14  C9         1.3820   34.6660   59.5110 C.ar    0  <0>0        0.1401
     15  C8         2.4870   34.0120   60.0320 C.ar    0  <0>0        0.0294
     16  F1         0.1390   34.3140   59.9070 F       0  <0>0       -0.2042
     17  C7         3.7570   34.3690   59.6220 C.ar    0  <0>0       -0.0000
     18  C13        7.8790   37.1340   60.7560 C.3     0  <0>0        0.2893
     19  O2         9.2390   37.2560   60.3350 O.3     0  <0>0       -0.4656
     20  C14       10.1430   36.4240   60.9170 C.ar    0  <0>0        0.1393
     21  C19       10.7940   36.8100   62.0800 C.ar    0  <0>0        0.0366
     22  C18       11.7080   35.9600   62.6720 C.ar    0  <0>0       -0.0006
     23  C17       11.9810   34.7310   62.1010 C.ar    0  <0>0       -0.0107
     24  C16       11.3340   34.3450   60.9420 C.ar    0  <0>0       -0.0006
     25  C15       10.4150   35.1890   60.3480 C.ar    0  <0>0        0.0366
     26  C20       12.9840   33.8090   62.7460 C.3     0  <0>0        0.1404
     27  C21       12.3620   32.4510   62.9450 C.2     0  <0>0        0.3692
     28  O3        13.0250   31.4530   62.7860 O.co2   0  <0>0       -0.2453
     29  O4        11.0730   32.3500   63.3070 O.co2   0  <0>0       -0.2453
@<TRIPOS>BOND
     1     8     7   ar
     2     8     9   ar
     3     7     6   ar
     4     9    10   ar
     5     6    10   ar
     6     6     5    1
     7    12    13   ar
     8    12    11   ar
     9     5    11    1
    10     5     1    1
    11    13    14   ar
    12     3     2    2
    13    11    17   ar
    14     1     2   am
    15     1     4    1
    16    14    16    1
    17    14    15   ar
    18     2    18    1
    19    17    15   ar
    20    19    18    1
    21    19    20    1
    22    25    20   ar
    23    25    24   ar
    24    20    21   ar
    25    24    23   ar
    26    21    22   ar
    27    23    22   ar
    28    23    26    1
    29    26    27    1
    30    28    27   ar
    31    27    29   ar

@<TRIPOS>MOLECULE
ZINC15232694_replica-1.pdb
 28 30 0 0 0
SMALL
GASTEIGER

@<TRIPOS>ATOM
      1  C7        -1.2930   30.3600   54.5760 C.ar    0  <0>0        0.1866
      2  N2        -2.0170   30.4970   55.6690 N.ar    0  <0>0       -0.1249
      3  N3        -1.4710   31.0950   56.7820 N.ar    0  <0>0       -0.1332
      4  C8        -0.2280   31.5390   56.7450 C.ar    0  <0>0        0.1607
      5  S1         0.2490   31.1100   55.0780 S.2     0  <0>0       -0.0242
      6  S2         0.7090   32.3410   58.0030 S.3     0  <0>0       -0.0840
      7  C9         0.1670   34.0700   57.9170 C.3     0  <0>0        0.0972
      8  C10        0.9640   34.8020   56.8350 C.3     0  <0>0        0.1652
      9  C11        1.8070   35.9050   57.4800 C.3     0  <0>0        0.2352
     10  O1         2.9390   35.3210   58.1280 O.3     0  <0>0       -0.4728
     11  C12        4.1650   35.7680   57.7470 C.ar    0  <0>0        0.1387
     12  C17        4.4370   35.9910   56.4040 C.ar    0  <0>0        0.0378
     13  C16        5.6820   36.4470   56.0190 C.ar    0  <0>0        0.0145
     14  C15        6.6590   36.6800   56.9710 C.ar    0  <0>0        0.0579
     15  C14        6.3900   36.4580   58.3100 C.ar    0  <0>0        0.0145
     16 Cl          8.2250   37.2510   56.4850 Cl      0  <0>0       -0.0822
     17  C13        5.1450   36.0080   58.7000 C.ar    0  <0>0        0.0378
     18  O2         0.0630   35.3820   55.8900 O.3     0  <0>0       -0.3798
     19  H15        0.3530   35.3050   54.9710 H       0  <0>0        0.2105
     20  N1        -1.6400   29.7900   53.3570 N.pl3   0  <0>0       -0.2896
     21  H6        -2.1730   30.2920   52.7200 H       0  <0>0        0.1542
     22  C5        -1.2200   28.4920   53.0460 C.ar    0  <0>0        0.0776
     23  C4        -1.6000   27.9040   51.8440 C.ar    0  <0>0        0.1534
     24  C3        -1.1820   26.6210   51.5430 C.ar    0  <0>0        0.0309
     25  F1        -2.3740   28.5870   50.9730 F       0  <0>0       -0.2029
     26  C2        -0.3890   25.9230   52.4340 C.ar    0  <0>0        0.0024
     27  C1        -0.0090   26.5060   53.6290 C.ar    0  <0>0        0.0014
     28  C6        -0.4220   27.7870   53.9390 C.ar    0  <0>0        0.0169
@<TRIPOS>BOND
     1    25    23    1
     2    24    23   ar
     3    24    26   ar
     4    23    22   ar
     5    26    27   ar
     6    21    20    1
     7    22    20    1
     8    22    28   ar
     9    20     1    1
    10    27    28   ar
    11     1     5   ar
    12     1     2   ar
    13    19    18    1
    14     5     4   ar
    15     2     3   ar
    16    18     8    1
    17    13    12   ar
    18    13    14   ar
    19    12    11   ar
    20    16    14    1
    21     4     3   ar
    22     4     6    1
    23     8     9    1
    24     8     7    1
    25    14    15   ar
    26     9    10    1
    27    11    10    1
    28    11    17   ar
    29     7     6    1
    30    15    17   ar

@<TRIPOS>MOLECULE
ZINC01019521_replica-1.pdb
 24 26 0 0 0
SMALL
GASTEIGER

@<TRIPOS>ATOM
      1  C7         8.8820   36.0480   60.0480 C.3     0  <0>0        0.1234
      2  C4         8.6560   36.8100   58.7680 C.ar    0  <0>0       -0.0019
      3  C3         8.6710   38.1930   58.7750 C.ar    0  <0>0       -0.0026
      4  C2         8.4640   38.8920   57.6010 C.ar    0  <0>0       -0.0003
      5  C1         8.2420   38.2090   56.4200 C.ar    0  <0>0       -0.0000
      6  C6         8.2280   36.8270   56.4120 C.ar    0  <0>0       -0.0003
      7  C5         8.4400   36.1270   57.5860 C.ar    0  <0>0       -0.0026
      8  C8         7.6490   36.1780   60.9450 C.3     0  <0>0        0.1546
      9  C9         6.4340   35.6840   60.2010 C.ar    0  <0>0        0.0062
     10  C14        6.2700   34.3310   59.9670 C.ar    0  <0>0       -0.0019
     11  C13        5.1570   33.8780   59.2860 C.ar    0  <0>0       -0.0002
     12  C12        4.2060   34.7760   58.8400 C.ar    0  <0>0       -0.0000
     13  C11        4.3700   36.1290   59.0740 C.ar    0  <0>0       -0.0002
     14  C10        5.4810   36.5820   59.7590 C.ar    0  <0>0       -0.0019
     15  O1         7.4620   37.5480   61.3030 O.3     0  <0>0       -0.3780
     16  H13        8.2860   38.0430   61.4130 H       0  <0>0        0.2109
     17  N1        10.0490   36.5960   60.7430 N.pl3   0  <0>0       -0.3285
     18  H14       10.2690   37.5370   60.6540 H       0  <0>0        0.1471
     19  C15       10.8470   35.7650   61.5330 C.ar    0  <0>0        0.0449
     20  C20       10.9010   34.4010   61.2740 C.ar    0  <0>0        0.0143
     21  C19       11.6890   33.5820   62.0580 C.ar    0  <0>0        0.0013
     22  C18       12.4250   34.1180   63.0990 C.ar    0  <0>0        0.0001
     23  C17       12.3730   35.4760   63.3590 C.ar    0  <0>0        0.0013
     24  C16       11.5820   36.2990   62.5830 C.ar    0  <0>0        0.0143
@<TRIPOS>BOND
     1     6     5   ar
     2     6     7   ar
     3     5     4   ar
     4     7     2   ar
     5     4     3   ar
     6     2     3   ar
     7     2     1    1
     8    12    13   ar
     9    12    11   ar
    10    13    14   ar
    11    11    10   ar
    12    14     9   ar
    13    10     9   ar
    14     1    17    1
    15     1     8    1
    16     9     8    1
    17    18    17    1
    18    17    19    1
    19     8    15    1
    20    20    19   ar
    21    20    21   ar
    22    15    16    1
    23    19    24   ar
    24    21    22   ar
    25    24    23   ar
    26    22    23   ar

@<TRIPOS>MOLECULE
ZINC00205900_replica-1.pdb
 25 28 0 0 0
SMALL
GASTEIGER

@<TRIPOS>ATOM
      1  C8         8.4040   35.5000   58.1520 C.3     0  <0>0        0.0965
      2  C9         6.9340   35.6990   58.5390 C.3     0  <0>0        0.0532
      3  C10        6.0460   35.5480   57.2980 C.3     0  <0>0        0.1351
      4  N1         6.4180   34.3190   56.5980 N.ar    0  <0>0       -0.2184
      5  C11        7.5940   33.6680   56.7690 C.ar    0  <0>0        0.2158
      6  N2         7.5910   32.6160   55.9970 N.ar    0  <0>0       -0.1903
      7  C12        6.4380   32.5620   55.3210 C.ar    0  <0>0        0.2220
      8  N3         5.6920   33.5840   55.6590 N.ar    0  <0>0       -0.1440
      9  N4         8.5780   34.1270   57.6380 N.pl3   0  <0>0       -0.3010
     10  H13        9.3340   33.5760   57.8940 H       0  <0>0        0.1499
     11  C13        4.6010   35.4760   57.7170 C.ar    0  <0>0        0.0381
     12  C18        3.6230   36.0680   56.9390 C.ar    0  <0>0        0.0577
     13  C17        2.2960   35.9970   57.3210 C.ar    0  <0>0        0.0113
     14 Cl          4.0630   36.8940   55.4750 Cl      0  <0>0       -0.0824
     15  C16        1.9460   35.3450   58.4880 C.ar    0  <0>0        0.0032
     16  C15        2.9220   34.7580   59.2720 C.ar    0  <0>0        0.0294
     17  C14        4.2500   34.8230   58.8880 C.ar    0  <0>0        0.1388
     18  F1         5.2050   34.2490   59.6520 F       0  <0>0       -0.2044
     19  C5         9.2790   35.7020   59.3620 C.ar    0  <0>0       -0.0045
     20  C4         9.1810   36.8670   60.0990 C.ar    0  <0>0       -0.0030
     21  C3         9.9820   37.0520   61.2090 C.ar    0  <0>0       -0.0045
     22  C2        10.8830   36.0710   61.5830 C.ar    0  <0>0       -0.0219
     23  C1        11.7570   36.2730   62.7940 C.3     0  <0>0        0.0310
     24  C7        10.9850   34.9090   60.8420 C.ar    0  <0>0       -0.0045
     25  C6        10.1800   34.7220   59.7340 C.ar    0  <0>0       -0.0030
@<TRIPOS>BOND
     1     7     8   ar
     2     7     6   ar
     3    14    12    1
     4     8     4   ar
     5     6     5   ar
     6     4     5   ar
     7     4     3    1
     8     5     9    1
     9    12    13   ar
    10    12    11   ar
    11     3    11    1
    12     3     2    1
    13    13    15   ar
    14     9    10    1
    15     9     1    1
    16    11    17   ar
    17     1     2    1
    18     1    19    1
    19    15    16   ar
    20    17    16   ar
    21    17    18    1
    22    19    25   ar
    23    19    20   ar
    24    25    24   ar
    25    20    21   ar
    26    24    22   ar
    27    21    22   ar
    28    22    23    1

@<TRIPOS>MOLECULE
ZINC33261145_replica-1.pdb
 30 32 0 0 0
SMALL
GASTEIGER

@<TRIPOS>ATOM
      1  C12        8.7180   36.8120   58.5110 C.ar    0  <0>0        0.1354
      2  C13        9.2520   35.5320   58.3840 C.ar    0  <0>0        0.0403
      3  C14       10.0280   35.0060   59.3910 C.ar    0  <0>0        0.0080
      4  C15       10.2690   35.7530   60.5480 C.ar    0  <0>0        0.0536
      5  C16        9.7270   37.0350   60.6740 C.ar    0  <0>0        0.0080
      6  C17        8.9570   37.5580   59.6620 C.ar    0  <0>0        0.0403
      7  N3         7.9380   37.3430   57.4870 N.pl3   0  <0>0       -0.2026
      8  H10        8.1760   38.3340   57.0720 H       0  <0>0        0.2982
      9  C10        6.8600   36.6240   56.9920 C.2     0  <0>0        0.3044
     10  C9         5.7770   36.3180   57.8150 C.3     0  <0>0        0.1622
     11  C8         4.7180   35.5940   57.2700 C.2     0  <0>0        0.0703
     12  N2         4.7810   35.2240   55.9900 N.2     0  <0>0       -0.2225
     13  C11        5.8230   35.5340   55.2470 C.3     0  <0>0        0.3911
     14  N1         6.8440   36.2120   55.7270 N.2     0  <0>0       -0.0405
     15  C6         3.5410   35.2400   58.1000 C.ar    0  <0>0        0.0136
     16  C5         2.3130   35.8580   57.8700 C.ar    0  <0>0        0.0012
     17  C4         1.2200   35.5240   58.6440 C.ar    0  <0>0       -0.0003
     18  C3         1.3410   34.5780   59.6460 C.ar    0  <0>0       -0.0043
     19  C2         2.5590   33.9610   59.8780 C.ar    0  <0>0       -0.0218
     20  C1         2.6840   32.9320   60.9710 C.3     0  <0>0        0.0310
     21  C7         3.6570   34.2840   59.1070 C.ar    0  <0>0       -0.0031
     22  C18       11.0970   35.1890   61.6310 C.2     0  <0>0        0.2458
     23  O1        11.6920   35.9310   62.3910 O.2     0  <0>0       -0.2701
     24  N4        11.1940   33.8530   61.7810 N.am    0  <0>0       -0.3009
     25  H15       10.6560   33.1840   61.0950 H       0  <0>0        0.1497
     26  C19       12.0160   33.2950   62.8570 C.3     0  <0>0        0.0897
     27  C20       11.5840   31.8530   63.1320 C.3     0  <0>0        0.0213
     28  C21       12.8240   30.9690   63.2850 C.3     0  <0>0        0.0017
     29  C22       14.0100   31.8280   63.7280 C.3     0  <0>0        0.0001
     30  C23       12.5550   29.8900   64.3350 C.3     0  <0>0        0.0001
@<TRIPOS>BOND
     1    13    14    1
     2    13    12    1
     3    14     9    2
     4    12    11    2
     5     9     7    1
     6     9    10    1
     7     8     7    1
     8    11    10    1
     9    11    15    1
    10     7     1    1
    11    16    15   ar
    12    16    17   ar
    13    15    21   ar
    14     2     1   ar
    15     2     3   ar
    16     1     6   ar
    17    17    18   ar
    18    21    19   ar
    19     3     4   ar
    20    18    19   ar
    21     6     5   ar
    22    19    20    1
    23     4     5   ar
    24     4    22    1
    25    25    24    1
    26    22    24   am
    27    22    23    2
    28    24    26    1
    29    26    27    1
    30    27    28    1
    31    28    29    1
    32    28    30    1

@<TRIPOS>MOLECULE
ZINC38512097_replica-1.pdb
 29 31 0 0 0
SMALL
GASTEIGER

@<TRIPOS>ATOM
      1  C9        -1.1620   30.2860   54.4070 C.2     0  <0>0        0.2112
      2  N2        -0.0370   30.8750   54.7590 N.2     0  <0>0       -0.3797
      3  C10        0.1760   31.2640   56.0170 C.2     0  <0>0        0.1754
      4  C11       -0.8010   31.0440   56.9560 C.3     0  <0>0        0.1295
      5  S1        -2.0540   30.2550   55.9540 S.3     0  <0>0       -0.0592
      6  C12        1.4390   31.9190   56.3940 C.2     0  <0>0        0.2724
      7  O1         1.9740   31.6450   57.4510 O.2     0  <0>0       -0.2677
      8  N3         2.0000   32.8240   55.5670 N.am    0  <0>0       -0.2987
      9  H12        1.5730   33.0430   54.7250 H       0  <0>0        0.1498
     10  C13        3.2570   33.4770   55.9420 C.3     0  <0>0        0.0944
     11  C14        2.9970   34.9560   56.2320 C.3     0  <0>0        0.0476
     12  C15        4.2690   35.6060   56.7100 C.ar    0  <0>0       -0.0203
     13  C20        5.1420   36.1690   55.7980 C.ar    0  <0>0       -0.0011
     14  C19        6.3070   36.7700   56.2340 C.ar    0  <0>0        0.0366
     15  C18        6.6060   36.7990   57.5890 C.ar    0  <0>0        0.1387
     16  C17        5.7310   36.2290   58.5020 C.ar    0  <0>0        0.0366
     17  C16        4.5660   35.6330   58.0610 C.ar    0  <0>0       -0.0011
     18  O2         7.7530   37.3870   58.0200 O.3     0  <0>0       -0.4714
     19  C21        8.5490   38.0530   57.0380 C.3     0  <0>0        0.2525
     20  N1        -1.5530   29.8190   53.1620 N.pl3   0  <0>0       -0.2833
     21  H10       -2.0170   30.4090   52.5470 H       0  <0>0        0.1551
     22  C5        -1.2780   28.5000   52.7910 C.ar    0  <0>0        0.0464
     23  C4        -0.4690   27.7060   53.5940 C.ar    0  <0>0        0.0140
     24  C3        -0.1990   26.4020   53.2260 C.ar    0  <0>0       -0.0030
     25  C2        -0.7340   25.8880   52.0580 C.ar    0  <0>0       -0.0221
     26  C1        -0.4370   24.4660   51.6590 C.3     0  <0>0        0.0310
     27  C7        -1.5350   26.6780   51.2540 C.ar    0  <0>0       -0.0073
     28  C6        -1.8130   27.9800   51.6200 C.ar    0  <0>0       -0.0087
     29  C8        -2.6910   28.8380   50.7470 C.3     0  <0>0        0.0323
@<TRIPOS>BOND
     1    29    28    1
     2    27    28   ar
     3    27    25   ar
     4    28    22   ar
     5    26    25    1
     6    25    24   ar
     7    21    20    1
     8    22    20    1
     9    22    23   ar
    10    20     1    1
    11    24    23   ar
    12     1     2    2
    13     1     5    1
    14     9     8    1
    15     2     3    2
    16     8    10    1
    17     8     6   am
    18    13    14   ar
    19    13    12   ar
    20    10    11    1
    21     5     4    1
    22     3     6    1
    23     3     4    1
    24    11    12    1
    25    14    15   ar
    26     6     7    2
    27    12    17   ar
    28    19    18    1
    29    15    18    1
    30    15    16   ar
    31    17    16   ar

@<TRIPOS>MOLECULE
ZINC03315890_replica-1.pdb
 30 32 0 0 0
SMALL
GASTEIGER

@<TRIPOS>ATOM
      1  C1         5.3160   34.9510   58.9010 C.2     0  <0>0        0.0118
      2  C2         6.2640   34.3370   58.2190 C.2     0  <0>0        0.0389
      3  C3         6.9920   35.0260   57.0820 C.3     0  <0>0        0.1567
      4  C4         8.4960   34.8090   57.2960 C.3     0  <0>0        0.1121
      5  N1         8.7530   33.3910   57.5430 N.am    0  <0>0       -0.3129
      6  C5         7.8640   32.5940   58.1520 C.2     0  <0>0        0.1351
      7  S1         8.3010   30.9720   58.4830 S.2     0  <0>0       -0.0185
      8  N2         6.6400   33.0230   58.5140 N.am    0  <0>0       -0.2987
      9  H5         9.5980   33.0120   57.2550 H       0  <0>0        0.1487
     10  H6         6.0270   32.4270   58.9720 H       0  <0>0        0.1536
     11  C13        6.5710   34.4240   55.7660 C.2     0  <0>0        0.3242
     12  O2         6.8090   33.2630   55.5290 O.2     0  <0>0       -0.2496
     13  O3         5.9320   35.1780   54.8570 O.3     0  <0>0       -0.4432
     14  C14        4.6570   34.6830   54.3700 C.3     0  <0>0        0.2350
     15  C15        3.6250   34.7950   55.4610 C.ar    0  <0>0        0.0213
     16  C20        3.3000   36.0340   55.9810 C.ar    0  <0>0       -0.0007
     17  C19        2.3530   36.1370   56.9830 C.ar    0  <0>0       -0.0002
     18  C18        1.7300   35.0010   57.4650 C.ar    0  <0>0       -0.0000
     19  C17        2.0540   33.7620   56.9450 C.ar    0  <0>0       -0.0002
     20  C16        2.9980   33.6600   55.9400 C.ar    0  <0>0       -0.0007
     21  C6         8.9560   35.6170   58.4810 C.ar    0  <0>0        0.0306
     22  C11        8.4920   36.9110   58.6610 C.ar    0  <0>0        0.1418
     23  C10        8.9180   37.6540   59.7540 C.ar    0  <0>0        0.0368
     24  C9         9.8020   37.1010   60.6600 C.ar    0  <0>0        0.0031
     25  C8        10.2630   35.8090   60.4790 C.ar    0  <0>0       -0.0001
     26  C7         9.8370   35.0670   59.3930 C.ar    0  <0>0        0.0003
     27  O1         7.6220   37.4520   57.7690 O.3     0  <0>0       -0.4239
     28  C12        7.9960   38.6940   57.1680 C.3     0  <0>0        0.5086
     29  F1         9.3300   38.6260   56.7500 F       0  <0>0       -0.1550
     30  F2         7.1740   38.9450   56.0650 F       0  <0>0       -0.1550
@<TRIPOS>BOND
     1    14    13    1
     2    14    15    1
     3    13    11    1
     4    15    20   ar
     5    15    16   ar
     6    12    11    2
     7    11     3    1
     8    20    19   ar
     9    16    17   ar
    10    30    28    1
    11    29    28    1
    12    19    18   ar
    13    17    18   ar
    14     3     4    1
    15     3     2    1
    16    28    27    1
    17     9     5    1
    18     4     5    1
    19     4    21    1
    20     5     6    1
    21    27    22    1
    22     6     7    2
    23     6     8    1
    24     2     8    1
    25     2     1    2
    26    21    22   ar
    27    21    26   ar
    28     8    10    1
    29    22    23   ar
    30    26    25   ar
    31    23    24   ar
    32    25    24   ar

@<TRIPOS>MOLECULE
ZINC08927095_replica-1.pdb
 32 35 0 0 0
SMALL
GASTEIGER

@<TRIPOS>ATOM
      1  N2         6.1550   32.5160   59.8690 N.pl3   0  <0>0       -0.1598
      2  C3         7.2190   33.3990   59.7990 C.1     0  <0>0        0.2187
      3  N3         7.1220   34.4640   59.0180 N.2     0  <0>0       -0.3311
      4  C4         8.1240   35.3370   58.9260 C.2     0  <0>0        0.1297
      5  C5         9.2860   35.1150   59.6670 C.3     0  <0>0        0.1198
      6  C6         9.3480   33.9810   60.4770 C.2     0  <0>0        0.1297
      7  N4         8.3030   33.1580   60.5200 N.2     0  <0>0       -0.3311
      8  H4         6.2090   31.7330   60.4390 H       0  <0>0        0.1883
      9  N1         4.9980   32.7530   59.1140 N.2     0  <0>0       -0.1755
     10  C2         3.8450   32.8430   59.7040 C.2     0  <0>0        0.0802
     11  C1         3.7510   32.6940   61.2000 C.3     0  <0>0        0.0539
     12  C19        2.6290   33.0920   58.9100 C.ar    0  <0>0        0.0488
     13  C24        2.3130   32.2640   57.8240 C.ar    0  <0>0        0.1348
     14  C23        1.1650   32.5020   57.0890 C.ar    0  <0>0        0.0367
     15  C22        0.3390   33.5610   57.4170 C.ar    0  <0>0        0.0031
     16  C21        0.6500   34.3870   58.4840 C.ar    0  <0>0        0.0002
     17  C20        1.7870   34.1590   59.2310 C.ar    0  <0>0        0.0042
     18  O1         3.1290   31.2270   57.4990 O.3     0  <0>0       -0.5055
     19  H19        3.3230   31.1600   56.5540 H       0  <0>0        0.2922
     20  C7        10.5610   33.7000   61.2840 C.ar    0  <0>0        0.0268
     21  C12       11.6270   34.5990   61.2810 C.ar    0  <0>0        0.0028
     22  C11       12.7500   34.3360   62.0370 C.ar    0  <0>0        0.0068
     23  C10       12.8250   33.1770   62.7900 C.ar    0  <0>0        0.0346
     24  C9        11.7710   32.2790   62.7930 C.ar    0  <0>0        0.0068
     25 Br         14.3700   32.8200   63.8190 Br      0  <0>0       -0.0490
     26  C8        10.6420   32.5350   62.0440 C.ar    0  <0>0        0.0028
     27  C13        8.0070   36.5260   58.0480 C.ar    0  <0>0        0.0268
     28  C18        8.6350   37.7200   58.4000 C.ar    0  <0>0        0.0022
     29  C17        8.5270   38.8220   57.5760 C.ar    0  <0>0        0.0001
     30  C16        7.7880   38.7460   56.4090 C.ar    0  <0>0        0.0000
     31  C15        7.1590   37.5660   56.0580 C.ar    0  <0>0        0.0001
     32  C14        7.2640   36.4560   56.8710 C.ar    0  <0>0        0.0022
@<TRIPOS>BOND
     1    31    30   ar
     2    31    32   ar
     3    30    29   ar
     4    19    18    1
     5    32    27   ar
     6    14    15   ar
     7    14    13   ar
     8    15    16   ar
     9    18    13    1
    10    29    28   ar
    11    13    12   ar
    12    27    28   ar
    13    27     4    1
    14    16    17   ar
    15    12    17   ar
    16    12    10    1
    17     4     3    2
    18     4     5    1
    19     3     2    2
    20     9    10    2
    21     9     1    1
    22     5     6    1
    23    10    11    1
    24     2     1    1
    25     2     7    2
    26     1     8    1
    27     6     7    2
    28     6    20    1
    29    21    20   ar
    30    21    22   ar
    31    20    26   ar
    32    22    23   ar
    33    26    24   ar
    34    23    24   ar
    35    23    25    1

@<TRIPOS>MOLECULE
ZINC27794281_replica-1.pdb
 35 39 0 0 0
SMALL
GASTEIGER

@<TRIPOS>ATOM
      1  C12        5.4030   34.8200   59.5290 C.3     0  <0>0        0.0656
      2  C11        5.9210   33.4540   59.9850 C.3     0  <0>0        0.0985
      3  N1         7.2060   33.6230   60.6710 N.am    0  <0>0       -0.2977
      4  C10        8.3050   32.9970   60.2060 C.2     0  <0>0        0.2803
      5  O2         8.2310   32.2920   59.2180 O.2     0  <0>0       -0.2668
      6  H9         7.2720   34.2610   61.5640 H       0  <0>0        0.1499
      7  C7         9.5920   33.1680   60.8940 C.ar    0  <0>0        0.1943
      8  C6        10.3630   34.2850   60.8430 C.ar    0  <0>0        0.0202
      9  C5        11.5380   34.0050   61.6670 C.ar    0  <0>0        0.0337
     10  C28       10.0670   35.5570   60.0900 C.3     0  <0>0        0.0345
     11  C4        12.6800   34.7320   62.0140 C.ar    0  <0>0        0.0025
     12  C8        11.3610   32.6950   62.1510 C.ar    0  <0>0        0.1449
     13  C3        13.6200   34.1670   62.8290 C.ar    0  <0>0       -0.0041
     14  C2        13.4470   32.8770   63.3140 C.ar    0  <0>0       -0.0188
     15  C1        14.4970   32.2730   64.2110 C.3     0  <0>0        0.0311
     16  C9        12.3280   32.1440   62.9830 C.ar    0  <0>0        0.0332
     17  O1        10.1890   32.2390   61.6700 O.2     0  <0>0       -0.4492
     18  C13        3.9860   34.6810   59.0380 C.ar    0  <0>0       -0.0165
     19  C18        3.2410   35.8090   58.7500 C.ar    0  <0>0       -0.0008
     20  C17        1.9410   35.6840   58.2990 C.ar    0  <0>0        0.0366
     21  C16        1.3830   34.4250   58.1350 C.ar    0  <0>0        0.1387
     22  C15        2.1310   33.2940   58.4260 C.ar    0  <0>0        0.0366
     23  C14        3.4330   33.4230   58.8710 C.ar    0  <0>0       -0.0008
     24  O3         0.1040   34.2990   57.6920 O.3     0  <0>0       -0.4714
     25  C19       -0.4180   32.9730   57.5870 C.3     0  <0>0        0.2525
     26  C20        6.2730   35.3390   58.4120 C.ar    0  <0>0        0.0016
     27  C23        6.9610   36.6320   58.3740 C.ar    0  <0>0        0.0134
     28  C22        7.6450   36.6710   57.1440 C.ar    0  <0>0        0.0563
     29  C24        7.0470   37.7120   59.2530 C.ar    0  <0>0        0.0012
     30  N2         7.3820   35.4850   56.4960 N.ar    0  <0>0       -0.3522
     31  C27        8.4000   37.7930   56.8200 C.ar    0  <0>0        0.0170
     32  C21        6.5690   34.7020   57.2690 C.ar    0  <0>0        0.0684
     33  H2         7.7210   35.1240   55.5130 H       0  <0>0        0.1660
     34  C26        8.4690   38.8490   57.7020 C.ar    0  <0>0        0.0015
     35  C25        7.7930   38.8050   58.9140 C.ar    0  <0>0        0.0001
@<TRIPOS>BOND
     1    33    30    1
     2    30    28   ar
     3    30    32   ar
     4    31    28   ar
     5    31    34   ar
     6    28    27   ar
     7    32    26   ar
     8    25    24    1
     9    24    21    1
    10    34    35   ar
    11    21    20   ar
    12    21    22   ar
    13    20    19   ar
    14    27    26   ar
    15    27    29   ar
    16    26     1    1
    17    22    23   ar
    18    19    18   ar
    19    23    18   ar
    20    35    29   ar
    21    18     1    1
    22     5     4    2
    23     1     2    1
    24     2     3    1
    25    10     8    1
    26     4     3   am
    27     4     7    1
    28     3     6    1
    29     8     7   ar
    30     8     9   ar
    31     7    17   ar
    32     9    11   ar
    33     9    12   ar
    34    17    12   ar
    35    11    13   ar
    36    12    16   ar
    37    13    14   ar
    38    16    14   ar
    39    14    15    1

@<TRIPOS>MOLECULE
ZINC49885358_replica-1.pdb
 23 24 0 0 0
SMALL
GASTEIGER

@<TRIPOS>ATOM
      1  C9        -1.1860   29.2510   53.8900 C.3     0  <0>0        0.1338
      2  C5        -0.9740   27.9340   53.1880 C.ar    0  <0>0       -0.0036
      3  C4        -1.5430   27.7110   51.9480 C.ar    0  <0>0       -0.0242
      4  C3        -1.3490   26.5040   51.3050 C.ar    0  <0>0       -0.0088
      5  C18       -2.3750   28.7860   51.2980 C.3     0  <0>0        0.0308
      6  C2        -0.5850   25.5170   51.9020 C.ar    0  <0>0       -0.0225
      7  C1        -0.3730   24.2010   51.2010 C.3     0  <0>0        0.0310
      8  C7        -0.0200   25.7380   53.1450 C.ar    0  <0>0       -0.0088
      9  C6        -0.2110   26.9480   53.7860 C.ar    0  <0>0       -0.0242
     10  C8         0.4100   27.1900   55.1380 C.3     0  <0>0        0.0308
     11  C10        0.1610   29.7940   54.3710 C.3     0  <0>0        0.0549
     12  C11       -0.0510   31.1360   55.0740 C.3     0  <0>0        0.0899
     13  N1         1.2310   31.6320   55.5790 N.pl3   0  <0>0       -0.3326
     14  H14        2.0590   31.2110   55.2970 H       0  <0>0        0.1468
     15  C12        1.2640   32.7110   56.4670 C.ar    0  <0>0        0.0448
     16  C17        0.2290   32.8960   57.3750 C.ar    0  <0>0        0.0166
     17  C16        0.2650   33.9610   58.2540 C.ar    0  <0>0        0.0309
     18  C15        1.3270   34.8480   58.2240 C.ar    0  <0>0        0.1402
     19  C14        2.3570   34.6680   57.3180 C.ar    0  <0>0        0.0309
     20  F1         1.3580   35.8920   59.0840 F       0  <0>0       -0.2042
     21  C13        2.3280   33.6020   56.4390 C.ar    0  <0>0        0.0166
     22  O1        -2.0500   29.0610   55.0110 O.3     0  <0>0       -0.3800
     23  H19       -2.2320   28.1330   55.2140 H       0  <0>0        0.2108
@<TRIPOS>BOND
     1     7     6    1
     2     5     3    1
     3     4     6   ar
     4     4     3   ar
     5     6     8   ar
     6     3     2   ar
     7     8     9   ar
     8     2     9   ar
     9     2     1    1
    10     9    10    1
    11     1    11    1
    12     1    22    1
    13    11    12    1
    14    22    23    1
    15    12    13    1
    16    14    13    1
    17    13    15    1
    18    21    15   ar
    19    21    19   ar
    20    15    16   ar
    21    19    18   ar
    22    16    17   ar
    23    18    17   ar
    24    18    20    1

@<TRIPOS>MOLECULE
ZINC21226550_replica-1.pdb
 32 35 0 0 0
SMALL
GASTEIGER

@<TRIPOS>ATOM
      1  C11        8.5310   35.9830   60.4470 C.3     0  <0>0        0.0356
      2  C12        7.7570   34.6920   60.1700 C.3     0  <0>0        0.0458
      3  C13        6.4800   35.0140   59.4360 C.2     0  <0>0        0.0268
      4  C14        6.4080   36.0750   58.6040 C.2     0  <0>0        0.0261
      5  C15        5.1200   36.3750   57.8750 C.3     0  <0>0        0.0596
      6  C16        3.9340   36.0150   58.7720 C.3     0  <0>0        0.0943
      7  C17        4.1460   34.6360   59.3420 C.2     0  <0>0        0.2265
      8  O2         3.1950   33.9120   59.5420 O.2     0  <0>0       -0.2748
      9  N1         5.3880   34.2080   59.6290 N.am    0  <0>0       -0.2875
     10  C24        7.5130   36.9190   58.3970 C.2     0  <0>0        0.1706
     11  O3         7.4150   37.8550   57.6310 O.2     0  <0>0       -0.2916
     12  C25        8.8160   36.6790   59.1130 C.3     0  <0>0        0.0736
     13  H20        5.5190   33.1900   60.0250 H       0  <0>0        0.1545
     14  C8         9.8310   35.6570   61.1360 C.ar    0  <0>0       -0.0215
     15  C7        10.4150   34.4170   60.9560 C.ar    0  <0>0       -0.0011
     16  C6        11.6090   34.1170   61.5810 C.ar    0  <0>0        0.0366
     17  C5        12.2180   35.0580   62.4000 C.ar    0  <0>0        0.1385
     18  C10       11.6300   36.3010   62.5800 C.ar    0  <0>0        0.0366
     19  C9        10.4370   36.5980   61.9470 C.ar    0  <0>0       -0.0011
     20  O1        13.3900   34.7640   63.0210 O.3     0  <0>0       -0.4755
     21  C4        14.2770   33.8710   62.3430 C.3     0  <0>0        0.2053
     22  C2        14.9120   32.9150   63.3560 C.3     0  <0>0        0.0438
     23  C1        15.3390   33.6990   64.5980 C.3     0  <0>0        0.0038
     24  C3        13.8940   31.8440   63.7530 C.3     0  <0>0        0.0038
     25  C18        5.0580   35.5600   56.6080 C.ar    0  <0>0        0.0119
     26  C23        4.1060   35.8490   55.6460 C.ar    0  <0>0        0.1366
     27  C22        4.0480   35.1000   54.4820 C.ar    0  <0>0        0.0316
     28  F1         3.2320   36.8600   55.8420 F       0  <0>0       -0.2045
     29  C21        4.9420   34.0660   54.2820 C.ar    0  <0>0        0.0319
     30  C20        5.8960   33.7780   55.2450 C.ar    0  <0>0        0.1400
     31  C19        5.9550   34.5290   56.4060 C.ar    0  <0>0        0.0279
     32  F2         6.7700   32.7670   55.0480 F       0  <0>0       -0.2042
@<TRIPOS>BOND
     1    29    27   ar
     2    29    30   ar
     3    27    26   ar
     4    32    30    1
     5    30    31   ar
     6    26    28    1
     7    26    25   ar
     8    31    25   ar
     9    25     5    1
    10    11    10    2
    11     5     4    1
    12     5     6    1
    13    10     4    1
    14    10    12    1
    15     4     3    2
    16     6     7    1
    17    12     1    1
    18     7     8    2
    19     7     9   am
    20     3     9    1
    21     3     2    1
    22     9    13    1
    23     2     1    1
    24     1    14    1
    25    15    14   ar
    26    15    16   ar
    27    14    19   ar
    28    16    17   ar
    29    19    18   ar
    30    21    20    1
    31    21    22    1
    32    17    18   ar
    33    17    20    1
    34    22    24    1
    35    22    23    1

@<TRIPOS>MOLECULE
ZINC12401720_replica-1.pdb
 36 39 0 0 0
SMALL
GASTEIGER

@<TRIPOS>ATOM
      1  C10        8.1500   36.3370   58.1970 C.2     0  <0>0        0.0132
      2  C11        6.8710   35.9110   58.3470 C.2     0  <0>0        0.1075
      3  C12        5.6810   36.2320   57.5490 C.2     0  <0>0        0.3434
      4  O1         5.7560   36.9820   56.5930 O.2     0  <0>0       -0.2410
      5  N1         4.5030   35.6770   57.8990 N.am    0  <0>0       -0.1304
      6  C13        4.4930   34.8360   58.9950 C.3     0  <0>0        0.2525
      7  C14        3.3870   34.2060   59.4660 C.2     0  <0>0        0.1008
      8  C15        2.0700   34.4330   58.7490 C.2     0  <0>0        0.0269
      9  C16        2.1240   35.3610   57.5530 C.2     0  <0>0        0.1449
     10  C17        3.3080   35.9130   57.2100 C.2     0  <0>0        0.2826
     11  C18        0.9400   35.6480   56.7990 C.1     0  <0>0        0.1076
     12  N3         0.0010   35.8750   56.2020 N.1     0  <0>0       -0.1906
     13  C28        3.4610   33.3490   60.6100 C.1     0  <0>0        0.1010
     14  N4         3.5200   32.6690   61.5180 N.1     0  <0>0       -0.1910
     15  S1         6.1790   34.8070   59.5690 S.3     0  <0>0       -0.0559
     16  C19        1.5490   33.0970   58.2870 C.ar    0  <0>0        0.0014
     17  C24        2.1600   32.4430   57.2330 C.ar    0  <0>0       -0.0003
     18  C23        1.6830   31.2180   56.8090 C.ar    0  <0>0       -0.0043
     19  C22        0.5940   30.6440   57.4400 C.ar    0  <0>0       -0.0225
     20  C21       -0.0170   31.2960   58.4940 C.ar    0  <0>0       -0.0043
     21  C20        0.4640   32.5210   58.9210 C.ar    0  <0>0       -0.0003
     22  C25        0.0740   29.3080   56.9770 C.3     0  <0>0        0.0224
     23  C26       -1.3150   29.0670   57.5730 C.3     0  <0>0        0.0047
     24  C27       -0.0200   29.2980   55.4500 C.3     0  <0>0        0.0047
     25  N2         3.3420   36.7530   56.1230 N.pl3   0  <0>0       -0.2500
     26  H14        3.5090   37.7000   56.2470 H       0  <0>0        0.2882
     27  H15        3.1990   36.3980   55.2320 H       0  <0>0        0.2882
     28  C7         9.1550   36.0180   59.2200 C.ar    0  <0>0        0.0007
     29  C6         9.8830   34.8250   59.1440 C.ar    0  <0>0       -0.0003
     30  C5        10.8240   34.5330   60.1080 C.ar    0  <0>0       -0.0043
     31  C4        11.0500   35.4160   61.1500 C.ar    0  <0>0       -0.0225
     32  C9        10.3340   36.5980   61.2340 C.ar    0  <0>0       -0.0043
     33  C8         9.3930   36.9080   60.2740 C.ar    0  <0>0       -0.0003
     34  C2        12.0800   35.0880   62.2000 C.3     0  <0>0        0.0224
     35  C1        11.9110   36.0310   63.3920 C.3     0  <0>0        0.0047
     36  C3        11.8930   33.6420   62.6630 C.3     0  <0>0        0.0047
@<TRIPOS>BOND
     1    27    25    1
     2    24    22    1
     3    25    26    1
     4    25    10    1
     5    12    11    3
     6     4     3    2
     7    11     9    1
     8    18    17   ar
     9    18    19   ar
    10    22    19    1
    11    22    23    1
    12    10     9    2
    13    10     5    1
    14    17    16   ar
    15    19    20   ar
    16     3     5   am
    17     3     2    1
    18     9     8    1
    19     5     6    1
    20     1     2    2
    21     1    28    1
    22    16     8    1
    23    16    21   ar
    24     2    15    1
    25    20    21   ar
    26     8     7    2
    27     6     7    1
    28     6    15    1
    29    29    28   ar
    30    29    30   ar
    31    28    33   ar
    32     7    13    1
    33    30    31   ar
    34    33    32   ar
    35    13    14    3
    36    31    32   ar
    37    31    34    1
    38    34    36    1
    39    34    35    1

@<TRIPOS>MOLECULE
ZINC18046799_replica-1.pdb
 30 33 0 0 0
SMALL
GASTEIGER

@<TRIPOS>ATOM
      1  C8         1.1140   32.3570   56.4350 C.3     0  <0>0        0.1101
      2  C7         2.0840   32.1090   57.5930 C.3     0  <0>0        0.1001
      3  C6         1.4650   32.5950   58.8780 C.ar    0  <0>0       -0.0060
      4  C1         1.1870   33.9400   59.0450 C.ar    0  <0>0       -0.0006
      5  C2         0.6150   34.3860   60.2200 C.ar    0  <0>0        0.0294
      6  C3         0.3300   33.4890   61.2360 C.ar    0  <0>0        0.1401
      7  C4         0.6160   32.1440   61.0710 C.ar    0  <0>0        0.0294
      8  F2        -0.2220   33.9260   62.3890 F       0  <0>0       -0.2042
      9  C5         1.1820   31.6980   59.8910 C.ar    0  <0>0       -0.0006
     10  N2         3.3370   32.8340   57.3460 N.3     0  <0>0       -0.2646
     11  C21        4.4980   31.9460   57.5040 C.3     0  <0>0        0.1049
     12  C20        5.7830   32.7530   57.2970 C.3     0  <0>0        0.1595
     13  O2         5.7470   33.3760   56.0110 O.3     0  <0>0       -0.3508
     14  C19        4.6290   34.2470   55.8230 C.3     0  <0>0        0.1595
     15  C18        3.3330   33.4550   56.0140 C.3     0  <0>0        0.1049
     16  N1         1.0200   31.1510   55.6090 N.am    0  <0>0       -0.2987
     17  C9        -0.1170   30.4280   55.5990 C.2     0  <0>0        0.2528
     18  O1        -1.0660   30.7770   56.2760 O.2     0  <0>0       -0.2696
     19  H8         1.8780   30.8350   54.9980 H       0  <0>0        0.1498
     20  C10       -0.2110   29.2190   54.7730 C.ar    0  <0>0        0.0933
     21  S1         0.5750   27.6360   55.0230 S.2     0  <0>0       -0.0815
     22  C17       -0.0720   26.8000   53.5980 C.ar    0  <0>0        0.0327
     23  C12       -0.8780   27.7820   52.9760 C.ar    0  <0>0        0.0174
     24  C16        0.0690   25.5290   53.0820 C.ar    0  <0>0        0.0361
     25  C11       -0.9190   29.0290   53.6260 C.ar    0  <0>0        0.0685
     26  C13       -1.5440   27.3900   51.7850 C.ar    0  <0>0        0.0037
     27 Cl         -1.8690   30.3230   52.9660 Cl      0  <0>0       -0.0816
     28  C14       -1.3930   26.1380   51.2830 C.ar    0  <0>0        0.0297
     29  C15       -0.5930   25.1900   51.9170 C.ar    0  <0>0        0.1406
     30  F1        -0.4670   23.9500   51.3970 F       0  <0>0       -0.2042
@<TRIPOS>BOND
     1    28    26   ar
     2    28    29   ar
     3    30    29    1
     4    26    23   ar
     5    29    24   ar
     6    27    25    1
     7    23    22   ar
     8    23    25   ar
     9    24    22   ar
    10    22    21   ar
    11    25    20   ar
    12    20    21   ar
    13    20    17    1
    14    19    16    1
    15    17    16   am
    16    17    18    2
    17    16     1    1
    18    14    13    1
    19    14    15    1
    20    13    12    1
    21    15    10    1
    22     1     2    1
    23    12    11    1
    24    10    11    1
    25    10     2    1
    26     2     3    1
    27     3     4   ar
    28     3     9   ar
    29     4     5   ar
    30     9     7   ar
    31     5     6   ar
    32     7     6   ar
    33     6     8    1

@<TRIPOS>MOLECULE
ZINC02611443_replica-1.pdb
 24 26 0 0 0
SMALL
GASTEIGER

@<TRIPOS>ATOM
      1  C1        -1.9050   27.6660   58.3780 C.3     0  <0>0        0.0757
      2  C2        -1.1070   28.9180   58.1210 C.ar    0  <0>0        0.1647
      3  N1        -0.6140   29.7200   59.0220 N.ar    0  <0>0       -0.1310
      4  N2         0.0130   30.6900   58.4580 N.ar    0  <0>0       -0.1206
      5  C3        -0.0410   30.5580   57.1520 C.ar    0  <0>0        0.2131
      6  N3        -0.7630   29.4230   56.8940 N.ar    0  <0>0       -0.1900
      7  S1         0.6770   31.6360   55.9580 S.3     0  <0>0       -0.0692
      8  C11        0.6290   33.1960   56.8760 C.3     0  <0>0        0.0914
      9  C12        1.9020   33.9630   56.6280 C.ar    0  <0>0       -0.0109
     10  C17        1.9290   35.3340   56.8100 C.ar    0  <0>0       -0.0029
     11  C16        3.0960   36.0380   56.5840 C.ar    0  <0>0        0.0064
     12  C15        4.2380   35.3720   56.1760 C.ar    0  <0>0        0.0345
     13  C14        4.2100   34.0020   55.9940 C.ar    0  <0>0        0.0064
     14 Br          5.8350   36.3360   55.8650 Br      0  <0>0       -0.0490
     15  C13        3.0440   33.2970   56.2250 C.ar    0  <0>0       -0.0029
     16  N4        -1.0800   28.8880   55.6390 N.2     0  <0>0       -0.1606
     17  C4        -0.2290   28.1220   55.0280 C.2     0  <0>0        0.1214
     18  C5        -0.5620   27.5580   53.7060 C.ar    0  <0>0        0.0315
     19  C10       -0.1930   26.2480   53.3890 C.ar    0  <0>0        0.0592
     20  C9        -0.5020   25.7290   52.1460 C.ar    0  <0>0        0.0114
     21 Cl          0.6590   25.2770   54.5500 Cl      0  <0>0       -0.0822
     22  C8        -1.1800   26.5010   51.2220 C.ar    0  <0>0        0.0009
     23  C7        -1.5540   27.7970   51.5320 C.ar    0  <0>0        0.0001
     24  C6        -1.2510   28.3290   52.7680 C.ar    0  <0>0        0.0024
@<TRIPOS>BOND
     1    22    23   ar
     2    22    20   ar
     3    23    24   ar
     4    20    19   ar
     5    24    18   ar
     6    19    18   ar
     7    19    21    1
     8    18    17    1
     9    17    16    2
    10    16     6    1
    11    14    12    1
    12     7     8    1
    13     7     5    1
    14    13    12   ar
    15    13    15   ar
    16    12    11   ar
    17    15     9   ar
    18    11    10   ar
    19     9    10   ar
    20     9     8    1
    21     6     5   ar
    22     6     2   ar
    23     5     4   ar
    24     2     1    1
    25     2     3   ar
    26     4     3   ar

@<TRIPOS>MOLECULE
ZINC27530289_replica-1.pdb
 30 32 0 0 0
SMALL
GASTEIGER

@<TRIPOS>ATOM
      1  C12        6.6820   34.1600   58.0350 C.3     0  <0>0        0.0732
      2  N1         7.9530   34.2020   58.7620 N.am    0  <0>0       -0.3026
      3  C11        8.0610   33.6060   59.9650 C.2     0  <0>0        0.2458
      4  O1         7.1040   33.0330   60.4480 O.2     0  <0>0       -0.2701
      5  H15        8.8190   34.7200   58.3240 H       0  <0>0        0.1497
      6  C8         9.3440   33.6490   60.7000 C.ar    0  <0>0        0.0533
      7  C7         9.7520   32.5540   61.4630 C.ar    0  <0>0        0.0042
      8  C6        10.9500   32.6020   62.1440 C.ar    0  <0>0       -0.0041
      9  C5        11.7470   33.7310   62.0730 C.ar    0  <0>0       -0.0228
     10  C10       11.3480   34.8190   61.3180 C.ar    0  <0>0       -0.0041
     11  C9        10.1520   34.7850   60.6320 C.ar    0  <0>0        0.0042
     12  C2        13.0540   33.7750   62.8210 C.3     0  <0>0        0.0189
     13  C1        14.1720   34.2060   61.8690 C.3     0  <0>0        0.0044
     14  C3        12.9490   34.7790   63.9710 C.3     0  <0>0        0.0044
     15  C4        13.3680   32.3870   63.3820 C.3     0  <0>0        0.0044
     16  C13        5.9410   35.4850   58.2240 C.3     0  <0>0       -0.0147
     17  C14        4.4980   35.2110   58.5570 C.ar    0  <0>0       -0.0397
     18  C19        4.1600   34.0900   59.2940 C.ar    0  <0>0       -0.0031
     19  C18        2.8370   33.8370   59.6010 C.ar    0  <0>0        0.0365
     20  C17        1.8470   34.7080   59.1710 C.ar    0  <0>0        0.1387
     21  C16        2.1890   35.8320   58.4320 C.ar    0  <0>0        0.0365
     22  C15        3.5130   36.0840   58.1320 C.ar    0  <0>0       -0.0031
     23  O2         0.5450   34.4620   59.4730 O.3     0  <0>0       -0.4714
     24  C20        0.2330   34.2150   60.8450 C.3     0  <0>0        0.2525
     25  N2         6.0170   36.2680   56.9830 N.4     0  <0>0        0.3919
     26  C24        6.5250   35.4420   55.8660 C.3     0  <0>0       -0.0768
     27  C23        7.3610   36.3690   54.9630 C.3     0  <0>0       -0.0249
     28  C22        7.3200   37.7500   55.6540 C.3     0  <0>0       -0.0249
     29  C21        6.9770   37.3940   57.1230 C.3     0  <0>0       -0.0768
     30  H33        4.9940   36.6240   56.7900 H       0  <0>0       -0.0791
@<TRIPOS>BOND
     1    27    28    1
     2    27    26    1
     3    28    29    1
     4    26    25    1
     5    30    25    1
     6    25    29    1
     7    25    16    1
     8     1    16    1
     9     1     2    1
    10    22    21   ar
    11    22    17   ar
    12    16    17    1
    13     5     2    1
    14    21    20   ar
    15    17    18   ar
    16     2     3   am
    17    20    23    1
    18    20    19   ar
    19    18    19   ar
    20    23    24    1
    21     3     4    2
    22     3     6    1
    23    11     6   ar
    24    11    10   ar
    25     6     7   ar
    26    10     9   ar
    27     7     8   ar
    28    13    12    1
    29     9     8   ar
    30     9    12    1
    31    12    15    1
    32    12    14    1

@<TRIPOS>MOLECULE
ZINC14163870_replica-1.pdb
 30 34 0 0 0
SMALL
GASTEIGER

@<TRIPOS>ATOM
      1  C1         4.4900   31.1700   60.3960 C.3     0  <0>0        0.0520
      2  C2         5.1050   32.5250   60.1600 C.2     0  <0>0        0.0928
      3  C3         4.4530   33.6280   59.5950 C.3     0  <0>0        0.1694
      4  C4         5.3740   34.6800   59.5550 C.2     0  <0>0        0.3328
      5  N1         5.2770   35.9420   59.1190 N.2     0  <0>0       -0.0379
      6  C5         6.2980   36.7610   59.1840 C.2     0  <0>0        0.2378
      7  C6         7.5270   36.3110   59.7240 C.2     0  <0>0        0.1035
      8  C7         7.6340   35.0120   60.1800 C.3     0  <0>0        0.2163
      9  N2         6.5440   34.2000   60.0880 N.pl3   0  <0>0       -0.0796
     10  N3         6.3370   32.8640   60.4500 N.2     0  <0>0       -0.0956
     11  C8         8.9090   34.4800   60.7700 C.3     0  <0>0        0.0588
     12  C9        10.1160   35.2900   60.3030 C.3     0  <0>0        0.0341
     13  C10        9.8790   36.7750   60.6080 C.3     0  <0>0        0.0736
     14  C11        8.6830   37.2190   59.7920 C.2     0  <0>0        0.1769
     15  O1         8.6760   38.2870   59.2160 O.2     0  <0>0       -0.2914
     16  C12       11.3500   34.8180   61.0270 C.2     0  <0>0       -0.0259
     17  C13       11.2800   33.7840   61.8530 C.2     0  <0>0       -0.0046
     18  C14       12.4910   33.3230   62.5640 C.ar    0  <0>0       -0.0003
     19  C19       13.5820   34.1800   62.7210 C.ar    0  <0>0       -0.0000
     20  C18       14.7100   33.7420   63.3820 C.ar    0  <0>0       -0.0000
     21  C17       14.7620   32.4570   63.8920 C.ar    0  <0>0       -0.0000
     22  C16       13.6840   31.6030   63.7420 C.ar    0  <0>0       -0.0000
     23  C15       12.5500   32.0280   63.0810 C.ar    0  <0>0       -0.0000
     24  C20        3.0470   33.6730   59.1260 C.ar    0  <0>0       -0.0054
     25  C25        2.7320   33.2890   57.8230 C.ar    0  <0>0       -0.0010
     26  C24        1.4230   33.3320   57.3910 C.ar    0  <0>0        0.0293
     27  C23        0.4210   33.7550   58.2510 C.ar    0  <0>0        0.1401
     28  C22        0.7290   34.1370   59.5470 C.ar    0  <0>0        0.0293
     29  F1        -0.8590   33.7960   57.8230 F       0  <0>0       -0.2042
     30  C21        2.0360   34.0930   59.9880 C.ar    0  <0>0       -0.0010
@<TRIPOS>BOND
     1    26    25   ar
     2    26    27   ar
     3    29    27    1
     4    25    24   ar
     5    27    28   ar
     6     5     6    1
     7     5     4    2
     8    24     3    1
     9    24    30   ar
    10     6     7    2
    11    15    14    2
    12    28    30   ar
    13     4     3    1
    14     4     9    1
    15     3     2    1
    16     7    14    1
    17     7     8    1
    18    14    13    1
    19     9     8    1
    20     9    10    1
    21     2     1    1
    22     2    10    2
    23     8    11    1
    24    12    13    1
    25    12    11    1
    26    12    16    1
    27    16    17    2
    28    17    18    1
    29    18    19   ar
    30    18    23   ar
    31    19    20   ar
    32    23    22   ar
    33    20    21   ar
    34    22    21   ar

@<TRIPOS>MOLECULE
ZINC05332919_replica-1.pdb
 31 33 0 0 0
SMALL
GASTEIGER

@<TRIPOS>ATOM
      1  C4         7.0940   35.9730   57.8470 C.ar    0  <0>0        0.0958
      2  C5         8.3370   36.6780   58.0960 C.ar    0  <0>0        0.0145
      3  C6         8.6430   37.6940   57.2500 C.ar    0  <0>0        0.0369
      4  S1         7.2720   37.7080   56.1140 S.2     0  <0>0       -0.0715
      5  C7         6.3350   36.4070   56.7670 C.ar    0  <0>0        0.0870
      6  N1         5.1220   35.9110   56.3170 N.am    0  <0>0       -0.2774
      7  C8         5.0960   34.8710   55.4600 C.2     0  <0>0        0.2465
      8  O3         6.1350   34.3690   55.0840 O.2     0  <0>0       -0.2729
      9  H7         4.2930   36.3120   56.6180 H       0  <0>0        0.1554
     10  C9         3.7770   34.3270   54.9750 C.3     0  <0>0        0.1739
     11  N2         2.6860   35.1480   55.5060 N.pl3   0  <0>0       -0.3253
     12  H10        2.3690   35.9160   55.0050 H       0  <0>0        0.1473
     13  C10        2.1010   34.8250   56.7320 C.ar    0  <0>0        0.0450
     14  C15        1.8570   33.4980   57.0590 C.ar    0  <0>0        0.0140
     15  C14        1.2790   33.1820   58.2720 C.ar    0  <0>0       -0.0030
     16  C13        0.9430   34.1850   59.1620 C.ar    0  <0>0       -0.0218
     17  C12        1.1850   35.5080   58.8410 C.ar    0  <0>0       -0.0030
     18  C16        0.3120   33.8370   60.4860 C.3     0  <0>0        0.0310
     19  C11        1.7680   35.8310   57.6310 C.ar    0  <0>0        0.0140
     20  C3         6.6600   34.8600   58.6920 C.2     0  <0>0        0.3429
     21  O2         6.8370   33.7130   58.3260 O.2     0  <0>0       -0.2448
     22  O1         6.0640   35.1060   59.8760 O.3     0  <0>0       -0.4454
     23  C2         4.6270   34.9020   59.9460 C.3     0  <0>0        0.2089
     24  C1         4.3350   33.5490   60.5970 C.3     0  <0>0        0.0513
     25  C17        9.2300   36.3050   59.2190 C.ar    0  <0>0        0.0007
     26  C22        9.3540   37.1470   60.3230 C.ar    0  <0>0       -0.0003
     27  C21       10.1860   36.7940   61.3670 C.ar    0  <0>0       -0.0043
     28  C20       10.8960   35.6080   61.3170 C.ar    0  <0>0       -0.0218
     29  C19       10.7770   34.7680   60.2240 C.ar    0  <0>0       -0.0043
     30  C23       11.8030   35.2280   62.4600 C.3     0  <0>0        0.0310
     31  C18        9.9450   35.1080   59.1770 C.ar    0  <0>0       -0.0003
@<TRIPOS>BOND
     1    10     7    1
     2    10    11    1
     3    12    11    1
     4     8     7    2
     5     7     6   am
     6    11    13    1
     7     4     5   ar
     8     4     3   ar
     9     6     9    1
    10     6     5    1
    11    13    14   ar
    12    13    19   ar
    13     5     1   ar
    14    14    15   ar
    15     3     2   ar
    16    19    17   ar
    17     1     2   ar
    18     1    20    1
    19     2    25    1
    20    15    16   ar
    21    21    20    2
    22    20    22    1
    23    17    16   ar
    24    16    18    1
    25    31    25   ar
    26    31    29   ar
    27    25    26   ar
    28    22    23    1
    29    23    24    1
    30    29    28   ar
    31    26    27   ar
    32    28    27   ar
    33    28    30    1

@<TRIPOS>MOLECULE
ZINC00222269_replica-1.pdb
 24 27 0 0 0
SMALL
GASTEIGER

@<TRIPOS>ATOM
      1  C7         5.1730   35.8500   57.9580 C.3     0  <0>0        0.1322
      2  C8         6.2720   35.7740   59.0250 C.3     0  <0>0        0.0531
      3  C9         7.6450   35.9440   58.3660 C.3     0  <0>0        0.0965
      4  N1         7.8570   34.8290   57.4230 N.pl3   0  <0>0       -0.3010
      5  C10        6.7750   34.4920   56.6190 C.ar    0  <0>0        0.2158
      6  N2         5.5250   34.9610   56.8510 N.ar    0  <0>0       -0.2185
      7  N3         4.7060   34.4290   55.8540 N.ar    0  <0>0       -0.1440
      8  C11        5.4720   33.6890   55.0920 C.ar    0  <0>0        0.2220
      9  N4         6.7300   33.7260   55.5620 N.ar    0  <0>0       -0.1903
     10  H9         8.7020   34.3570   57.3680 H       0  <0>0        0.1499
     11  C6         3.8580   35.4170   58.5550 C.ar    0  <0>0        0.0002
     12  C1         3.8220   34.3770   59.4650 C.ar    0  <0>0       -0.0001
     13  C2         2.6170   33.9790   60.0130 C.ar    0  <0>0        0.0294
     14  C3         1.4450   34.6240   59.6500 C.ar    0  <0>0        0.1401
     15  C4         1.4840   35.6650   58.7390 C.ar    0  <0>0        0.0294
     16  F1         0.2670   34.2360   60.1850 F       0  <0>0       -0.2042
     17  C5         2.6900   36.0610   58.1930 C.ar    0  <0>0       -0.0001
     18  C12        8.7190   35.9270   59.4240 C.ar    0  <0>0       -0.0044
     19  C17        8.7130   36.8760   60.4290 C.ar    0  <0>0       -0.0018
     20  C16        9.6940   36.8580   61.4030 C.ar    0  <0>0        0.0111
     21  C15       10.6880   35.8970   61.3640 C.ar    0  <0>0        0.0577
     22  C14       10.6980   34.9510   60.3540 C.ar    0  <0>0        0.0111
     23 Cl         11.9250   35.8780   62.5820 Cl      0  <0>0       -0.0822
     24  C13        9.7120   34.9670   59.3840 C.ar    0  <0>0       -0.0018
@<TRIPOS>BOND
     1     8     9   ar
     2     8     7   ar
     3     9     5   ar
     4     7     6   ar
     5     5     6   ar
     6     5     4    1
     7     6     1    1
     8    10     4    1
     9     4     3    1
    10     1    11    1
    11     1     2    1
    12    17    11   ar
    13    17    15   ar
    14     3     2    1
    15     3    18    1
    16    11    12   ar
    17    15    14   ar
    18    24    18   ar
    19    24    22   ar
    20    18    19   ar
    21    12    13   ar
    22    14    13   ar
    23    14    16    1
    24    22    21   ar
    25    19    20   ar
    26    21    20   ar
    27    21    23    1

@<TRIPOS>MOLECULE
ZINC06387494_replica-1.pdb
 25 27 0 0 0
SMALL
GASTEIGER

@<TRIPOS>ATOM
      1  C3        -1.6420   30.0610   54.3480 C.3     0  <0>0        0.3170
      2  C4        -0.4400   29.4830   55.0530 C.2     0  <0>0        0.1007
      3  C5         0.1270   30.1330   56.0940 C.2     0  <0>0        0.0669
      4  C12        0.0810   28.2400   54.6040 C.2     0  <0>0        0.2016
      5  O2         0.9780   27.6740   55.2060 O.2     0  <0>0       -0.2865
      6  C13       -0.5090   27.6600   53.3770 C.ar    0  <0>0        0.0726
      7  C14       -0.2310   26.3500   52.9960 C.ar    0  <0>0        0.0020
      8  C15       -0.8100   25.8360   51.8540 C.ar    0  <0>0       -0.0216
      9  C16       -1.6630   26.6170   51.0920 C.ar    0  <0>0       -0.0011
     10  C17       -1.9400   27.9190   51.4580 C.ar    0  <0>0        0.0368
     11  C18       -1.3600   28.4550   52.5990 C.ar    0  <0>0        0.1446
     12  O3        -1.6020   29.7390   52.9570 O.3     0  <0>0       -0.4489
     13  C19       -0.5130   24.4190   51.4340 C.3     0  <0>0        0.0310
     14  O1        -2.8330   29.5240   54.9280 O.3     0  <0>0       -0.3170
     15  C2        -2.8910   29.6410   56.3510 C.3     0  <0>0        0.1463
     16  C1        -2.9880   28.2460   56.9740 C.3     0  <0>0        0.0348
     17  N1        -0.3850   31.3290   56.5130 N.pl3   0  <0>0       -0.3116
     18  H8        -1.4740   31.4810   56.5400 H       0  <0>0        0.1522
     19  C6         0.4750   32.3560   56.9100 C.ar    0  <0>0        0.0484
     20  C11        1.7500   32.4470   56.3650 C.ar    0  <0>0        0.0151
     21  C10        2.5970   33.4630   56.7580 C.ar    0  <0>0        0.0080
     22  C9         2.1750   34.3950   57.6890 C.ar    0  <0>0        0.0346
     23  C8         0.9090   34.3060   58.2380 C.ar    0  <0>0        0.0080
     24 Br          3.3360   35.7920   58.2190 Br      0  <0>0       -0.0490
     25  C7         0.0570   33.2910   57.8490 C.ar    0  <0>0        0.0151
@<TRIPOS>BOND
     1     9    10   ar
     2     9     8   ar
     3    13     8    1
     4    10    11   ar
     5     8     7   ar
     6    11    12    1
     7    11     6   ar
     8    12     1    1
     9     7     6   ar
    10     6     4    1
    11     1    14    1
    12     1     2    1
    13     4     2    1
    14     4     5    2
    15    14    15    1
    16     2     3    2
    17     3    17    1
    18    15    16    1
    19    20    21   ar
    20    20    19   ar
    21    17    18    1
    22    17    19    1
    23    21    22   ar
    24    19    25   ar
    25    22    24    1
    26    22    23   ar
    27    25    23   ar

@<TRIPOS>MOLECULE
ZINC00709482_replica-1.pdb
 29 33 0 0 0
SMALL
GASTEIGER

@<TRIPOS>ATOM
      1  C9         6.8430   35.2450   56.1470 C.3     0  <0>0        0.1174
      2  C10        7.5130   34.0670   56.8090 C.2     0  <0>0        0.0304
      3  C11        8.2870   34.2130   57.9180 C.2     0  <0>0       -0.0203
      4  C12        8.7380   32.9980   58.6880 C.3     0  <0>0        0.0267
      5  C13        7.8760   31.7800   58.3570 C.3     0  <0>0        0.0128
      6  C14        7.9000   31.5680   56.8390 C.3     0  <0>0        0.0692
      7  C15        7.3360   32.8100   56.2000 C.2     0  <0>0        0.1707
      8  O1         6.7310   32.7250   55.1520 O.2     0  <0>0       -0.2916
      9  C16        8.6350   35.5050   58.3910 C.ar    0  <0>0        0.0105
     10  C17        9.4380   35.7330   59.5910 C.ar    0  <0>0        0.0186
     11  C18       10.1630   34.7310   60.2450 C.ar    0  <0>0        0.0031
     12  C19       10.8070   35.0310   61.4170 C.ar    0  <0>0        0.0207
     13  C20       10.7290   36.3170   61.9430 C.ar    0  <0>0        0.0988
     14  N2        10.0850   37.2650   61.3090 N.ar    0  <0>0       -0.2438
     15  C21        9.4990   37.0450   60.1290 C.ar    0  <0>0        0.0814
     16  C22        8.9480   38.1230   59.4090 C.ar    0  <0>0        0.0204
     17  C23        8.3250   37.9160   58.2250 C.ar    0  <0>0        0.0158
     18  C24        8.1600   36.6310   57.7010 C.ar    0  <0>0        0.0448
     19  N3         7.5430   36.4870   56.4690 N.pl3   0  <0>0       -0.3272
     20  H23        7.5410   37.2270   55.8350 H       0  <0>0        0.1474
     21  C6         5.4160   35.3400   56.6200 C.ar    0  <0>0       -0.0002
     22  C5         5.0490   34.7640   57.8230 C.ar    0  <0>0       -0.0011
     23  C4         3.7410   34.8490   58.2600 C.ar    0  <0>0        0.0143
     24  C3         2.7950   35.5130   57.4890 C.ar    0  <0>0        0.0479
     25  C8         3.1670   36.0900   56.2820 C.ar    0  <0>0        0.0143
     26  C7         4.4780   36.0060   55.8540 C.ar    0  <0>0       -0.0011
     27  N1         1.4710   35.6000   57.9280 N.pl3   0  <0>0       -0.3041
     28  C1         0.4040   35.9170   56.9770 C.3     0  <0>0        0.1122
     29  C2         1.1520   35.3750   59.3400 C.3     0  <0>0        0.1122
@<TRIPOS>BOND
     1     8     7    2
     2    20    19    1
     3    26    25   ar
     4    26    21   ar
     5     1    19    1
     6     1    21    1
     7     1     2    1
     8     7     2    1
     9     7     6    1
    10    25    24   ar
    11    19    18    1
    12    21    22   ar
    13     2     3    2
    14     6     5    1
    15    28    27    1
    16    24    27    1
    17    24    23   ar
    18    18    17   ar
    19    18     9   ar
    20    22    23   ar
    21     3     9    1
    22     3     4    1
    23    27    29    1
    24    17    16   ar
    25     5     4    1
    26     9    10   ar
    27    16    15   ar
    28    10    15   ar
    29    10    11   ar
    30    15    14   ar
    31    11    12   ar
    32    14    13   ar
    33    12    13   ar

@<TRIPOS>MOLECULE
ZINC01788905_replica-1.pdb
 32 35 0 0 0
SMALL
GASTEIGER

@<TRIPOS>ATOM
      1  C7        -1.7110   30.3190   56.0700 C.3     0  <0>0        0.1096
      2  C4        -1.9010   29.2760   57.1400 C.ar    0  <0>0       -0.0032
      3  C3        -1.1560   29.3340   58.3030 C.ar    0  <0>0       -0.0026
      4  C2        -1.3310   28.3770   59.2850 C.ar    0  <0>0       -0.0003
      5  C1        -2.2520   27.3610   59.1050 C.ar    0  <0>0       -0.0000
      6  C6        -2.9970   27.3040   57.9420 C.ar    0  <0>0       -0.0003
      7  C5        -2.8250   28.2630   56.9620 C.ar    0  <0>0       -0.0026
      8  C8        -1.0230   31.5470   56.6710 C.3     0  <0>0        0.1154
      9  N1         0.3470   31.6370   56.1620 N.3     0  <0>0       -0.1774
     10  H9         0.6280   31.0760   55.4230 H       0  <0>0        0.1489
     11  S1         1.4190   32.6960   56.8500 S.O2    0  <0>0        0.0603
     12  O1         2.7100   32.1200   56.7030 O.2     0  <0>0       -0.1530
     13  O2         1.0950   33.9850   56.3470 O.2     0  <0>0       -0.1530
     14  C9         1.0770   32.7310   58.5790 C.ar    0  <0>0        0.1220
     15  C14        1.3860   31.6370   59.3670 C.ar    0  <0>0        0.0208
     16  C13        1.1190   31.6640   60.7220 C.ar    0  <0>0        0.0128
     17  C12        0.5430   32.7870   61.2910 C.ar    0  <0>0        0.0578
     18  C11        0.2350   33.8810   60.5030 C.ar    0  <0>0        0.0128
     19 Cl          0.2070   32.8210   62.9940 Cl      0  <0>0       -0.0822
     20  C10        0.5080   33.8540   59.1480 C.ar    0  <0>0        0.0208
     21  N2        -0.8800   29.7710   54.9950 N.pl3   0  <0>0       -0.3295
     22  H14        0.0720   29.6480   55.1320 H       0  <0>0        0.1471
     23  C15       -1.4590   29.4260   53.7750 C.ar    0  <0>0        0.0448
     24  C20       -1.1340   28.2020   53.1540 C.ar    0  <0>0        0.0131
     25  C19       -1.7380   27.8680   51.9170 C.ar    0  <0>0        0.0012
     26  C21       -0.2360   27.3000   53.7480 C.ar    0  <0>0        0.0012
     27  C18       -2.6400   28.7680   51.3240 C.ar    0  <0>0        0.0001
     28  C24       -1.4180   26.6460   51.3010 C.ar    0  <0>0        0.0000
     29  C17       -2.9320   29.9450   51.9420 C.ar    0  <0>0        0.0013
     30  C16       -2.3490   30.2800   53.1610 C.ar    0  <0>0        0.0143
     31  C23       -0.5390   25.7980   51.9040 C.ar    0  <0>0        0.0000
     32  C22        0.0500   26.1240   53.1230 C.ar    0  <0>0        0.0000
@<TRIPOS>BOND
     1    28    31   ar
     2    28    25   ar
     3    27    25   ar
     4    27    29   ar
     5    31    32   ar
     6    25    24   ar
     7    29    30   ar
     8    32    26   ar
     9    24    26   ar
    10    24    23   ar
    11    30    23   ar
    12    23    21    1
    13    21    22    1
    14    21     1    1
    15    10     9    1
    16     1     8    1
    17     1     2    1
    18     9     8    1
    19     9    11    1
    20    13    11    2
    21    12    11    2
    22    11    14    1
    23     7     2   ar
    24     7     6   ar
    25     2     3   ar
    26     6     5   ar
    27     3     4   ar
    28    14    20   ar
    29    14    15   ar
    30     5     4   ar
    31    20    18   ar
    32    15    16   ar
    33    18    17   ar
    34    16    17   ar
    35    17    19    1

@<TRIPOS>MOLECULE
ZINC00706993_replica-1.pdb
 27 30 0 0 0
SMALL
GASTEIGER

@<TRIPOS>ATOM
      1  N3        -1.3350   29.1120   54.8640 N.pl3   0  <0>0       -0.2835
      2  C8        -1.2880   28.4730   53.6210 C.ar    0  <0>0        0.0577
      3  C9        -2.0400   28.9530   52.5590 C.ar    0  <0>0        0.0153
      4  C10       -1.9900   28.3140   51.3320 C.ar    0  <0>0        0.0013
      5  C11       -1.1960   27.1970   51.1550 C.ar    0  <0>0        0.0006
      6  C12       -0.4400   26.7090   52.2100 C.ar    0  <0>0        0.0077
      7  C13       -0.4870   27.3430   53.4360 C.ar    0  <0>0        0.0431
      8  S1         0.4640   26.7450   54.7990 S.3     0  <0>0       -0.0844
      9  C14       -0.5020   27.2560   56.1860 C.ar    0  <0>0        0.0431
     10  C15       -1.2970   28.3960   56.0660 C.ar    0  <0>0        0.0577
     11  C16       -2.0550   28.8070   57.1490 C.ar    0  <0>0        0.0153
     12  C17       -2.0140   28.0920   58.3340 C.ar    0  <0>0        0.0013
     13  C18       -1.2210   26.9660   58.4440 C.ar    0  <0>0        0.0006
     14  C19       -0.4700   26.5450   57.3710 C.ar    0  <0>0        0.0077
     15  C7        -1.4190   30.5740   54.9100 C.3     0  <0>0        0.1267
     16  C6        -0.0240   31.1580   55.1360 C.3     0  <0>0        0.1548
     17  C5         0.0910   31.6620   56.5770 C.3     0  <0>0        0.1579
     18  N1         1.1760   32.6440   56.6640 N.ar    0  <0>0       -0.2522
     19  C4         1.2740   33.6390   57.5710 C.ar    0  <0>0        0.0634
     20  C3         2.4170   34.3190   57.3140 C.ar    0  <0>0        0.0629
     21  C20        0.2890   33.9410   58.6710 C.3     0  <0>0        0.0523
     22  C2         3.0380   33.7170   56.2140 C.ar    0  <0>0        0.0862
     23 Br          3.0610   35.8160   58.2730 Br      0  <0>0       -0.0465
     24  C1         4.3370   34.1510   55.5860 C.3     0  <0>0        0.0545
     25  N2         2.2920   32.7160   55.8210 N.ar    0  <0>0       -0.1734
     26  O1         0.9590   30.1470   54.9060 O.3     0  <0>0       -0.3806
     27  H17        0.8810   29.7100   54.0470 H       0  <0>0        0.2105
@<TRIPOS>BOND
     1     5     4   ar
     2     5     6   ar
     3     4     3   ar
     4     6     7   ar
     5     3     2   ar
     6     7     2   ar
     7     7     8    1
     8     2     1    1
     9    27    26    1
    10     8     9    1
    11     1    15    1
    12     1    10    1
    13    26    16    1
    14    15    16    1
    15    16    17    1
    16    24    22    1
    17    25    22   ar
    18    25    18   ar
    19    10     9   ar
    20    10    11   ar
    21     9    14   ar
    22    22    20   ar
    23    17    18    1
    24    18    19   ar
    25    11    12   ar
    26    20    19   ar
    27    20    23    1
    28    14    13   ar
    29    19    21    1
    30    12    13   ar

@<TRIPOS>MOLECULE
ZINC17113631_replica-1.pdb
 35 39 0 0 0
SMALL
GASTEIGER

@<TRIPOS>ATOM
      1  C10        1.0640   32.2080   58.8170 C.3     0  <0>0        0.0649
      2  C11        0.1860   31.4670   57.8540 C.3     0  <0>0        0.1516
      3  C12       -0.3980   30.2500   58.2220 C.2     0  <0>0        0.2365
      4  O1        -0.2050   29.7770   59.3300 O.2     0  <0>0       -0.2742
      5  N1        -1.1830   29.6110   57.3280 N.am    0  <0>0       -0.2540
      6  H2        -1.6010   28.7680   57.5660 H       0  <0>0        0.1577
      7  C13       -1.3870   30.1440   56.0920 C.2     0  <0>0        0.2145
      8  N2        -0.8400   31.2910   55.7410 N.2     0  <0>0       -0.3697
      9  C14       -0.0590   31.9710   56.5880 C.2     0  <0>0        0.1714
     10  N3         0.5040   33.1730   56.2100 N.pl3   0  <0>0       -0.2946
     11  C15        0.9570   34.0570   57.1520 C.2     0  <0>0        0.0260
     12  C16        1.2360   33.6490   58.4070 C.2     0  <0>0        0.0265
     13  C17        1.7000   34.5560   59.3760 C.2     0  <0>0        0.1703
     14  O2         1.9200   34.1620   60.5050 O.2     0  <0>0       -0.2916
     15  C18        1.9310   36.0050   59.0440 C.3     0  <0>0        0.0693
     16  C19        2.2740   36.1240   57.5540 C.3     0  <0>0        0.0141
     17  C20        1.1350   35.5000   56.7460 C.3     0  <0>0        0.0414
     18  H14        0.5790   33.3940   55.2670 H       0  <0>0        0.1540
     19  C7         2.4160   31.5450   58.8650 C.ar    0  <0>0       -0.0174
     20  C6         3.3570   31.8240   57.8910 C.ar    0  <0>0       -0.0043
     21  C5         4.5980   31.2160   57.9350 C.ar    0  <0>0       -0.0046
     22  C4         4.8990   30.3320   58.9540 C.ar    0  <0>0       -0.0225
     23  C9         3.9580   30.0540   59.9300 C.ar    0  <0>0       -0.0046
     24  C8         2.7190   30.6650   59.8870 C.ar    0  <0>0       -0.0043
     25  C2         6.2520   29.6700   59.0040 C.3     0  <0>0        0.0224
     26  C1         6.0790   28.1740   59.2710 C.3     0  <0>0        0.0047
     27  C3         6.9660   29.8700   57.6650 C.3     0  <0>0        0.0047
     28  S1        -2.4090   29.2890   54.9400 S.3     0  <0>0       -0.0621
     29  C21       -1.3930   29.4330   53.4490 C.3     0  <0>0        0.0921
     30  C22       -1.0800   28.0580   52.9180 C.ar    0  <0>0       -0.0109
     31  C27       -0.3240   27.1810   53.6730 C.ar    0  <0>0       -0.0034
     32  C26       -0.0370   25.9200   53.1850 C.ar    0  <0>0       -0.0003
     33  C25       -0.5070   25.5360   51.9430 C.ar    0  <0>0       -0.0000
     34  C24       -1.2630   26.4130   51.1880 C.ar    0  <0>0       -0.0003
     35  C23       -1.5500   27.6740   51.6750 C.ar    0  <0>0       -0.0034
@<TRIPOS>BOND
     1    34    35   ar
     2    34    33   ar
     3    35    30   ar
     4    33    32   ar
     5    30    29    1
     6    30    31   ar
     7    32    31   ar
     8    29    28    1
     9    28     7    1
    10    18    10    1
    11     8     7    2
    12     8     9    2
    13     7     5    1
    14    10     9    1
    15    10    11    1
    16     9     2    1
    17    17    11    1
    18    17    16    1
    19    11    12    2
    20     5     6    1
    21     5     3   am
    22    16    15    1
    23    27    25    1
    24     2     3    1
    25     2     1    1
    26    20    21   ar
    27    20    19   ar
    28    21    22   ar
    29     3     4    2
    30    12     1    1
    31    12    13    1
    32     1    19    1
    33    19    24   ar
    34    22    25    1
    35    22    23   ar
    36    25    26    1
    37    15    13    1
    38    13    14    2
    39    24    23   ar

@<TRIPOS>MOLECULE
ZINC00626227_replica-1.pdb
 26 28 0 0 0
SMALL
GASTEIGER

@<TRIPOS>ATOM
      1  C4         5.0650   35.1440   56.6360 C.3     0  <0>0        0.1691
      2  C5         3.9800   34.7080   55.8730 C.2     0  <0>0        0.1010
      3  N1         2.9620   34.0850   56.4260 N.2     0  <0>0       -0.4139
      4  C6         2.8950   33.8370   57.7250 C.2     0  <0>0        0.1106
      5  C7         3.9330   34.2360   58.5660 C.2     0  <0>0        0.0570
      6  C8         5.0480   34.9110   58.0270 C.2     0  <0>0       -0.0007
      7  C15        3.8770   33.9520   60.0080 C.2     0  <0>0        0.1749
      8  O3         4.8500   34.1010   60.7160 O.2     0  <0>0       -0.2913
      9  C16        2.5600   33.4670   60.5780 C.3     0  <0>0        0.0696
     10  C17        1.9860   32.4410   59.5920 C.3     0  <0>0        0.0139
     11  C18        1.6800   33.1290   58.2650 C.3     0  <0>0        0.0594
     12  C19        3.0070   31.3240   59.3660 C.3     0  <0>0        0.0009
     13  C20        0.6990   31.8460   60.1670 C.3     0  <0>0        0.0009
     14  C21        3.9780   34.9510   54.3860 C.3     0  <0>0        0.0624
     15  C9         6.1640   35.3540   58.8890 C.ar    0  <0>0       -0.0029
     16  C14        7.2960   34.5520   59.0400 C.ar    0  <0>0        0.0002
     17  C13        8.3330   34.9710   59.8450 C.ar    0  <0>0        0.0067
     18  C12        8.2540   36.1860   60.5050 C.ar    0  <0>0        0.0346
     19  C11        7.1330   36.9870   60.3610 C.ar    0  <0>0        0.0067
     20 Br          9.6800   36.7530   61.6090 Br      0  <0>0       -0.0490
     21  C10        6.0920   36.5820   59.5520 C.ar    0  <0>0        0.0002
     22  C3         6.2010   35.8390   56.0010 C.2     0  <0>0        0.3271
     23  O2         7.1170   35.1980   55.5270 O.2     0  <0>0       -0.2493
     24  O1         6.2220   37.1850   55.9480 O.3     0  <0>0       -0.4480
     25  C2         7.4980   37.8130   55.6480 C.3     0  <0>0        0.2086
     26  C1         8.2110   38.1690   56.9540 C.3     0  <0>0        0.0513
@<TRIPOS>BOND
     1    14     2    1
     2    23    22    2
     3    25    24    1
     4    25    26    1
     5     2     3    2
     6     2     1    1
     7    24    22    1
     8    22     1    1
     9     3     4    2
    10     1     6    1
    11     4    11    1
    12     4     5    1
    13     6     5    2
    14     6    15    1
    15    11    10    1
    16     5     7    1
    17    15    16   ar
    18    15    21   ar
    19    16    17   ar
    20    12    10    1
    21    21    19   ar
    22    10    13    1
    23    10     9    1
    24    17    18   ar
    25     7     9    1
    26     7     8    2
    27    19    18   ar
    28    18    20    1

@<TRIPOS>MOLECULE
ZINC64676146_replica-1.pdb
 28 31 0 0 0
SMALL
GASTEIGER

@<TRIPOS>ATOM
      1  C8         4.8820   35.9450   58.4130 C.2     0  <0>0        0.1315
      2  C9         5.8660   36.5700   59.1050 C.3     0  <0>0        0.1569
      3  N1         6.8140   37.0040   58.1860 N.pl3   0  <0>0       -0.2532
      4  C10        8.0160   37.6800   58.1950 C.2     0  <0>0        0.0476
      5  C11        8.6680   37.9250   57.0600 C.2     0  <0>0        0.0501
      6  S1         7.5860   37.1900   55.8440 S.3     0  <0>0       -0.0383
      7  C12        6.3350   36.6070   56.9650 C.2     0  <0>0        0.2182
      8  N2         5.2030   35.9810   57.1040 N.2     0  <0>0       -0.3829
      9  C13        8.5990   38.1450   59.5040 C.3     0  <0>0        0.1272
     10  C14        8.9820   36.9490   60.3370 C.2     0  <0>0        0.2319
     11  O1         8.4730   36.7800   61.4250 O.2     0  <0>0       -0.2744
     12  N3         9.8890   36.0670   59.8730 N.am    0  <0>0       -0.2836
     13  H12       10.2460   36.1650   58.9770 H       0  <0>0        0.1549
     14  C15       10.3170   35.0100   60.6840 C.ar    0  <0>0        0.0500
     15  C20       11.4190   35.1720   61.5140 C.ar    0  <0>0        0.0101
     16  C19       11.8350   34.1270   62.3170 C.ar    0  <0>0       -0.0246
     17  C18       11.1620   32.9190   62.2880 C.ar    0  <0>0       -0.0257
     18  C21       13.0260   34.3040   63.2230 C.3     0  <0>0        0.0307
     19  C17       10.0680   32.7540   61.4590 C.ar    0  <0>0       -0.0033
     20  C22       11.6230   31.7810   63.1610 C.3     0  <0>0        0.0307
     21  C16        9.6430   33.7950   60.6570 C.ar    0  <0>0        0.0143
     22  C5         3.6660   35.3260   58.9960 C.ar    0  <0>0        0.0272
     23  C4         3.7820   34.2430   59.8660 C.ar    0  <0>0        0.0019
     24  C3         2.6480   33.6720   60.4060 C.ar    0  <0>0       -0.0042
     25  C2         1.3990   34.1710   60.0860 C.ar    0  <0>0       -0.0218
     26  C1         0.1640   33.5420   60.6790 C.3     0  <0>0        0.0310
     27  C7         1.2770   35.2420   59.2190 C.ar    0  <0>0       -0.0042
     28  C6         2.4040   35.8250   58.6770 C.ar    0  <0>0        0.0019
@<TRIPOS>BOND
     1     6     7    1
     2     6     5    1
     3     7     8    2
     4     7     3    1
     5     5     4    2
     6     8     1    2
     7     3     4    1
     8     3     2    1
     9     4     9    1
    10     1    22    1
    11     1     2    1
    12    28    22   ar
    13    28    27   ar
    14    13    12    1
    15    22    23   ar
    16    27    25   ar
    17     9    10    1
    18    23    24   ar
    19    12    10   am
    20    12    14    1
    21    25    24   ar
    22    25    26    1
    23    10    11    2
    24    21    14   ar
    25    21    19   ar
    26    14    15   ar
    27    19    17   ar
    28    15    16   ar
    29    17    16   ar
    30    17    20    1
    31    16    18    1

@<TRIPOS>MOLECULE
ZINC08548706_replica-1.pdb
 29 32 0 0 0
SMALL
GASTEIGER

@<TRIPOS>ATOM
      1  C1        -2.9370   30.0900   55.8990 C.3     0  <0>0        0.0537
      2  C2        -1.6950   30.6390   56.5540 C.ar    0  <0>0        0.0780
      3  C3        -0.6640   29.8870   57.1120 C.ar    0  <0>0        0.0244
      4  C4         0.2660   30.7480   57.5990 C.ar    0  <0>0        0.0592
      5  N1        -0.1620   32.0000   57.3530 N.ar    0  <0>0       -0.2343
      6  N2        -1.3970   31.9080   56.6960 N.ar    0  <0>0       -0.1701
      7  C11        1.5390   30.3180   58.2860 C.3     0  <0>0        0.0457
      8  C12        1.3930   28.8480   58.6990 C.3     0  <0>0        0.0075
      9  C13        0.9080   28.0270   57.5010 C.3     0  <0>0        0.0246
     10  C14       -0.5500   28.3850   57.1900 C.3     0  <0>0        0.0967
     11  C22        0.3790   28.7380   59.8380 C.3     0  <0>0        0.0005
     12  C23        2.7480   28.3140   59.1690 C.3     0  <0>0        0.0005
     13  N3        -0.9410   27.7930   55.9090 N.am    0  <0>0       -0.2986
     14  C15       -0.1930   28.0120   54.8100 C.2     0  <0>0        0.2469
     15  O1         0.7560   28.7690   54.8610 O.2     0  <0>0       -0.2701
     16  H14       -1.7400   27.2470   55.8510 H       0  <0>0        0.1500
     17  C16       -0.5270   27.3300   53.5410 C.ar    0  <0>0        0.0639
     18  C21       -0.1550   25.9990   53.3410 C.ar    0  <0>0        0.0620
     19  C20       -0.4740   25.3680   52.1540 C.ar    0  <0>0        0.0115
     20 Cl          0.6990   25.1370   54.5820 Cl      0  <0>0       -0.0821
     21  C19       -1.1500   26.0540   51.1620 C.ar    0  <0>0        0.0009
     22  C18       -1.5170   27.3760   51.3540 C.ar    0  <0>0        0.0002
     23  C17       -1.2090   28.0160   52.5350 C.ar    0  <0>0        0.0054
     24  C5         0.5080   33.1840   57.6930 C.ar    0  <0>0        0.0824
     25  C10        1.3310   33.8090   56.7660 C.ar    0  <0>0        0.0191
     26  C9         1.9880   34.9750   57.1040 C.ar    0  <0>0        0.0015
     27  C8         1.8280   35.5210   58.3650 C.ar    0  <0>0        0.0001
     28  C7         1.0080   34.9010   59.2910 C.ar    0  <0>0        0.0015
     29  C6         0.3440   33.7370   58.9560 C.ar    0  <0>0        0.0191
@<TRIPOS>BOND
     1    21    22   ar
     2    21    19   ar
     3    22    23   ar
     4    19    18   ar
     5    23    17   ar
     6    18    17   ar
     7    18    20    1
     8    17    14    1
     9    14    15    2
    10    14    13   am
    11    16    13    1
    12     1     2    1
    13    13    10    1
    14     2     6   ar
    15     2     3   ar
    16     6     5   ar
    17    25    26   ar
    18    25    24   ar
    19    26    27   ar
    20     3    10    1
    21     3     4   ar
    22    10     9    1
    23     5     4   ar
    24     5    24    1
    25     9     8    1
    26     4     7    1
    27    24    29   ar
    28     7     8    1
    29    27    28   ar
    30     8    12    1
    31     8    11    1
    32    29    28   ar

@<TRIPOS>MOLECULE
ZINC66861835_replica-1.pdb
 27 29 0 0 0
SMALL
GASTEIGER

@<TRIPOS>ATOM
      1  C8         0.4170   31.0760   55.5710 C.2     0  <0>0        0.2429
      2  O1         0.4780   30.1770   56.3830 O.2     0  <0>0       -0.2732
      3  N2         1.2530   32.1270   55.6670 N.am    0  <0>0       -0.2968
      4  H9         1.2060   32.8470   55.0170 H       0  <0>0        0.1500
      5  C9         2.2360   32.1860   56.7510 C.3     0  <0>0        0.1230
      6  C10        1.6410   32.9090   57.9320 C.ar    0  <0>0        0.0003
      7  C15        1.4250   32.2340   59.1190 C.ar    0  <0>0       -0.0000
      8  C14        0.8830   32.8980   60.2030 C.ar    0  <0>0        0.0294
      9  C13        0.5460   34.2360   60.0970 C.ar    0  <0>0        0.1401
     10  C12        0.7570   34.9100   58.9060 C.ar    0  <0>0        0.0294
     11  F1         0.0110   34.8840   61.1550 F       0  <0>0       -0.2042
     12  C11        1.3040   34.2460   57.8250 C.ar    0  <0>0       -0.0000
     13  C16        3.4640   32.9220   56.2780 C.ar    0  <0>0        0.0292
     14  S1         5.1420   32.8100   56.8760 S.2     0  <0>0       -0.0888
     15  C19        5.8840   33.9950   55.7650 C.ar    0  <0>0        0.0352
     16  C18        4.8190   34.3950   55.0300 C.ar    0  <0>0        0.0072
     17  C17        3.5780   33.8460   55.2930 C.ar    0  <0>0        0.0046
     18  C7        -0.5930   31.0160   54.4550 C.3     0  <0>0        0.1737
     19  N1        -1.3680   29.7770   54.5630 N.pl3   0  <0>0       -0.3235
     20  H6        -1.9970   29.6600   55.2920 H       0  <0>0        0.1473
     21  C5        -1.2000   28.7630   53.6150 C.ar    0  <0>0        0.0728
     22  C4        -1.8460   28.8430   52.3860 C.ar    0  <0>0        0.1531
     23  C3        -1.6770   27.8370   51.4520 C.ar    0  <0>0        0.0309
     24  F2        -2.6370   29.9010   52.1060 F       0  <0>0       -0.2029
     25  C2        -0.8670   26.7540   51.7390 C.ar    0  <0>0        0.0024
     26  C1        -0.2240   26.6720   52.9610 C.ar    0  <0>0        0.0014
     27  C6        -0.3880   27.6730   53.8990 C.ar    0  <0>0        0.0166
@<TRIPOS>BOND
     1    23    25   ar
     2    23    22   ar
     3    25    26   ar
     4    24    22    1
     5    22    21   ar
     6    26    27   ar
     7    21    27   ar
     8    21    19    1
     9    18    19    1
    10    18     1    1
    11    19    20    1
    12     4     3    1
    13    16    17   ar
    14    16    15   ar
    15    17    13   ar
    16     1     3   am
    17     1     2    2
    18     3     5    1
    19    15    14   ar
    20    13     5    1
    21    13    14   ar
    22     5     6    1
    23    12     6   ar
    24    12    10   ar
    25     6     7   ar
    26    10     9   ar
    27     7     8   ar
    28     9     8   ar
    29     9    11    1

@<TRIPOS>MOLECULE
ZINC21639645_replica-1.pdb
 27 30 0 0 0
SMALL
GASTEIGER

@<TRIPOS>ATOM
      1  N1        11.7510   35.1780   62.3580 N.pl3   0  <0>0       -0.2451
      2  C7        10.9190   35.2760   61.2540 C.1     0  <0>0        0.1483
      3  N2        10.7580   34.2190   60.4690 N.2     0  <0>0       -0.1700
      4  C8         9.9680   34.2810   59.4120 C.2     0  <0>0        0.1110
      5  C9         9.3140   35.4700   59.1210 C.2     0  <0>0        0.0402
      6  C10        9.5060   36.5520   59.9550 C.2     0  <0>0        0.1219
      7  N3        10.3090   36.4230   61.0030 N.2     0  <0>0       -0.3421
      8  C11        8.8240   37.8700   59.7100 C.3     0  <0>0        0.0770
      9  C12        8.3020   37.9260   58.2730 C.3     0  <0>0        0.0801
     10  N4         7.5290   36.7030   58.0060 N.3     0  <0>0       -0.2647
     11  C13        8.4240   35.5450   57.9110 C.3     0  <0>0        0.1033
     12  H5        11.9760   36.0730   62.9560 H       0  <0>0        0.1648
     13  C5        12.3030   33.9420   62.7100 C.ar    0  <0>0        0.0849
     14  C4        13.6820   33.7630   62.6890 C.ar    0  <0>0        0.1540
     15  C3        14.2240   32.5420   63.0440 C.ar    0  <0>0        0.0309
     16  F1        14.4910   34.7810   62.3220 F       0  <0>0       -0.2028
     17  C2        13.3960   31.5000   63.4200 C.ar    0  <0>0        0.0024
     18  C1        12.0250   31.6750   63.4410 C.ar    0  <0>0        0.0014
     19  C6        11.4760   32.8930   63.0880 C.ar    0  <0>0        0.0175
     20  C14        6.7220   36.8460   56.7860 C.3     0  <0>0        0.0994
     21  C15        5.3040   36.4240   57.0700 C.ar    0  <0>0       -0.0061
     22  C20        4.3780   36.3750   56.0440 C.ar    0  <0>0       -0.0024
     23  C19        3.0770   35.9880   56.3040 C.ar    0  <0>0        0.0064
     24  C18        2.7010   35.6490   57.5920 C.ar    0  <0>0        0.0345
     25  C17        3.6280   35.6980   58.6180 C.ar    0  <0>0        0.0064
     26 Br          0.9210   35.1190   57.9490 Br      0  <0>0       -0.0490
     27  C16        4.9290   36.0800   58.3560 C.ar    0  <0>0       -0.0024
@<TRIPOS>BOND
     1    22    23   ar
     2    22    21   ar
     3    23    24   ar
     4    20    21    1
     5    20    10    1
     6    21    27   ar
     7    24    26    1
     8    24    25   ar
     9    11    10    1
    10    11     5    1
    11    10     9    1
    12     9     8    1
    13    27    25   ar
    14     5     4    2
    15     5     6    1
    16     4     3    1
    17     8     6    1
    18     6     7    2
    19     3     2    2
    20     7     2    2
    21     2     1    1
    22    16    14    1
    23     1    13    1
    24     1    12    1
    25    14    13   ar
    26    14    15   ar
    27    13    19   ar
    28    15    17   ar
    29    19    18   ar
    30    17    18   ar

@<TRIPOS>MOLECULE
ZINC04189777_replica-1.pdb
 28 32 0 0 0
SMALL
GASTEIGER

@<TRIPOS>ATOM
      1  C8        -0.1550   28.8410   56.2360 C.3     0  <0>0        0.0716
      2  C9        -0.8890   29.1230   54.9580 C.ar    0  <0>0        0.0007
      3  C10       -0.8280   28.2070   53.8950 C.ar    0  <0>0        0.0155
      4  C11       -0.0870   27.0140   54.0030 C.ar    0  <0>0        0.0028
      5  C12       -0.0680   26.1680   52.9300 C.ar    0  <0>0        0.0207
      6  C13       -0.7720   26.4970   51.7740 C.ar    0  <0>0        0.0988
      7  N1        -1.4630   27.6060   51.6790 N.ar    0  <0>0       -0.2438
      8  C14       -1.5230   28.4770   52.6910 C.ar    0  <0>0        0.0811
      9  C15       -2.2690   29.6640   52.5800 C.ar    0  <0>0        0.0203
     10  C16       -2.3120   30.5390   53.6190 C.ar    0  <0>0        0.0158
     11  C17       -1.6280   30.2770   54.8120 C.ar    0  <0>0        0.0447
     12  N2        -1.6860   31.1930   55.8630 N.pl3   0  <0>0       -0.3162
     13  C18       -0.7300   31.1880   56.8390 C.2     0  <0>0        0.0246
     14  C19        0.0360   30.0960   57.0500 C.2     0  <0>0        0.0296
     15  C20        1.0380   30.0960   58.0340 C.2     0  <0>0        0.1706
     16  O2         1.7090   29.0960   58.2000 O.2     0  <0>0       -0.2916
     17  C21        1.2980   31.3080   58.8850 C.3     0  <0>0        0.0693
     18  C22        0.9120   32.5640   58.0950 C.3     0  <0>0        0.0141
     19  C23       -0.5510   32.4360   57.6680 C.3     0  <0>0        0.0414
     20  H14       -2.4100   31.8370   55.9010 H       0  <0>0        0.1519
     21  C5        -0.9410   27.8440   57.0470 C.ar    0  <0>0       -0.0140
     22  C4        -0.3620   26.6430   57.4140 C.ar    0  <0>0       -0.0005
     23  C3        -1.0820   25.7260   58.1570 C.ar    0  <0>0        0.0366
     24  C2        -2.3850   26.0130   58.5350 C.ar    0  <0>0        0.1387
     25  C7        -2.9640   27.2170   58.1650 C.ar    0  <0>0        0.0366
     26  C6        -2.2390   28.1330   57.4280 C.ar    0  <0>0       -0.0005
     27  O1        -3.0940   25.1120   59.2660 O.3     0  <0>0       -0.4714
     28  C1        -2.9440   23.7340   58.9200 C.3     0  <0>0        0.2525
@<TRIPOS>BOND
     1     7     6   ar
     2     7     8   ar
     3     6     5   ar
     4     9     8   ar
     5     9    10   ar
     6     8     3   ar
     7     5     4   ar
     8    10    11   ar
     9     3     4   ar
    10     3     2   ar
    11    11     2   ar
    12    11    12    1
    13     2     1    1
    14    12    20    1
    15    12    13    1
    16     1    21    1
    17     1    14    1
    18    13    14    2
    19    13    19    1
    20    21    22   ar
    21    21    26   ar
    22    14    15    1
    23    22    23   ar
    24    26    25   ar
    25    19    18    1
    26    15    16    2
    27    15    17    1
    28    18    17    1
    29    23    24   ar
    30    25    24   ar
    31    24    27    1
    32    28    27    1

@<TRIPOS>MOLECULE
ZINC08790681_replica-1.pdb
 25 27 0 0 0
SMALL
GASTEIGER

@<TRIPOS>ATOM
      1  C8        -0.2520   30.2260   57.6590 C.ar    0  <0>0        0.2134
      2  N1         0.1790   30.2030   58.8990 N.ar    0  <0>0       -0.1202
      3  N2         0.2220   28.9910   59.3260 N.ar    0  <0>0       -0.1231
      4  C9        -0.1660   28.1710   58.3890 C.ar    0  <0>0        0.2246
      5  N3        -0.4830   28.9280   57.2920 N.ar    0  <0>0       -0.1831
      6  N4        -0.9470   28.4680   56.0520 N.2     0  <0>0       -0.1602
      7  C10       -0.1470   28.4410   55.0300 C.2     0  <0>0        0.1223
      8  C11       -0.6340   27.9580   53.7250 C.ar    0  <0>0        0.0429
      9  C16       -0.3330   26.6610   53.3010 C.ar    0  <0>0        0.0705
     10  C15       -0.7940   26.2140   52.0770 C.ar    0  <0>0        0.0683
     11 Cl          0.6160   25.6130   54.3080 Cl      0  <0>0       -0.0813
     12  C14       -1.5520   27.0490   51.2720 C.ar    0  <0>0        0.0131
     13 Cl         -0.4220   24.6040   51.5450 Cl      0  <0>0       -0.0814
     14  C13       -1.8540   28.3340   51.6880 C.ar    0  <0>0        0.0124
     15  C12       -1.4050   28.7920   52.9100 C.ar    0  <0>0        0.0601
     16 Cl         -1.7910   30.4020   53.4310 Cl      0  <0>0       -0.0822
     17  S1        -0.4840   31.6560   56.6560 S.3     0  <0>0       -0.0692
     18  C7        -0.0900   32.9500   57.8580 C.3     0  <0>0        0.0914
     19  C6         0.9890   33.8430   57.3010 C.ar    0  <0>0       -0.0108
     20  C1         2.0140   33.3010   56.5480 C.ar    0  <0>0       -0.0025
     21  C2         3.0040   34.1180   56.0370 C.ar    0  <0>0        0.0111
     22  C3         2.9690   35.4810   56.2790 C.ar    0  <0>0        0.0577
     23  C4         1.9420   36.0220   57.0320 C.ar    0  <0>0        0.0111
     24 Cl          4.2120   36.5080   55.6380 Cl      0  <0>0       -0.0822
     25  C5         0.9530   35.2040   57.5430 C.ar    0  <0>0       -0.0025
@<TRIPOS>BOND
     1    12    14   ar
     2    12    10   ar
     3    13    10    1
     4    14    15   ar
     5    10     9   ar
     6    15    16    1
     7    15     8   ar
     8     9     8   ar
     9     9    11    1
    10     8     7    1
    11     7     6    2
    12    24    22    1
    13    21    22   ar
    14    21    20   ar
    15     6     5    1
    16    22    23   ar
    17    20    19   ar
    18    17     1    1
    19    17    18    1
    20    23    25   ar
    21     5     1   ar
    22     5     4   ar
    23    19    25   ar
    24    19    18    1
    25     1     2   ar
    26     4     3   ar
    27     2     3   ar

@<TRIPOS>MOLECULE
ZINC14023387_replica-1.pdb
 29 30 0 0 0
SMALL
GASTEIGER

@<TRIPOS>ATOM
      1  C4         0.3240   30.5770   55.8520 C.2     0  <0>0        0.2782
      2  O1         0.7280   30.1960   56.9310 O.2     0  <0>0       -0.2697
      3  N1         0.9010   31.6380   55.2540 N.am    0  <0>0       -0.2307
      4  H7         0.5790   31.9430   54.3910 H       0  <0>0        0.1729
      5  N2         1.9670   32.3000   55.8770 N.am    0  <0>0       -0.2302
      6  C5         1.7420   33.4280   56.5790 C.2     0  <0>0        0.2614
      7  O2         0.6150   33.8740   56.6680 O.2     0  <0>0       -0.2686
      8  H8         2.8670   31.9440   55.8060 H       0  <0>0        0.1731
      9  C6         2.8670   34.1240   57.2410 C.ar    0  <0>0        0.0548
     10  C11        2.7000   35.4210   57.7280 C.ar    0  <0>0        0.0042
     11  C10        3.7530   36.0640   58.3450 C.ar    0  <0>0       -0.0041
     12  C9         4.9730   35.4250   58.4820 C.ar    0  <0>0       -0.0228
     13  C8         5.1450   34.1390   58.0020 C.ar    0  <0>0       -0.0041
     14  C7         4.0980   33.4830   57.3880 C.ar    0  <0>0        0.0042
     15  C12        6.1180   36.1340   59.1570 C.3     0  <0>0        0.0189
     16  C13        7.0100   36.7860   58.0990 C.3     0  <0>0        0.0044
     17  C14        5.5690   37.2120   60.0950 C.3     0  <0>0        0.0044
     18  C15        6.9380   35.1270   59.9650 C.3     0  <0>0        0.0044
     19  C3        -0.8220   29.8660   55.1810 C.3     0  <0>0        0.2424
     20  C2        -2.0130   29.8010   56.1390 C.3     0  <0>0        0.0532
     21  C1        -3.0940   30.7800   55.6750 C.3     0  <0>0        0.0044
     22  O3        -0.4200   28.5390   54.8330 O.3     0  <0>0       -0.4699
     23  C16       -0.8090   28.0770   53.6150 C.ar    0  <0>0        0.1388
     24  C21       -0.4460   26.8020   53.2060 C.ar    0  <0>0        0.0327
     25  C20       -0.8430   26.3350   51.9680 C.ar    0  <0>0       -0.0188
     26  C19       -1.6010   27.1380   51.1360 C.ar    0  <0>0       -0.0041
     27  C22       -0.4480   24.9510   51.5230 C.3     0  <0>0        0.0311
     28  C18       -1.9650   28.4090   51.5410 C.ar    0  <0>0        0.0028
     29  C17       -1.5760   28.8780   52.7810 C.ar    0  <0>0        0.0369
@<TRIPOS>BOND
     1    26    28   ar
     2    26    25   ar
     3    27    25    1
     4    28    29   ar
     5    25    24   ar
     6    29    23   ar
     7    24    23   ar
     8    23    22    1
     9     4     3    1
    10    22    19    1
    11    19     1    1
    12    19    20    1
    13     3     1   am
    14     3     5    1
    15    21    20    1
    16     8     5    1
    17     1     2    2
    18     5     6   am
    19     6     7    2
    20     6     9    1
    21     9    14   ar
    22     9    10   ar
    23    14    13   ar
    24    10    11   ar
    25    13    12   ar
    26    16    15    1
    27    11    12   ar
    28    12    15    1
    29    15    18    1
    30    15    17    1

@<TRIPOS>MOLECULE
ZINC20602854_replica-1.pdb
 30 34 0 0 0
SMALL
GASTEIGER

@<TRIPOS>ATOM
      1  N1         7.0950   32.8910   58.9260 N.pl3   0  <0>0       -0.1661
      2  C8         8.1190   33.6090   59.4930 C.2     0  <0>0        0.1915
      3  C9         7.9220   34.9520   59.1090 C.3     0  <0>0        0.1298
      4  C10        8.8260   35.9290   59.5480 C.2     0  <0>0        0.0370
      5  C11        9.8730   35.5390   60.3360 C.2     0  <0>0        0.0298
      6  C12       10.0120   34.1900   60.6800 C.2     0  <0>0        0.1322
      7  N2         9.1490   33.2800   60.2580 N.2     0  <0>0       -0.3888
      8  C20        6.7570   34.9860   58.3060 C.2     0  <0>0        0.0659
      9  N3         6.2850   33.7770   58.2080 N.2     0  <0>0       -0.1800
     10  C5         6.8980   31.5080   59.0450 C.ar    0  <0>0        0.0764
     11  C4         6.2010   30.9980   60.1330 C.ar    0  <0>0        0.0199
     12  C3         6.0070   29.6360   60.2500 C.ar    0  <0>0        0.0382
     13  C2         6.5080   28.7770   59.2830 C.ar    0  <0>0        0.1388
     14  C7         7.2050   29.2860   58.1970 C.ar    0  <0>0        0.0382
     15  C6         7.3950   30.6480   58.0760 C.ar    0  <0>0        0.0199
     16  O1         6.3170   27.4360   59.3990 O.3     0  <0>0       -0.4714
     17  C1         5.0820   27.0030   59.9720 C.3     0  <0>0        0.2525
     18  C21        6.1610   36.2170   57.6720 C.3     0  <0>0        0.0385
     19  C23        6.3820   36.4160   56.1720 C.3     0  <0>0        0.0060
     20  C22        5.0000   36.0180   56.6970 C.3     0  <0>0        0.0060
     21  C13       11.1490   33.7710   61.5350 C.ar    0  <0>0        0.0297
     22  C18       11.0640   32.6030   62.2910 C.ar    0  <0>0        0.0034
     23  C17       12.1250   32.2170   63.0830 C.ar    0  <0>0        0.0115
     24  C16       13.2740   32.9890   63.1290 C.ar    0  <0>0        0.0577
     25  C15       13.3650   34.1500   62.3800 C.ar    0  <0>0        0.0115
     26 Cl         14.6060   32.4980   64.1290 Cl      0  <0>0       -0.0822
     27  C14       12.3110   34.5420   61.5810 C.ar    0  <0>0        0.0034
     28  C19        8.6500   37.3740   59.1600 C.3     0  <0>0        0.3380
     29  F1         9.4210   38.1820   60.0040 F       0  <0>0       -0.1936
     30  F2         9.0660   37.5560   57.8360 F       0  <0>0       -0.1936
@<TRIPOS>BOND
     1    19    20    1
     2    19    18    1
     3    20    18    1
     4    18     8    1
     5    30    28    1
     6    15    14   ar
     7    15    10   ar
     8    14    13   ar
     9     9     8    2
    10     9     1    1
    11     8     3    1
    12     1    10    1
    13     1     2    1
    14    10    11   ar
    15     3     2    1
    16     3     4    1
    17    28     4    1
    18    28    29    1
    19    13    16    1
    20    13    12   ar
    21    16    17    1
    22     2     7    2
    23     4     5    2
    24    11    12   ar
    25     7     6    2
    26     5     6    1
    27     6    21    1
    28    21    27   ar
    29    21    22   ar
    30    27    25   ar
    31    22    23   ar
    32    25    24   ar
    33    23    24   ar
    34    24    26    1

@<TRIPOS>MOLECULE
ZINC57438536_replica-1.pdb
 24 26 0 0 0
SMALL
GASTEIGER

@<TRIPOS>ATOM
      1  C3         0.5080   31.6790   58.5340 C.ar    0  <0>0        0.1724
      2  C4        -0.1280   31.5090   57.3200 C.ar    0  <0>0        0.0401
      3  C5        -0.9430   30.3900   57.1110 C.ar    0  <0>0        0.0036
      4  C6        -1.1100   29.4490   58.1340 C.ar    0  <0>0        0.0099
      5  C7        -0.4710   29.6270   59.3430 C.ar    0  <0>0        0.0712
      6  C8         0.3420   30.7360   59.5470 C.ar    0  <0>0        0.1740
      7 Br         -0.6980   28.3560   60.7250 Br      0  <0>0       -0.0457
      8  C9        -1.6220   30.2040   55.8210 C.2     0  <0>0        0.0026
      9  C10       -1.0240   29.4960   54.8380 C.2     0  <0>0        0.0602
     10  C18       -1.5720   29.4140   53.4660 C.2     0  <0>0        0.1980
     11  C11        0.2610   28.7150   55.0560 C.3     0  <0>0        0.2352
     12  C17       -1.3310   28.1270   52.7710 C.ar    0  <0>0        0.0727
     13  O4        -2.1740   30.3360   52.9430 O.2     0  <0>0       -0.2867
     14  C12       -0.5020   27.1730   53.3750 C.ar    0  <0>0        0.1420
     15  C16       -1.9130   27.8750   51.5310 C.ar    0  <0>0        0.0062
     16  O3         0.0620   27.3810   54.5870 O.3     0  <0>0       -0.4704
     17  C13       -0.2560   25.9780   52.7080 C.ar    0  <0>0        0.0370
     18  C14       -0.8310   25.7390   51.4760 C.ar    0  <0>0        0.0031
     19  C15       -1.6610   26.6810   50.8880 C.ar    0  <0>0        0.0003
     20  O1         1.3000   32.7650   58.7400 O.3     0  <0>0       -0.4724
     21  C2         0.6480   34.0300   58.8660 C.3     0  <0>0        0.2057
     22  C1         0.5830   34.4250   60.3440 C.3     0  <0>0        0.0512
     23  O2         0.9720   30.9030   60.7380 O.3     0  <0>0       -0.5025
     24  H8         0.3800   31.1350   61.4670 H       0  <0>0        0.2923
@<TRIPOS>BOND
     1    19    18   ar
     2    19    15   ar
     3    18    17   ar
     4    15    12   ar
     5    17    14   ar
     6    12    14   ar
     7    12    10    1
     8    13    10    2
     9    14    16    1
    10    10     9    1
    11    16    11    1
    12     9    11    1
    13     9     8    2
    14     8     3    1
    15     3     2   ar
    16     3     4   ar
    17     2     1   ar
    18     4     5   ar
    19     1    20    1
    20     1     6   ar
    21    20    21    1
    22    21    22    1
    23     5     6   ar
    24     5     7    1
    25     6    23    1
    26    23    24    1

@<TRIPOS>MOLECULE
ZINC32116448_replica-1.pdb
 33 36 0 0 0
SMALL
GASTEIGER

@<TRIPOS>ATOM
      1  C13        6.0100   34.2420   59.2410 C.2     0  <0>0        0.0350
      2  C14        6.4180   35.5740   59.2340 C.2     0  <0>0        0.0139
      3  C15        7.6420   35.9320   59.7570 C.2     0  <0>0        0.0409
      4  C16        8.4770   34.9640   60.2950 C.2     0  <0>0        0.1738
      5  C17        8.0730   33.6200   60.3060 C.2     0  <0>0        0.1525
      6  C18        6.8290   33.2650   59.7800 C.3     0  <0>0        0.1034
      7  N2         9.0790   32.9150   60.8850 N.2     0  <0>0       -0.3684
      8  C19       10.0390   33.7440   61.2130 C.2     0  <0>0        0.2818
      9  O2         9.7020   35.0000   60.8670 O.2     0  <0>0       -0.4251
     10  N1         4.7650   33.8910   58.7080 N.am    0  <0>0       -0.2835
     11  C12        4.6890   33.3540   57.4740 C.2     0  <0>0        0.2494
     12  O1         5.6900   33.2520   56.7910 O.2     0  <0>0       -0.2698
     13  H14        3.9570   34.0340   59.2250 H       0  <0>0        0.1549
     14  C11        3.3990   32.8930   56.9540 C.2     0  <0>0        0.0580
     15  C10        2.6030   32.1180   57.7160 C.2     0  <0>0        0.0047
     16  C7         1.3070   31.6540   57.1930 C.ar    0  <0>0        0.0001
     17  C6         0.4320   30.9420   58.0170 C.ar    0  <0>0       -0.0003
     18  C5        -0.7810   30.5120   57.5190 C.ar    0  <0>0       -0.0043
     19  C4        -1.1320   30.7850   56.2090 C.ar    0  <0>0       -0.0225
     20  C9        -0.2670   31.4850   55.3850 C.ar    0  <0>0       -0.0043
     21  C8         0.9460   31.9260   55.8700 C.ar    0  <0>0       -0.0003
     22  C2        -2.4590   30.3120   55.6740 C.3     0  <0>0        0.0224
     23  C1        -2.3640   30.1370   54.1580 C.3     0  <0>0        0.0047
     24  C3        -2.8210   28.9730   56.3200 C.3     0  <0>0        0.0047
     25  C20       11.3050   33.3570   61.8670 C.ar    0  <0>0        0.0671
     26  C25       11.3770   32.1770   62.6100 C.ar    0  <0>0        0.0155
     27  C24       12.5630   31.8170   63.2150 C.ar    0  <0>0        0.0684
     28  C23       13.6810   32.6330   63.0960 C.ar    0  <0>0        0.1398
     29 Br         12.6640   30.2150   64.2150 Br      0  <0>0       -0.0459
     30  C22       13.6120   33.8110   62.3620 C.ar    0  <0>0        0.0373
     31  C21       12.4330   34.1740   61.7510 C.ar    0  <0>0        0.0089
     32  O3        14.8460   32.2780   63.6970 O.3     0  <0>0       -0.5050
     33  H21       15.5040   31.9070   63.0920 H       0  <0>0        0.2922
@<TRIPOS>BOND
     1    23    22    1
     2    20    21   ar
     3    20    19   ar
     4    22    19    1
     5    22    24    1
     6    21    16   ar
     7    19    18   ar
     8    12    11    2
     9    14    11    1
    10    14    15    2
    11    16    15    1
    12    16    17   ar
    13    11    10   am
    14    18    17   ar
    15    10    13    1
    16    10     1    1
    17     2     1    2
    18     2     3    1
    19     1     6    1
    20     3     4    2
    21     6     5    1
    22     4     5    1
    23     4     9    1
    24     5     7    2
    25     9     8    1
    26     7     8    2
    27     8    25    1
    28    31    25   ar
    29    31    30   ar
    30    25    26   ar
    31    30    28   ar
    32    26    27   ar
    33    33    32    1
    34    28    27   ar
    35    28    32    1
    36    27    29    1

@<TRIPOS>MOLECULE
ZINC67259577_replica-1.pdb
 29 32 0 0 0
SMALL
GASTEIGER

@<TRIPOS>ATOM
      1  C10        5.8630   32.1420   58.0030 C.ar    0  <0>0       -0.0102
      2  C11        5.6630   32.2250   59.3690 C.ar    0  <0>0       -0.0034
      3  C12        4.3830   32.3300   59.8830 C.ar    0  <0>0        0.0004
      4  C13        3.2960   32.3540   59.0330 C.ar    0  <0>0        0.0103
      5  C14        3.4900   32.2710   57.6530 C.ar    0  <0>0        0.0682
      6  C15        4.7860   32.1710   57.1420 C.ar    0  <0>0        0.0069
      7  C16        2.3660   32.2960   56.7670 C.1     0  <0>0        0.1004
      8  N3         1.4750   32.3150   56.0620 N.1     0  <0>0       -0.1908
      9  C9         7.2620   32.0280   57.4530 C.3     0  <0>0        0.0922
     10  S1         7.6800   33.5410   56.5450 S.3     0  <0>0       -0.0619
     11  C8         8.3260   34.6160   57.7840 C.2     0  <0>0        0.2165
     12  N1         7.9740   35.9360   57.7480 N.am    0  <0>0       -0.2241
     13  C7         8.4460   36.7970   58.6800 C.2     0  <0>0        0.2422
     14  C5         9.3400   36.2550   59.7130 C.3     0  <0>0        0.1511
     15  O1         8.1420   37.9750   58.6620 O.2     0  <0>0       -0.2737
     16  C4         9.6500   34.8760   59.6710 C.2     0  <0>0        0.1236
     17  C6         9.8790   37.0600   60.7150 C.2     0  <0>0       -0.0103
     18  C3        10.4980   34.3390   60.6440 C.2     0  <0>0        0.0284
     19  N2         9.1210   34.1130   58.6950 N.2     0  <0>0       -0.3840
     20  C2        11.0130   35.1500   61.6150 C.2     0  <0>0        0.0020
     21  C1        10.7060   36.5050   61.6520 C.2     0  <0>0       -0.0036
     22  C17        7.0780   36.4220   56.6960 C.3     0  <0>0        0.1276
     23  C18        5.6460   36.2110   57.1180 C.ar    0  <0>0       -0.0018
     24  C23        5.3280   36.1170   58.4590 C.ar    0  <0>0       -0.0017
     25  C22        4.0150   35.9280   58.8460 C.ar    0  <0>0        0.0111
     26  C21        3.0200   35.8230   57.8890 C.ar    0  <0>0        0.0577
     27  C20        3.3400   35.9130   56.5470 C.ar    0  <0>0        0.0111
     28 Cl          1.3710   35.5810   58.3740 Cl      0  <0>0       -0.0822
     29  C19        4.6540   36.1060   56.1610 C.ar    0  <0>0       -0.0017
@<TRIPOS>BOND
     1     8     7    3
     2    29    27   ar
     3    29    23   ar
     4    10     9    1
     5    10    11    1
     6    27    26   ar
     7    22    23    1
     8    22    12    1
     9     7     5    1
    10    23    24   ar
    11     6     5   ar
    12     6     1   ar
    13     9     1    1
    14     5     4   ar
    15    12    11    1
    16    12    13   am
    17    11    19    2
    18    26    28    1
    19    26    25   ar
    20     1     2   ar
    21    24    25   ar
    22    15    13    2
    23    13    14    1
    24    19    16    2
    25     4     3   ar
    26     2     3   ar
    27    16    14    1
    28    16    18    1
    29    14    17    1
    30    18    20    2
    31    17    21    2
    32    20    21    1

@<TRIPOS>MOLECULE
ZINC08750839_replica-1.pdb
 27 29 0 0 0
SMALL
GASTEIGER

@<TRIPOS>ATOM
      1  C18        6.2720   32.1260   60.4570 C.3     0  <0>0        0.1462
      2  C19        6.3700   31.2930   61.7370 C.3     0  <0>0        0.0286
      3  C20        5.7210   31.2950   59.3730 C.1     0  <0>0        0.0836
      4  N3         5.2970   30.6550   58.5360 N.1     0  <0>0       -0.1950
      5  S1         5.1850   33.5440   60.7420 S.3     0  <0>0       -0.0518
      6  C17        6.1870   34.8350   60.0820 C.2     0  <0>0        0.2211
      7  N1         5.7840   35.7080   59.1000 N.am    0  <0>0       -0.2019
      8  C8         6.8000   36.5620   58.8480 C.2     0  <0>0        0.2846
      9  O1         6.8120   37.4750   58.0440 O.2     0  <0>0       -0.2667
     10  C9         7.8920   36.1530   59.7520 C.2     0  <0>0        0.1694
     11  C10        9.1280   36.7230   59.8600 C.3     0  <0>0        0.0902
     12  N2         7.4130   35.0870   60.4600 N.2     0  <0>0       -0.3795
     13  C5         4.5310   35.7150   58.4730 C.ar    0  <0>0        0.0612
     14  C4         3.4080   36.1470   59.1650 C.ar    0  <0>0        0.0150
     15  C3         2.1750   36.1520   58.5450 C.ar    0  <0>0       -0.0030
     16  C2         2.0570   35.7280   57.2330 C.ar    0  <0>0       -0.0218
     17  C1         0.7090   35.7350   56.5590 C.3     0  <0>0        0.0310
     18  C7         3.1740   35.2960   56.5410 C.ar    0  <0>0       -0.0030
     19  C6         4.4110   35.2940   57.1550 C.ar    0  <0>0        0.0150
     20  C11       10.1510   36.1030   60.7090 C.ar    0  <0>0       -0.0141
     21  C16       10.5510   36.7250   61.8990 C.ar    0  <0>0        0.0084
     22  C15       11.5120   36.1330   62.6910 C.ar    0  <0>0        0.0679
     23  C14       12.0830   34.9280   62.3130 C.ar    0  <0>0        0.0682
     24 Cl         12.0110   36.9020   64.1660 Cl      0  <0>0       -0.0814
     25  C13       11.6920   34.3080   61.1370 C.ar    0  <0>0        0.0119
     26 Cl         13.2930   34.1920   63.3170 Cl      0  <0>0       -0.0814
     27  C12       10.7280   34.8810   60.3380 C.ar    0  <0>0       -0.0029
@<TRIPOS>BOND
     1    18    19   ar
     2    18    16   ar
     3    17    16    1
     4    19    13   ar
     5    16    15   ar
     6     9     8    2
     7    13     7    1
     8    13    14   ar
     9     4     3    3
    10    15    14   ar
    11     8     7   am
    12     8    10    1
    13     7     6    1
    14     3     1    1
    15    10    11    1
    16    10    12    2
    17    11    20    1
    18     6    12    2
    19     6     5    1
    20    27    20   ar
    21    27    25   ar
    22     1     5    1
    23     1     2    1
    24    20    21   ar
    25    25    23   ar
    26    21    22   ar
    27    23    22   ar
    28    23    26    1
    29    22    24    1

@<TRIPOS>MOLECULE
ZINC03202154_replica-1.pdb
 28 30 0 0 0
SMALL
GASTEIGER

@<TRIPOS>ATOM
      1  N3         1.4860   31.2550   56.0820 N.am    0  <0>0       -0.2044
      2  C12        0.2230   31.3170   56.5490 C.2     0  <0>0        0.2613
      3  O1        -0.1920   32.3470   57.0380 O.2     0  <0>0       -0.2715
      4  H16        1.8180   30.4320   55.6900 H       0  <0>0        0.1773
      5  N2         2.3180   32.3790   56.1610 N.2     0  <0>0       -0.1776
      6  C11        3.3310   32.3810   56.9720 C.2     0  <0>0        0.1176
      7  C8         4.2070   33.5640   57.0550 C.ar    0  <0>0        0.0208
      8  C7         3.7400   34.8130   56.6360 C.ar    0  <0>0        0.0029
      9  C6         4.5610   35.9160   56.7160 C.ar    0  <0>0        0.0146
     10  C5         5.8540   35.7880   57.2130 C.ar    0  <0>0        0.0478
     11  C10        6.3240   34.5460   57.6270 C.ar    0  <0>0        0.0146
     12  C9         5.5060   33.4390   57.5540 C.ar    0  <0>0        0.0029
     13  N1         6.6830   36.9070   57.2930 N.pl3   0  <0>0       -0.3075
     14  C2         7.1520   37.3800   58.5980 C.3     0  <0>0        0.0908
     15  C1         8.2560   38.4200   58.3960 C.3     0  <0>0        0.0232
     16  C3         7.0840   37.6090   56.0720 C.3     0  <0>0        0.0908
     17  C4         7.7970   36.6330   55.1330 C.3     0  <0>0        0.0232
     18  C13       -0.6720   30.1080   56.4640 C.3     0  <0>0        0.1788
     19  N4        -0.8040   29.6960   55.0640 N.pl3   0  <0>0       -0.3000
     20  C18       -0.4320   28.4070   54.6630 C.ar    0  <0>0        0.0441
     21  C17       -0.8080   27.9140   53.4220 C.ar    0  <0>0       -0.0088
     22  C19        0.3160   27.6190   55.5290 C.ar    0  <0>0        0.0142
     23  C16       -1.6100   28.7450   52.4550 C.3     0  <0>0        0.0294
     24  C22       -0.4360   26.6320   53.0560 C.ar    0  <0>0       -0.0030
     25  C15       -2.3360   29.8710   53.1890 C.3     0  <0>0        0.0261
     26  C14       -1.3230   30.6300   54.0560 C.3     0  <0>0        0.0916
     27  C21        0.3180   25.8520   53.9170 C.ar    0  <0>0       -0.0002
     28  C20        0.6900   26.3430   55.1550 C.ar    0  <0>0        0.0012
@<TRIPOS>BOND
     1    23    25    1
     2    23    21    1
     3    24    21   ar
     4    24    27   ar
     5    25    26    1
     6    21    20   ar
     7    27    28   ar
     8    26    19    1
     9    20    19    1
    10    20    22   ar
    11    19    18    1
    12    17    16    1
    13    28    22   ar
    14     4     1    1
    15    16    13    1
    16     1     5    1
    17     1     2   am
    18     5     6    2
    19    18     2    1
    20     2     3    2
    21     8     9   ar
    22     8     7   ar
    23     9    10   ar
    24     6     7    1
    25     7    12   ar
    26    10    13    1
    27    10    11   ar
    28    13    14    1
    29    12    11   ar
    30    15    14    1

@<TRIPOS>MOLECULE
ZINC12976069_replica-1.pdb
 28 30 0 0 0
SMALL
GASTEIGER

@<TRIPOS>ATOM
      1  N1        -0.8510   27.0830   56.9890 N.am    0  <0>0       -0.2988
      2  C11       -2.0190   27.7450   57.1020 C.2     0  <0>0        0.2716
      3  O1        -2.8020   27.4510   57.9800 O.2     0  <0>0       -0.2706
      4  H14       -0.2250   27.3190   56.2870 H       0  <0>0        0.1498
      5  C12       -2.3530   28.8530   56.1370 C.3     0  <0>0        0.3020
      6  N2        -1.1190   29.5160   55.7060 N.am    0  <0>0       -0.1056
      7  C14       -0.3430   30.3690   56.4360 C.1     0  <0>0        0.1801
      8  N4         0.6650   30.7280   55.6720 N.2     0  <0>0        0.0474
      9  S1        -0.6340   30.8890   58.0940 S.2     0  <0>0        0.0561
     10  N3         0.5670   30.1670   54.5200 N.2     0  <0>0        0.0925
     11  C13       -0.5060   29.4120   54.4790 C.2     0  <0>0        0.3643
     12  C15       -0.9670   28.6020   53.3310 C.ar    0  <0>0        0.0854
     13  C20       -0.4880   27.3040   53.1520 C.ar    0  <0>0        0.0032
     14  C19       -0.9280   26.5520   52.0820 C.ar    0  <0>0       -0.0216
     15  C18       -1.8310   27.0870   51.1810 C.ar    0  <0>0       -0.0042
     16  C21       -0.4170   25.1470   51.8900 C.3     0  <0>0        0.0310
     17  C17       -2.3050   28.3760   51.3490 C.ar    0  <0>0       -0.0001
     18  C16       -1.8780   29.1370   52.4180 C.ar    0  <0>0        0.0075
     19  C4        -0.5270   26.0050   57.9270 C.3     0  <0>0        0.0942
     20  C3         0.6350   26.4410   58.8220 C.3     0  <0>0        0.0241
     21  C2         0.1750   26.4630   60.2810 C.3     0  <0>0        0.0020
     22  C1         0.5840   25.1570   60.9650 C.3     0  <0>0        0.0001
     23  C5        -0.1330   24.7710   57.1570 C.ar    0  <0>0       -0.0045
     24  C10        0.3790   24.8880   55.8790 C.ar    0  <0>0       -0.0027
     25  C9         0.7450   23.7570   55.1740 C.ar    0  <0>0       -0.0003
     26  C8         0.5880   22.5070   55.7440 C.ar    0  <0>0       -0.0000
     27  C7         0.0710   22.3890   57.0200 C.ar    0  <0>0       -0.0003
     28  C6        -0.2900   23.5210   57.7270 C.ar    0  <0>0       -0.0027
@<TRIPOS>BOND
     1    15    17   ar
     2    15    14   ar
     3    17    18   ar
     4    16    14    1
     5    14    13   ar
     6    18    12   ar
     7    13    12   ar
     8    12    11    1
     9    11    10    2
    10    11     6    1
    11    10     8    1
    12    25    26   ar
    13    25    24   ar
    14     8     7    2
    15     6     5    1
    16     6     7    1
    17    26    27   ar
    18    24    23   ar
    19     5     2    1
    20     4     1    1
    21     7     9    2
    22     1     2   am
    23     1    19    1
    24    27    28   ar
    25     2     3    2
    26    23    28   ar
    27    23    19    1
    28    19    20    1
    29    20    21    1
    30    21    22    1

@<TRIPOS>MOLECULE
ZINC03957923_replica-1.pdb
 22 24 0 0 0
SMALL
GASTEIGER

@<TRIPOS>ATOM
      1  C3         4.1490   34.6150   59.0820 C.3     0  <0>0        0.1389
      2  C4         4.6390   33.9590   60.2290 C.2     0  <0>0        0.1827
      3  O1         3.9390   33.1580   60.8330 O.2     0  <0>0       -0.2908
      4  C5         5.9520   34.2430   60.6700 C.2     0  <0>0        0.0531
      5  C6         6.7100   35.1390   59.9800 C.2     0  <0>0        0.0609
      6  N1         6.2060   35.7660   58.8700 N.am    0  <0>0       -0.2369
      7  C7         4.9450   35.5030   58.4240 C.2     0  <0>0        0.2400
      8  O2         4.4790   36.1330   57.3230 O.2     0  <0>0       -0.2737
      9  C14        8.0860   35.4370   60.4300 C.ar    0  <0>0        0.0141
     10  C19        8.3230   36.5030   61.2990 C.ar    0  <0>0        0.0012
     11  C18        9.6100   36.7760   61.7160 C.ar    0  <0>0        0.0000
     12  C17       10.6640   35.9950   61.2740 C.ar    0  <0>0        0.0000
     13  C16       10.4340   34.9360   60.4130 C.ar    0  <0>0        0.0000
     14  C15        9.1520   34.6530   59.9890 C.ar    0  <0>0        0.0012
     15  C8         7.0020   36.6870   58.1800 C.ar    0  <0>0        0.0581
     16  C13        7.0830   38.0020   58.6200 C.ar    0  <0>0        0.0152
     17  C12        7.8700   38.9100   57.9380 C.ar    0  <0>0        0.0013
     18  C11        8.5760   38.5100   56.8180 C.ar    0  <0>0        0.0001
     19  C10        8.4970   37.2010   56.3770 C.ar    0  <0>0        0.0013
     20  C9         7.7160   36.2870   57.0590 C.ar    0  <0>0        0.0152
     21  C2         2.7540   34.3350   58.5850 C.3     0  <0>0        0.0169
     22  C1         1.7860   35.3590   59.1780 C.3     0  <0>0        0.0010
@<TRIPOS>BOND
     1    19    18   ar
     2    19    20   ar
     3    18    17   ar
     4    20    15   ar
     5     8     7    2
     6    17    16   ar
     7    15    16   ar
     8    15     6    1
     9     7     6   am
    10     7     1    1
    11    21     1    1
    12    21    22    1
    13     6     5    1
    14     1     2    1
    15     5     9    1
    16     5     4    2
    17    14    13   ar
    18    14     9   ar
    19     2     4    1
    20     2     3    2
    21    13    12   ar
    22     9    10   ar
    23    12    11   ar
    24    10    11   ar

@<TRIPOS>MOLECULE
ZINC13468500_replica-1.pdb
 29 31 0 0 0
SMALL
GASTEIGER

@<TRIPOS>ATOM
      1  C4         6.2610   36.4640   60.0150 C.2     0  <0>0        0.2238
      2  O1         5.8420   37.5990   60.0950 O.2     0  <0>0       -0.2751
      3  N1         5.6520   35.5760   59.2050 N.am    0  <0>0       -0.2982
      4  H7         5.9870   34.6670   59.1410 H       0  <0>0        0.1500
      5  C5         4.4840   35.9820   58.4190 C.3     0  <0>0        0.1229
      6  C6         4.6630   35.5400   56.9890 C.ar    0  <0>0        0.0003
      7  C11        3.8470   36.0570   56.0000 C.ar    0  <0>0       -0.0000
      8  C10        4.0100   35.6540   54.6880 C.ar    0  <0>0        0.0294
      9  C9         4.9900   34.7320   54.3650 C.ar    0  <0>0        0.1401
     10  C8         5.8070   34.2140   55.3570 C.ar    0  <0>0        0.0294
     11  F1         5.1510   34.3360   53.0830 F       0  <0>0       -0.2042
     12  C7         5.6460   34.6240   56.6670 C.ar    0  <0>0       -0.0000
     13  C12        3.2470   35.3400   58.9920 C.ar    0  <0>0        0.0292
     14  S1         3.1040   33.8770   60.0050 S.2     0  <0>0       -0.0888
     15  C15        1.3300   33.8770   60.2000 C.ar    0  <0>0        0.0352
     16  C14        0.9700   34.9750   59.4910 C.ar    0  <0>0        0.0072
     17  C13        1.9520   35.7250   58.8720 C.ar    0  <0>0        0.0046
     18  C3         7.4620   36.0460   60.8230 C.3     0  <0>0        0.0998
     19  C2         8.7310   36.2420   59.9900 C.3     0  <0>0        0.1211
     20  C1         8.8290   37.7040   59.5500 C.3     0  <0>0        0.0162
     21  C16        9.9370   35.8860   60.8200 C.ar    0  <0>0       -0.0122
     22  C21       10.5910   34.6870   60.6090 C.ar    0  <0>0       -0.0038
     23  C20       11.6980   34.3600   61.3690 C.ar    0  <0>0       -0.0003
     24  C19       12.1510   35.2320   62.3420 C.ar    0  <0>0       -0.0000
     25  C18       11.4960   36.4310   62.5530 C.ar    0  <0>0       -0.0003
     26  C17       10.3930   36.7610   61.7880 C.ar    0  <0>0       -0.0038
     27  C22        8.6760   35.3540   58.7750 C.2     0  <0>0        0.3680
     28  O2         8.9750   35.7950   57.6900 O.co2   0  <0>0       -0.2453
     29  O3         8.2960   34.0730   58.8960 O.co2   0  <0>0       -0.2453
@<TRIPOS>BOND
     1    11     9    1
     2     9     8   ar
     3     9    10   ar
     4     8     7   ar
     5    10    12   ar
     6     7     6   ar
     7    12     6   ar
     8     6     5    1
     9    28    27   ar
    10     5    13    1
    11     5     3    1
    12    27    29   ar
    13    27    19    1
    14    17    13   ar
    15    17    16   ar
    16    13    14   ar
    17     4     3    1
    18     3     1   am
    19    16    15   ar
    20    20    19    1
    21    19    21    1
    22    19    18    1
    23    14    15   ar
    24     1     2    2
    25     1    18    1
    26    22    21   ar
    27    22    23   ar
    28    21    26   ar
    29    23    24   ar
    30    26    25   ar
    31    24    25   ar

@<TRIPOS>MOLECULE
ZINC66696822_replica-1.pdb
 27 29 0 0 0
SMALL
GASTEIGER

@<TRIPOS>ATOM
      1  N1         1.5360   31.4290   56.0730 N.am    0  <0>0       -0.2968
      2  C12        0.4040   31.0060   55.4760 C.2     0  <0>0        0.2429
      3  O1        -0.4240   31.8110   55.1040 O.2     0  <0>0       -0.2732
      4  H9         2.1980   30.7850   56.3700 H       0  <0>0        0.1500
      5  C5         1.7660   32.8620   56.2740 C.3     0  <0>0        0.1230
      6  C3         1.3300   33.2510   57.6620 C.ar    0  <0>0        0.0292
      7  C2         0.9780   32.4550   58.7020 C.ar    0  <0>0        0.0046
      8  C1         0.6090   33.0400   59.8990 C.ar    0  <0>0        0.0072
      9  C4         0.6070   34.3910   59.9980 C.ar    0  <0>0        0.0352
     10  S1         1.1410   34.8810   58.3660 S.2     0  <0>0       -0.0888
     11  C6         3.2330   33.1640   56.1060 C.ar    0  <0>0        0.0003
     12  C11        4.1640   32.5390   56.9130 C.ar    0  <0>0       -0.0000
     13  C10        5.5100   32.8120   56.7570 C.ar    0  <0>0        0.0294
     14  C9         5.9240   33.7200   55.7970 C.ar    0  <0>0        0.1401
     15  C8         4.9900   34.3500   54.9930 C.ar    0  <0>0        0.0294
     16  F1         7.2390   33.9920   55.6470 F       0  <0>0       -0.2042
     17  C7         3.6450   34.0710   55.1480 C.ar    0  <0>0       -0.0000
     18  C13        0.1670   29.5320   55.2690 C.3     0  <0>0        0.1736
     19  N2        -0.7410   29.3380   54.1360 N.pl3   0  <0>0       -0.3253
     20  H12       -1.3660   30.0370   53.8900 H       0  <0>0        0.1473
     21  C14       -0.7080   28.1420   53.4100 C.ar    0  <0>0        0.0451
     22  C19       -0.0430   27.0360   53.9230 C.ar    0  <0>0        0.0166
     23  C18       -0.0150   25.8550   53.2070 C.ar    0  <0>0        0.0309
     24  C17       -0.6410   25.7780   51.9740 C.ar    0  <0>0        0.1402
     25  C16       -1.3010   26.8800   51.4590 C.ar    0  <0>0        0.0309
     26  F2        -0.6090   24.6230   51.2730 F       0  <0>0       -0.2042
     27  C15       -1.3350   28.0620   52.1740 C.ar    0  <0>0        0.0166
@<TRIPOS>BOND
     1    26    24    1
     2    25    24   ar
     3    25    27   ar
     4    24    23   ar
     5    27    21   ar
     6    23    22   ar
     7    21    22   ar
     8    21    19    1
     9    20    19    1
    10    19    18    1
    11    15    17   ar
    12    15    14   ar
    13     3     2    2
    14    17    11   ar
    15    18     2    1
    16     2     1   am
    17    16    14    1
    18    14    13   ar
    19     1     5    1
    20     1     4    1
    21    11     5    1
    22    11    12   ar
    23     5     6    1
    24    13    12   ar
    25     6    10   ar
    26     6     7   ar
    27    10     9   ar
    28     7     8   ar
    29     8     9   ar

@<TRIPOS>MOLECULE
ZINC13616703_replica-1.pdb
 28 32 0 0 0
SMALL
GASTEIGER

@<TRIPOS>ATOM
      1  C9         1.5330   34.5000   57.5760 C.3     0  <0>0        0.2834
      2  N1         1.2660   33.0860   57.2850 N.pl3   0  <0>0       -0.1912
      3  C10        1.4770   32.0470   58.3190 C.3     0  <0>0        0.1262
      4  C11        0.7220   30.8300   57.7690 C.3     0  <0>0        0.0740
      5  C12        0.4000   31.2230   56.3420 C.2     0  <0>0        0.0842
      6  N2         0.7330   32.4610   56.1500 N.2     0  <0>0       -0.1826
      7  C17        0.8520   32.5740   59.5840 C.ar    0  <0>0        0.0323
      8  C18        0.6060   31.7030   60.6290 C.ar    0  <0>0        0.0071
      9  C19        0.0710   32.1700   61.8150 C.ar    0  <0>0        0.0345
     10  C20       -0.2190   33.5160   61.9530 C.ar    0  <0>0        0.0098
     11  C21        0.0170   34.3850   60.9110 C.ar    0  <0>0        0.0372
     12  C22        0.5490   33.9220   59.7070 C.ar    0  <0>0        0.1386
     13  O2         0.7340   34.8310   58.7160 O.3     0  <0>0       -0.4553
     14 Br         -0.2640   30.9740   63.2420 Br      0  <0>0       -0.0490
     15  C6         2.9930   34.6970   57.8920 C.ar    0  <0>0        0.0389
     16  C5         3.3770   35.6380   58.8280 C.ar    0  <0>0        0.0041
     17  C4         4.7150   35.8200   59.1190 C.ar    0  <0>0        0.0367
     18  C3         5.6740   35.0570   58.4700 C.ar    0  <0>0        0.1385
     19  C8         5.2870   34.1130   57.5310 C.ar    0  <0>0        0.0367
     20  C7         3.9480   33.9310   57.2470 C.ar    0  <0>0        0.0041
     21  O1         6.9910   35.2350   58.7540 O.3     0  <0>0       -0.4755
     22  C2         7.8390   35.6370   57.6760 C.3     0  <0>0        0.2055
     23  C1         8.5490   36.9410   58.0450 C.3     0  <0>0        0.0512
     24  C13       -0.1980   30.3410   55.3330 C.ar    0  <0>0        0.0446
     25  S1         0.0480   28.5900   55.0810 S.2     0  <0>0       -0.0852
     26  C16       -1.0420   28.3780   53.6830 C.ar    0  <0>0        0.0355
     27  C15       -1.5180   29.6350   53.4960 C.ar    0  <0>0        0.0075
     28  C14       -1.1020   30.6470   54.3320 C.ar    0  <0>0        0.0082
@<TRIPOS>BOND
     1    27    26   ar
     2    27    28   ar
     3    26    25   ar
     4    28    24   ar
     5    25    24   ar
     6    24     5    1
     7     6     5    2
     8     6     2    1
     9     5     4    1
    10    20    19   ar
    11    20    15   ar
    12     2     1    1
    13     2     3    1
    14    19    18   ar
    15     1    15    1
    16     1    13    1
    17    22    23    1
    18    22    21    1
    19     4     3    1
    20    15    16   ar
    21     3     7    1
    22    18    21    1
    23    18    17   ar
    24    13    12    1
    25    16    17   ar
    26     7    12   ar
    27     7     8   ar
    28    12    11   ar
    29     8     9   ar
    30    11    10   ar
    31     9    10   ar
    32     9    14    1

@<TRIPOS>MOLECULE
ZINC59924063_replica-1.pdb
 29 31 0 0 0
SMALL
GASTEIGER

@<TRIPOS>ATOM
      1  N1         5.4650   36.1320   57.3480 N.am    0  <0>0       -0.3042
      2  C4         6.3330   35.9510   56.3340 C.2     0  <0>0        0.2261
      3  O1         6.1240   35.0950   55.5020 O.2     0  <0>0       -0.2748
      4  H8         5.6320   36.8180   58.0150 H       0  <0>0        0.1494
      5  C5         7.5640   36.8150   56.2340 C.3     0  <0>0        0.0987
      6  C6         7.1590   38.2390   55.8500 C.3     0  <0>0        0.0143
      7  C7         8.2710   36.8360   57.5650 C.ar    0  <0>0       -0.0139
      8  C16        8.9520   35.7320   57.9800 C.ar    0  <0>0       -0.0038
      9  C15        9.6160   35.7490   59.2180 C.ar    0  <0>0       -0.0001
     10  C10        9.5580   36.9150   60.0210 C.ar    0  <0>0        0.0030
     11  C14       10.3330   34.6300   59.6760 C.ar    0  <0>0        0.0031
     12  C9         8.8420   38.0340   59.5620 C.ar    0  <0>0       -0.0002
     13  C11       10.2170   36.9330   61.2610 C.ar    0  <0>0        0.0369
     14  C8         8.2140   37.9830   58.3560 C.ar    0  <0>0       -0.0038
     15  C12       10.9040   35.8280   61.6760 C.ar    0  <0>0        0.1387
     16  C13       10.9600   34.6780   60.8810 C.ar    0  <0>0        0.0369
     17  O2        11.5410   35.8450   62.8760 O.3     0  <0>0       -0.4714
     18  C17       12.4460   34.7720   63.1460 C.3     0  <0>0        0.2525
     19  C3         4.2680   35.2930   57.4470 C.3     0  <0>0        0.0872
     20  C2         4.2340   34.6100   58.8160 C.3     0  <0>0       -0.0012
     21  C1         5.2470   35.2820   59.7450 C.3     0  <0>0       -0.0004
     22  C18        4.5920   33.1310   58.6560 C.3     0  <0>0       -0.0756
     23  N2         6.0460   32.9630   58.7770 N.4     0  <0>0        0.3869
     24  C23        6.3430   32.0570   59.8930 C.3     0  <0>0       -0.0774
     25  C22        7.8570   31.9430   60.0740 C.3     0  <0>0       -0.0229
     26  C21        8.4800   31.3920   58.7890 C.3     0  <0>0       -0.0043
     27  C20        8.1020   32.3040   57.6180 C.3     0  <0>0       -0.0229
     28  C19        6.5770   32.4050   57.5280 C.3     0  <0>0       -0.0774
     29  H33        6.4740   33.8610   58.9500 H       0  <0>0       -0.0797
@<TRIPOS>BOND
     1     3     2    2
     2     6     5    1
     3     5     2    1
     4     5     7    1
     5     2     1   am
     6     1    19    1
     7     1     4    1
     8    19    20    1
     9    28    27    1
    10    28    23    1
    11     7     8   ar
    12     7    14   ar
    13    27    26    1
    14     8     9   ar
    15    14    12   ar
    16    22    23    1
    17    22    20    1
    18    23    29    1
    19    23    24    1
    20    26    25    1
    21    20    21    1
    22     9    11   ar
    23     9    10   ar
    24    12    10   ar
    25    11    16   ar
    26    24    25    1
    27    10    13   ar
    28    16    15   ar
    29    13    15   ar
    30    15    17    1
    31    17    18    1

@<TRIPOS>MOLECULE
ZINC23242289_replica-1.pdb
 29 31 0 0 0
SMALL
GASTEIGER

@<TRIPOS>ATOM
      1  C10        1.8970   32.7430   56.7050 C.2     0  <0>0        0.1265
      2  C11        1.2110   33.8630   57.0750 C.3     0  <0>0        0.1910
      3  C12        1.6940   35.1200   56.6730 C.1     0  <0>0        0.1980
      4  O2         1.1060   36.1420   56.9850 O.2     0  <0>0       -0.2130
      5  N2         2.8250   35.1750   55.9370 N.2     0  <0>0       -0.2640
      6  C13        3.4650   34.0240   55.5930 C.1     0  <0>0        0.1787
      7  N3         3.0050   32.8480   55.9750 N.2     0  <0>0       -0.3415
      8  C9         1.4000   31.3830   57.1240 C.3     0  <0>0        0.1414
      9  C8         0.2050   31.0050   56.2880 C.2     0  <0>0        0.2296
     10  N1         0.3640   30.6950   54.9870 N.am    0  <0>0       -0.3001
     11  H7         1.3670   30.7180   54.5340 H       0  <0>0        0.1498
     12  O1        -0.9000   30.9780   56.7870 O.2     0  <0>0       -0.2746
     13  C7        -0.7980   30.3260   54.1730 C.3     0  <0>0        0.1163
     14  C6        -0.6500   28.9030   53.7010 C.ar    0  <0>0       -0.0024
     15  C1        -1.2960   28.4850   52.5530 C.ar    0  <0>0       -0.0003
     16  C2        -1.1570   27.1810   52.1170 C.ar    0  <0>0        0.0294
     17  C3        -0.3780   26.2910   52.8360 C.ar    0  <0>0        0.1401
     18  C4         0.2650   26.7090   53.9880 C.ar    0  <0>0        0.0294
     19  F2        -0.2450   25.0140   52.4120 F       0  <0>0       -0.2042
     20  C5         0.1290   28.0150   54.4200 C.ar    0  <0>0       -0.0003
     21  S1         4.9330   34.1060   54.6210 S.3     0  <0>0       -0.0127
     22  C14        6.1760   33.8180   55.9050 C.3     0  <0>0        0.1006
     23  C15        6.9380   35.0930   56.1610 C.ar    0  <0>0       -0.0101
     24  C20        7.7510   35.2000   57.2740 C.ar    0  <0>0       -0.0011
     25  C19        8.4500   36.3690   57.5090 C.ar    0  <0>0        0.0293
     26  C18        8.3350   37.4320   56.6290 C.ar    0  <0>0        0.1401
     27  C17        7.5220   37.3230   55.5150 C.ar    0  <0>0        0.0293
     28  F1         9.0190   38.5750   56.8590 F       0  <0>0       -0.2042
     29  C16        6.8240   36.1540   55.2810 C.ar    0  <0>0       -0.0011
@<TRIPOS>BOND
     1    16    15   ar
     2    16    17   ar
     3    19    17    1
     4    15    14   ar
     5    17    18   ar
     6    14    13    1
     7    14    20   ar
     8    18    20   ar
     9    13    10    1
    10    11    10    1
    11    21     6    1
    12    21    22    1
    13    10     9   am
    14    29    27   ar
    15    29    23   ar
    16    27    26   ar
    17     6     5    2
    18     6     7    2
    19    22    23    1
    20     5     3    2
    21     7     1    2
    22    23    24   ar
    23     9    12    2
    24     9     8    1
    25    26    28    1
    26    26    25   ar
    27     3     4    2
    28     3     2    1
    29     1     2    1
    30     1     8    1
    31    24    25   ar

@<TRIPOS>MOLECULE
ZINC13739084_replica-1.pdb
 29 32 0 0 0
SMALL
GASTEIGER

@<TRIPOS>ATOM
      1  C6        10.1110   35.7060   59.9410 C.ar    0  <0>0        0.1456
      2  C7        10.0750   36.5670   61.0320 C.ar    0  <0>0        0.0406
      3  C8        10.9220   36.0300   61.9970 C.ar    0  <0>0        0.0406
      4  C9        11.4480   34.8670   61.4730 C.ar    0  <0>0        0.1453
      5  O2        10.9450   34.6850   60.2390 O.2     0  <0>0       -0.4535
      6  C5         9.4030   35.8660   58.7430 C.2     0  <0>0        0.0433
      7  C4         8.1670   35.2440   58.5760 C.2     0  <0>0        0.0736
      8  C2         7.2900   35.2980   57.4000 C.2     0  <0>0        0.0818
      9  C3         7.4560   34.3930   59.5390 C.2     0  <0>0        0.2729
     10  C1         7.5600   36.0510   56.1230 C.3     0  <0>0        0.0539
     11  N1         6.2410   34.5750   57.6570 N.2     0  <0>0       -0.1755
     12  N2         6.3110   34.0180   58.9340 N.am    0  <0>0       -0.1552
     13  O1         7.8290   34.0830   60.6590 O.2     0  <0>0       -0.2678
     14  C17        5.3350   33.1920   59.5030 C.ar    0  <0>0        0.0771
     15  C22        5.4280   31.8120   59.3720 C.ar    0  <0>0        0.0168
     16  C21        4.4670   31.0000   59.9400 C.ar    0  <0>0        0.0013
     17  C20        3.4060   31.5580   60.6290 C.ar    0  <0>0        0.0001
     18  C19        3.3070   32.9310   60.7560 C.ar    0  <0>0        0.0013
     19  C18        4.2690   33.7490   60.1970 C.ar    0  <0>0        0.0168
     20  C10       12.4000   33.9690   62.1530 C.ar    0  <0>0        0.0345
     21  C15       11.9700   32.7360   62.6500 C.ar    0  <0>0        0.0069
     22  C14       12.8670   31.8990   63.2800 C.ar    0  <0>0        0.0715
     23  C13       14.1880   32.2830   63.4320 C.ar    0  <0>0        0.0039
     24  C12       14.6200   33.5060   62.9480 C.ar    0  <0>0        0.0000
     25  C11       13.7350   34.3510   62.3100 C.ar    0  <0>0        0.0030
     26  C16       12.4070   30.5660   63.8100 C.3     0  <0>0        0.4186
     27  F1        11.0100   30.4990   63.7550 F       0  <0>0       -0.1659
     28  F2        12.9540   29.5400   63.0310 F       0  <0>0       -0.1659
     29  F3        12.8290   30.4190   65.1360 F       0  <0>0       -0.1659
@<TRIPOS>BOND
     1    10     8    1
     2     8    11    2
     3     8     7    1
     4    11    12    1
     5     7     6    2
     6     7     9    1
     7     6     1    1
     8    12    14    1
     9    12     9   am
    10    15    14   ar
    11    15    16   ar
    12    14    19   ar
    13     9    13    2
    14    16    17   ar
    15     1     5   ar
    16     1     2   ar
    17    19    18   ar
    18     5     4   ar
    19    17    18   ar
    20     2     3   ar
    21     4     3   ar
    22     4    20    1
    23    20    25   ar
    24    20    21   ar
    25    25    24   ar
    26    21    22   ar
    27    24    23   ar
    28    28    26    1
    29    22    23   ar
    30    22    26    1
    31    27    26    1
    32    26    29    1

@<TRIPOS>MOLECULE
ZINC31249809_replica-1.pdb
 27 28 0 0 0
SMALL
GASTEIGER

@<TRIPOS>ATOM
      1  N1        -0.2820   30.8330   56.3990 N.am    0  <0>0       -0.3008
      2  C12        0.5530   31.6240   57.1010 C.2     0  <0>0        0.2427
      3  O1         1.2730   31.1430   57.9510 O.2     0  <0>0       -0.2732
      4  H16       -0.8570   31.2170   55.7190 H       0  <0>0        0.1497
      5  C13        0.5930   33.1060   56.8300 C.3     0  <0>0        0.1759
      6  N2         1.9410   33.6140   57.0940 N.am    0  <0>0       -0.2931
      7  C14        2.1580   34.9430   57.1680 C.2     0  <0>0        0.2470
      8  O2         1.2340   35.7180   57.0170 O.2     0  <0>0       -0.2701
      9  H19        2.6780   32.9960   57.2160 H       0  <0>0        0.1502
     10  C15        3.5180   35.4560   57.4350 C.ar    0  <0>0        0.0639
     11  C20        4.4000   35.6870   56.3770 C.ar    0  <0>0        0.0620
     12  C19        5.6680   36.1720   56.6330 C.ar    0  <0>0        0.0115
     13 Cl          3.9020   35.3730   54.7440 Cl      0  <0>0       -0.0821
     14  C18        6.0670   36.4160   57.9340 C.ar    0  <0>0        0.0009
     15  C17        5.1990   36.1840   58.9870 C.ar    0  <0>0        0.0002
     16  C16        3.9290   35.7060   58.7450 C.ar    0  <0>0        0.0054
     17  C2        -0.3200   29.3920   56.6610 C.3     0  <0>0        0.0942
     18  C1        -1.5450   29.0620   57.5170 C.3     0  <0>0        0.0262
     19  C3        -0.4040   28.6450   55.3550 C.ar    0  <0>0       -0.0045
     20  C8        -1.1600   29.1530   54.3150 C.ar    0  <0>0       -0.0030
     21  C7        -1.2330   28.4700   53.1160 C.ar    0  <0>0       -0.0045
     22  C6        -0.5570   27.2750   52.9590 C.ar    0  <0>0       -0.0225
     23  C5         0.1960   26.7650   54.0000 C.ar    0  <0>0       -0.0045
     24  C4         0.2720   27.4490   55.1990 C.ar    0  <0>0       -0.0030
     25  C9        -0.6400   26.5280   51.6530 C.3     0  <0>0        0.0224
     26  C10       -0.6790   25.0230   51.9250 C.3     0  <0>0        0.0047
     27  C11       -1.9100   26.9440   50.9070 C.3     0  <0>0        0.0047
@<TRIPOS>BOND
     1    27    25    1
     2    25    26    1
     3    25    22    1
     4    22    21   ar
     5    22    23   ar
     6    21    20   ar
     7    23    24   ar
     8    20    19   ar
     9    13    11    1
    10    24    19   ar
    11    19    17    1
    12     4     1    1
    13    11    12   ar
    14    11    10   ar
    15     1    17    1
    16     1     2   am
    17    12    14   ar
    18    17    18    1
    19     5     6    1
    20     5     2    1
    21     8     7    2
    22     6     7   am
    23     6     9    1
    24     2     3    2
    25     7    10    1
    26    10    16   ar
    27    14    15   ar
    28    16    15   ar

@<TRIPOS>MOLECULE
ZINC64675594_replica-1.pdb
 32 36 0 0 0
SMALL
GASTEIGER

@<TRIPOS>ATOM
      1  C14        9.2050   33.7450   60.2670 C.3     0  <0>0        0.1321
      2  C15        9.4400   34.9860   59.7560 C.2     0  <0>0        0.1288
      3  N2        10.5530   35.4720   60.3290 N.2     0  <0>0       -0.3893
      4  C16       11.0270   34.5790   61.1850 C.2     0  <0>0        0.1870
      5  N3        10.1980   33.4860   61.1700 N.pl3   0  <0>0       -0.2567
      6  C17       10.4580   32.4100   61.9690 C.2     0  <0>0        0.0676
      7  C18       11.5300   32.4050   62.7890 C.2     0  <0>0        0.0163
      8  C19       12.3950   33.5100   62.8300 C.2     0  <0>0        0.0053
      9  C20       12.1540   34.5850   62.0330 C.2     0  <0>0        0.0480
     10  C13        8.0610   32.8320   59.9080 C.3     0  <0>0        0.0370
     11  C12        8.4120   32.0510   58.6390 C.3     0  <0>0        0.0872
     12  C11        7.2670   32.1380   57.6630 C.2     0  <0>0        0.2227
     13  N1         6.5790   33.2890   57.5330 N.am    0  <0>0       -0.3022
     14  H12        6.8200   34.0620   58.0690 H       0  <0>0        0.1497
     15  O1         6.9660   31.1720   56.9930 O.2     0  <0>0       -0.2751
     16  C10        5.4660   33.3750   56.5850 C.3     0  <0>0        0.0938
     17  C4         4.4240   34.3190   57.1240 C.ar    0  <0>0       -0.0085
     18  C3         4.1200   34.2430   58.4770 C.ar    0  <0>0       -0.0030
     19  C5         3.7740   35.2370   56.3300 C.ar    0  <0>0       -0.0246
     20  C2         3.1700   35.0750   59.0310 C.ar    0  <0>0       -0.0003
     21  C1         2.5140   35.9940   58.2330 C.ar    0  <0>0       -0.0003
     22  C6         2.8150   36.0730   56.8890 C.ar    0  <0>0       -0.0045
     23  C7         4.0640   35.3880   54.8600 C.3     0  <0>0        0.0262
     24  C8         4.7890   34.1530   54.3260 C.3     0  <0>0        0.0067
     25  C9         5.9900   33.8670   55.2360 C.3     0  <0>0        0.0245
     26  C21        8.6100   35.6810   58.7430 C.ar    0  <0>0        0.0272
     27  C26        9.0060   35.6980   57.4070 C.ar    0  <0>0        0.0046
     28  C25        8.2280   36.3420   56.4670 C.ar    0  <0>0        0.0297
     29  C24        7.0600   36.9800   56.8510 C.ar    0  <0>0        0.1401
     30  C23        6.6640   36.9700   58.1790 C.ar    0  <0>0        0.0297
     31  F1         6.3040   37.6130   55.9280 F       0  <0>0       -0.2042
     32  C22        7.4340   36.3240   59.1240 C.ar    0  <0>0        0.0046
@<TRIPOS>BOND
     1    24    23    1
     2    24    25    1
     3    23    19    1
     4    25    16    1
     5    31    29    1
     6    19    22   ar
     7    19    17   ar
     8    28    29   ar
     9    28    27   ar
    10    16    17    1
    11    16    13    1
    12    29    30   ar
    13    22    21   ar
    14    15    12    2
    15    17    18   ar
    16    27    26   ar
    17    13    12   am
    18    13    14    1
    19    12    11    1
    20    30    32   ar
    21    21    20   ar
    22    18    20   ar
    23    11    10    1
    24    26    32   ar
    25    26     2    1
    26     2     1    1
    27     2     3    2
    28    10     1    1
    29     1     5    1
    30     3     4    2
    31     5     4    1
    32     5     6    1
    33     4     9    1
    34     6     7    2
    35     9     8    2
    36     7     8    1

@<TRIPOS>MOLECULE
ZINC36778555_replica-1.pdb
 22 23 0 0 0
SMALL
GASTEIGER

@<TRIPOS>ATOM
      1  C1        -2.8250   30.3540   55.5600 C.3     0  <0>0        0.0220
      2  C2        -1.5170   31.0390   55.9610 C.3     0  <0>0        0.0785
      3  C3        -1.0140   30.4450   57.2510 C.ar    0  <0>0        0.0145
      4  C8        -0.0760   31.1230   58.0050 C.ar    0  <0>0        0.1401
      5  C7         0.3830   30.5800   59.1910 C.ar    0  <0>0        0.0238
      6  C6        -0.0910   29.3540   59.6170 C.ar    0  <0>0        0.0017
      7  C5        -1.0250   28.6720   58.8610 C.ar    0  <0>0       -0.0002
      8  C4        -1.4880   29.2170   57.6770 C.ar    0  <0>0       -0.0013
      9  N1         0.4350   32.4350   57.5460 N.pl3   0  <0>0        0.0574
     10  O1        -0.0720   33.4550   57.9490 O.2     0  <0>0       -0.1261
     11  O2         1.3600   32.4840   56.7690 O.2     0  <0>0       -0.1261
     12  N2        -0.5150   30.8380   54.9060 N.3     0  <0>0       -0.2948
     13  H9        -0.2860   31.7100   54.4550 H       0  <0>0        0.1235
     14  C9        -0.9740   29.8420   53.9270 C.3     0  <0>0        0.0735
     15  C10       -0.2120   28.5330   54.1390 C.3     0  <0>0        0.0435
     16  C11       -0.6140   27.5410   53.0770 C.ar    0  <0>0       -0.0186
     17  C16       -0.2200   26.2200   53.1800 C.ar    0  <0>0        0.0254
     18  C15       -0.5950   25.3090   52.2070 C.ar    0  <0>0        0.1398
     19  C14       -1.3540   25.7250   51.1260 C.ar    0  <0>0        0.0296
     20  F1        -0.2160   24.0160   52.3090 F       0  <0>0       -0.2042
     21  C13       -1.7420   27.0470   51.0220 C.ar    0  <0>0        0.0020
     22  C12       -1.3720   27.9550   51.9970 C.ar    0  <0>0       -0.0041
@<TRIPOS>BOND
     1    21    19   ar
     2    21    22   ar
     3    19    18   ar
     4    22    16   ar
     5    18    20    1
     6    18    17   ar
     7    16    17   ar
     8    16    15    1
     9    14    15    1
    10    14    12    1
    11    13    12    1
    12    12     2    1
    13     1     2    1
    14     2     3    1
    15    11     9    2
    16     3     8   ar
    17     3     4   ar
    18     9    10    2
    19     9     4    1
    20     8     7   ar
    21     4     5   ar
    22     7     6   ar
    23     5     6   ar

@<TRIPOS>MOLECULE
ZINC04862872_replica-1.pdb
 28 31 0 0 0
SMALL
GASTEIGER

@<TRIPOS>ATOM
      1  C9        -0.5490   29.6520   56.3230 C.2     0  <0>0        0.1924
      2  N1        -0.1720   30.8740   56.0270 N.2     0  <0>0       -0.3898
      3  C10        0.2270   31.7400   56.9770 C.2     0  <0>0        0.1231
      4  C11        0.6270   33.0420   56.6560 C.2     0  <0>0        0.0284
      5  C12        1.0260   33.8930   57.6480 C.2     0  <0>0        0.0020
      6  C13        1.0420   33.4860   58.9760 C.2     0  <0>0       -0.0036
      7  C14        0.6530   32.2100   59.3230 C.2     0  <0>0       -0.0103
      8  C15        0.2420   31.3240   58.3280 C.3     0  <0>0        0.1514
      9  C16       -0.1830   29.9530   58.6400 C.2     0  <0>0        0.2453
     10  O1        -0.1900   29.5390   59.7840 O.2     0  <0>0       -0.2733
     11  N2        -0.5700   29.1680   57.6080 N.am    0  <0>0       -0.2117
     12  C8        -0.9710   28.7670   55.2360 C.2     0  <0>0        0.0484
     13  C7        -0.0750   28.3510   54.3180 C.2     0  <0>0        0.0048
     14  C5        -0.4990   27.4610   53.2260 C.ar    0  <0>0        0.0107
     15  C4        -0.1670   26.1020   53.2550 C.ar    0  <0>0        0.0576
     16  C3        -0.5680   25.2750   52.2250 C.ar    0  <0>0        0.0114
     17 Cl          0.7460   25.4580   54.5830 Cl      0  <0>0       -0.0822
     18  C2        -1.2970   25.7870   51.1670 C.ar    0  <0>0        0.0009
     19  C1        -1.6280   27.1310   51.1300 C.ar    0  <0>0        0.0001
     20  C6        -1.2350   27.9700   52.1510 C.ar    0  <0>0        0.0008
     21  C17       -0.9890   27.8530   57.8510 C.ar    0  <0>0        0.0606
     22  C22       -0.0640   26.8160   57.8390 C.ar    0  <0>0        0.0184
     23  C21       -0.4780   25.5210   58.0800 C.ar    0  <0>0        0.0379
     24  C20       -1.8160   25.2550   58.3330 C.ar    0  <0>0        0.1338
     25  C19       -2.7390   26.2910   58.3450 C.ar    0  <0>0        0.0379
     26  C18       -2.3270   27.5870   58.1100 C.ar    0  <0>0        0.0184
     27  O2        -2.2220   23.9790   58.5700 O.3     0  <0>0       -0.5055
     28  H15       -1.5110   23.3830   58.8380 H       0  <0>0        0.2922
@<TRIPOS>BOND
     1    19    18   ar
     2    19    20   ar
     3    18    16   ar
     4    20    14   ar
     5    16    15   ar
     6    14    15   ar
     7    14    13    1
     8    15    17    1
     9    13    12    2
    10    12     1    1
    11     2     1    2
    12     2     3    2
    13     1    11    1
    14     4     3    1
    15     4     5    2
    16     3     8    1
    17    11    21    1
    18    11     9   am
    19     5     6    1
    20    22    21   ar
    21    22    23   ar
    22    21    26   ar
    23    23    24   ar
    24    26    25   ar
    25     8     9    1
    26     8     7    1
    27    24    25   ar
    28    24    27    1
    29    27    28    1
    30     9    10    2
    31     6     7    2

@<TRIPOS>MOLECULE
ZINC16400866_replica-1.pdb
 27 29 0 0 0
SMALL
GASTEIGER

@<TRIPOS>ATOM
      1  C13        8.8580   36.6110   58.1810 C.2     0  <0>0        0.0478
      2  C14        7.6480   36.0270   57.8700 C.2     0  <0>0        0.0715
      3  C15        6.9020   36.4880   56.7380 C.1     0  <0>0        0.1005
      4  N1         6.3090   36.8530   55.8390 N.1     0  <0>0       -0.1908
      5  C16        7.1220   34.9240   58.7030 C.ar    0  <0>0        0.0098
      6  C21        6.3620   35.2060   59.8400 C.ar    0  <0>0        0.0012
      7  C20        5.8740   34.1740   60.6140 C.ar    0  <0>0        0.0067
      8  C19        6.1360   32.8600   60.2650 C.ar    0  <0>0        0.0346
      9  C18        6.8910   32.5740   59.1400 C.ar    0  <0>0        0.0067
     10 Br          5.4650   31.4500   61.3320 Br      0  <0>0       -0.0490
     11  C17        7.3790   33.5980   58.3550 C.ar    0  <0>0        0.0012
     12  C12        9.4770   36.3320   59.4160 C.ar    0  <0>0        0.1461
     13  C11        9.5600   37.1920   60.4980 C.ar    0  <0>0        0.0406
     14  C10       10.2530   36.5120   61.5020 C.ar    0  <0>0        0.0406
     15  C9        10.5670   35.2760   61.0080 C.ar    0  <0>0        0.1453
     16  O3        10.1000   35.1820   59.7500 O.2     0  <0>0       -0.4535
     17  C5        11.3020   34.2230   61.7340 C.ar    0  <0>0        0.0348
     18  C4        12.6070   34.4540   62.1680 C.ar    0  <0>0        0.0103
     19  C3        13.2960   33.4520   62.8480 C.ar    0  <0>0        0.0863
     20  C8        12.6700   32.2270   63.1040 C.ar    0  <0>0        0.0639
     21  C7        11.3740   32.0070   62.6750 C.ar    0  <0>0        0.0117
     22 Cl         13.5230   30.9800   63.9590 Cl      0  <0>0       -0.0820
     23  C6        10.6880   32.9930   61.9960 C.ar    0  <0>0        0.0039
     24  C2        14.6800   33.6850   63.3050 C.2     0  <0>0        0.3422
     25  O2        15.6130   33.4640   62.5570 O.2     0  <0>0       -0.2449
     26  O1        14.9100   34.1480   64.5490 O.3     0  <0>0       -0.4413
     27  C1        16.2880   34.1500   65.0080 C.3     0  <0>0        0.2560
@<TRIPOS>BOND
     1     4     3    3
     2     3     2    1
     3     2     1    2
     4     2     5    1
     5     1    12    1
     6    11     5   ar
     7    11     9   ar
     8     5     6   ar
     9     9     8   ar
    10    12    16   ar
    11    12    13   ar
    12    16    15   ar
    13     6     7   ar
    14     8     7   ar
    15     8    10    1
    16    13    14   ar
    17    15    14   ar
    18    15    17    1
    19    17    23   ar
    20    17    18   ar
    21    23    21   ar
    22    18    19   ar
    23    25    24    2
    24    21    20   ar
    25    19    20   ar
    26    19    24    1
    27    20    22    1
    28    24    26    1
    29    26    27    1

@<TRIPOS>MOLECULE
ZINC21227151_replica-1.pdb
 29 32 0 0 0
SMALL
GASTEIGER

@<TRIPOS>ATOM
      1  C9         0.2200   29.9890   55.6920 C.3     0  <0>0        0.0356
      2  C10       -0.1720   31.4400   55.4080 C.3     0  <0>0        0.0458
      3  C11        0.2320   32.3100   56.5720 C.2     0  <0>0        0.0268
      4  C12        0.2570   31.8170   57.8290 C.2     0  <0>0        0.0261
      5  C13        0.6590   32.7080   58.9800 C.3     0  <0>0        0.0573
      6  C14        0.1680   34.1320   58.7150 C.3     0  <0>0        0.0942
      7  C15        0.5500   34.5340   57.3140 C.2     0  <0>0        0.2265
      8  O1         0.8350   35.6870   57.0720 O.2     0  <0>0       -0.2748
      9  N1         0.5750   33.6170   56.3320 N.am    0  <0>0       -0.2875
     10  C23       -0.0800   30.4790   58.0950 C.2     0  <0>0        0.1706
     11  O3        -0.0600   30.0750   59.2410 O.2     0  <0>0       -0.2916
     12  C24       -0.4670   29.5400   56.9840 C.3     0  <0>0        0.0736
     13  H16        0.8760   33.9290   55.3210 H       0  <0>0        0.1545
     14  C6        -0.2270   29.1120   54.5500 C.ar    0  <0>0       -0.0217
     15  C5         0.3070   27.8450   54.4020 C.ar    0  <0>0       -0.0046
     16  C4        -0.1050   27.0390   53.3570 C.ar    0  <0>0       -0.0046
     17  C3        -1.0450   27.5030   52.4560 C.ar    0  <0>0       -0.0222
     18  C8        -1.5800   28.7690   52.6040 C.ar    0  <0>0       -0.0046
     19  C7        -1.1700   29.5740   53.6510 C.ar    0  <0>0       -0.0046
     20  C2        -1.4920   26.6260   51.3140 C.3     0  <0>0        0.0264
     21  C1        -0.9050   25.2240   51.4890 C.3     0  <0>0        0.0050
     22  C16        2.1600   32.7110   59.1130 C.ar    0  <0>0       -0.0176
     23  C21        2.7750   33.5910   59.9850 C.ar    0  <0>0       -0.0008
     24  C20        4.1500   33.5950   60.1090 C.ar    0  <0>0        0.0366
     25  C19        4.9160   32.7170   59.3570 C.ar    0  <0>0        0.1387
     26  C18        4.2970   31.8350   58.4820 C.ar    0  <0>0        0.0366
     27  C17        2.9210   31.8300   58.3660 C.ar    0  <0>0       -0.0008
     28  O2         6.2700   32.7190   59.4760 O.3     0  <0>0       -0.4714
     29  C22        6.8530   33.7810   60.2320 C.3     0  <0>0        0.2525
@<TRIPOS>BOND
     1    20    21    1
     2    20    17    1
     3    17    18   ar
     4    17    16   ar
     5    18    19   ar
     6    16    15   ar
     7    19    14   ar
     8    15    14   ar
     9    14     1    1
    10    13     9    1
    11     2     1    1
    12     2     3    1
    13     1    12    1
    14     9     3    1
    15     9     7   am
    16     3     4    2
    17    12    10    1
    18     8     7    2
    19     7     6    1
    20     4    10    1
    21     4     5    1
    22    10    11    2
    23    27    26   ar
    24    27    22   ar
    25    26    25   ar
    26     6     5    1
    27     5    22    1
    28    22    23   ar
    29    25    28    1
    30    25    24   ar
    31    28    29    1
    32    23    24   ar

@<TRIPOS>MOLECULE
ZINC00327441_replica-1.pdb
 27 29 0 0 0
SMALL
GASTEIGER

@<TRIPOS>ATOM
      1  C8        -1.1820   30.0320   55.1470 C.3     0  <0>0        0.0551
      2  C7         0.3310   30.2470   55.0790 C.3     0  <0>0        0.0938
      3  C6         0.6820   31.5550   55.7420 C.2     0  <0>0        0.2231
      4  N1         1.9690   31.9470   55.8200 N.am    0  <0>0       -0.3059
      5  H14        2.6700   31.3870   55.4490 H       0  <0>0        0.1494
      6  O1        -0.1930   32.2540   56.2060 O.2     0  <0>0       -0.2751
      7  C2         2.3110   33.2170   56.4640 C.3     0  <0>0        0.0716
      8  C1         2.9340   32.9420   57.8350 C.3     0  <0>0        0.0213
      9  C3         3.3120   33.9790   55.5920 C.3     0  <0>0        0.0180
     10  C4         3.2860   35.4630   55.9650 C.3     0  <0>0        0.0017
     11  C5         4.7160   33.4190   55.8210 C.3     0  <0>0        0.0017
     12  C9        -1.4940   28.9710   56.1690 C.ar    0  <0>0       -0.0179
     13  C14       -0.4670   28.2670   56.7700 C.ar    0  <0>0       -0.0039
     14  C13       -0.7530   27.2950   57.7110 C.ar    0  <0>0       -0.0003
     15  C12       -2.0660   27.0210   58.0440 C.ar    0  <0>0       -0.0000
     16  C11       -3.0940   27.7200   57.4390 C.ar    0  <0>0       -0.0003
     17  C10       -2.8080   28.6950   56.5010 C.ar    0  <0>0       -0.0039
     18  C15       -1.6870   29.5930   53.7960 C.ar    0  <0>0        0.0004
     19  C18       -1.3240   28.3650   53.0870 C.ar    0  <0>0        0.0134
     20  C17       -2.0420   28.3860   51.8770 C.ar    0  <0>0        0.0563
     21  C19       -0.4800   27.2900   53.3760 C.ar    0  <0>0        0.0012
     22  N2        -2.7750   29.5510   51.8620 N.ar    0  <0>0       -0.3522
     23  C22       -1.9020   27.3310   50.9830 C.ar    0  <0>0        0.0170
     24  C16       -2.5510   30.2570   53.0120 C.ar    0  <0>0        0.0684
     25  H3        -3.3640   29.8310   51.1420 H       0  <0>0        0.1660
     26  C21       -1.0580   26.2850   51.2840 C.ar    0  <0>0        0.0015
     27  C20       -0.3540   26.2660   52.4810 C.ar    0  <0>0        0.0001
@<TRIPOS>BOND
     1    23    26   ar
     2    23    20   ar
     3    25    22    1
     4    26    27   ar
     5    22    20   ar
     6    22    24   ar
     7    20    19   ar
     8    27    21   ar
     9    24    18   ar
    10    19    21   ar
    11    19    18   ar
    12    18     1    1
    13     2     1    1
    14     2     3    1
    15     1    12    1
    16     5     4    1
    17     9    11    1
    18     9    10    1
    19     9     7    1
    20     3     4   am
    21     3     6    2
    22     4     7    1
    23    12    17   ar
    24    12    13   ar
    25     7     8    1
    26    17    16   ar
    27    13    14   ar
    28    16    15   ar
    29    14    15   ar

@<TRIPOS>MOLECULE
ZINC04132435_replica-1.pdb
 26 27 0 0 0
SMALL
GASTEIGER

@<TRIPOS>ATOM
      1  C11        7.9960   33.6470   59.6600 C.2     0  <0>0        0.2645
      2  O1         7.9650   34.1360   58.5460 O.2     0  <0>0       -0.2684
      3  N1         6.8960   33.0580   60.1680 N.am    0  <0>0       -0.2023
      4  H14        6.9210   32.6690   61.0560 H       0  <0>0        0.1776
      5  N2         5.7160   33.0080   59.4150 N.2     0  <0>0       -0.1773
      6  C12        5.0890   31.8820   59.2650 C.2     0  <0>0        0.1182
      7  C13        3.8470   31.8310   58.4710 C.ar    0  <0>0        0.0299
      8  C18        2.7690   31.0520   58.9020 C.ar    0  <0>0        0.0368
      9  C17        1.6070   31.0110   58.1590 C.ar    0  <0>0        0.0165
     10 Br          2.9000   30.0610   60.5080 Br      0  <0>0       -0.0489
     11  C16        1.5090   31.7310   56.9810 C.ar    0  <0>0        0.0687
     12  C15        2.5770   32.5030   56.5420 C.ar    0  <0>0        0.1398
     13 Br         -0.0850   31.6620   55.9650 Br      0  <0>0       -0.0458
     14  C14        3.7450   32.5570   57.2820 C.ar    0  <0>0        0.0392
     15  O2         2.4750   33.2080   55.3830 O.3     0  <0>0       -0.5050
     16  H18        3.2480   33.1360   54.8090 H       0  <0>0        0.2922
     17  C8         9.2410   33.7000   60.4550 C.ar    0  <0>0        0.0550
     18  C7         9.6090   32.6160   61.2540 C.ar    0  <0>0        0.0042
     19  C6        10.7720   32.6720   61.9930 C.ar    0  <0>0       -0.0041
     20  C5        11.5730   33.7990   61.9450 C.ar    0  <0>0       -0.0228
     21  C10       11.2140   34.8770   61.1550 C.ar    0  <0>0       -0.0041
     22  C9        10.0530   34.8340   60.4100 C.ar    0  <0>0        0.0042
     23  C2        12.8430   33.8530   62.7560 C.3     0  <0>0        0.0189
     24  C1        14.0170   34.2030   61.8410 C.3     0  <0>0        0.0044
     25  C3        12.7080   34.9210   63.8440 C.3     0  <0>0        0.0044
     26  C4        13.0910   32.4910   63.4070 C.3     0  <0>0        0.0044
@<TRIPOS>BOND
     1    16    15    1
     2    15    12    1
     3    13    11    1
     4    12    11   ar
     5    12    14   ar
     6    11     9   ar
     7    14     7   ar
     8     9     8   ar
     9     7     8   ar
    10     7     6    1
    11     2     1    2
    12     8    10    1
    13     6     5    2
    14     5     3    1
    15     1     3   am
    16     1    17    1
    17     3     4    1
    18    22    17   ar
    19    22    21   ar
    20    17    18   ar
    21    21    20   ar
    22    18    19   ar
    23    24    23    1
    24    20    19   ar
    25    20    23    1
    26    23    26    1
    27    23    25    1

@<TRIPOS>MOLECULE
ZINC39713084_replica-1.pdb
 28 31 0 0 0
SMALL
GASTEIGER

@<TRIPOS>ATOM
      1  C8         8.0860   34.9570   60.2250 C.2     0  <0>0        0.2741
      2  O1         8.5620   36.0580   60.4220 O.2     0  <0>0       -0.2677
      3  N1         8.8360   33.8540   60.4130 N.am    0  <0>0       -0.1209
      4  C9         8.3430   32.6110   60.0500 C.2     0  <0>0        0.2400
      5  S1         8.3530   31.8280   58.4430 S.3     0  <0>0       -0.0358
      6  C15        7.5430   30.3210   58.9250 C.2     0  <0>0        0.0588
      7  C10        7.3110   30.5320   60.3030 C.2     0  <0>0        0.1391
      8  C14        7.1630   29.1720   58.2760 C.2     0  <0>0       -0.0123
      9  N2         7.7440   31.7120   60.7950 N.2     0  <0>0       -0.3780
     10  C11        6.6560   29.4850   60.9940 C.2     0  <0>0        0.0284
     11  C12        6.2800   28.3420   60.3380 C.2     0  <0>0       -0.0188
     12  C13        6.5260   28.1690   58.9820 C.3     0  <0>0        0.0527
     13  N3        10.1140   33.9630   60.9770 N.2     0  <0>0       -0.1671
     14  C16       10.5830   33.0020   61.7130 C.2     0  <0>0        0.1183
     15  C17       11.8530   33.1830   62.4400 C.ar    0  <0>0        0.0207
     16  C22       12.3240   34.4670   62.7200 C.ar    0  <0>0        0.0021
     17  C21       13.5100   34.6290   63.4050 C.ar    0  <0>0        0.0067
     18  C20       14.2400   33.5220   63.8040 C.ar    0  <0>0        0.0346
     19  C19       13.7820   32.2450   63.5230 C.ar    0  <0>0        0.0067
     20 Br         15.8680   33.7530   64.7360 Br      0  <0>0       -0.0490
     21  C18       12.5950   32.0700   62.8440 C.ar    0  <0>0        0.0021
     22  C6         6.6830   34.8290   59.7800 C.ar    0  <0>0        0.0553
     23  C5         5.6920   34.4470   60.6860 C.ar    0  <0>0        0.0046
     24  C4         4.3840   34.3300   60.2630 C.ar    0  <0>0       -0.0002
     25  C3         4.0530   34.5920   58.9460 C.ar    0  <0>0       -0.0043
     26  C2         5.0300   34.9710   58.0430 C.ar    0  <0>0       -0.0217
     27  C1         4.6600   35.2540   56.6100 C.3     0  <0>0        0.0310
     28  C7         6.3420   35.0860   58.4500 C.ar    0  <0>0        0.0003
@<TRIPOS>BOND
     1    27    26    1
     2    26    28   ar
     3    26    25   ar
     4     8     6    2
     5     8    12    1
     6     5     6    1
     7     5     4    1
     8    28    22   ar
     9     6     7    1
    10    25    24   ar
    11    12    11    1
    12    22     1    1
    13    22    23   ar
    14     4     3    1
    15     4     9    2
    16     1     3   am
    17     1     2    2
    18    24    23   ar
    19     7     9    2
    20     7    10    1
    21    11    10    2
    22     3    13    1
    23    13    14    2
    24    14    15    1
    25    15    16   ar
    26    15    21   ar
    27    16    17   ar
    28    21    19   ar
    29    17    18   ar
    30    19    18   ar
    31    18    20    1

@<TRIPOS>MOLECULE
ZINC35325447_replica-1.pdb
 26 29 0 0 0
SMALL
GASTEIGER

@<TRIPOS>ATOM
      1  C8         5.8650   35.5800   56.4960 C.ar    0  <0>0        0.1027
      2  C9         6.3570   36.2720   57.6030 C.ar    0  <0>0        0.0725
      3  C10        7.6170   36.7760   57.4250 C.ar    0  <0>0        0.0443
      4  S1         8.0320   36.3330   55.8780 S.2     0  <0>0        0.0102
      5  N1         6.6490   35.4970   55.4380 N.ar    0  <0>0       -0.2082
      6  C11        8.3850   37.5420   58.4550 C.3     0  <0>0        0.0625
      7  C12        7.3810   38.2500   59.3740 C.3     0  <0>0        0.0947
      8  C13        6.2400   37.3370   59.7240 C.2     0  <0>0        0.2268
      9  O2         5.7880   37.3790   60.8490 O.2     0  <0>0       -0.2748
     10  N2         5.6990   36.4750   58.8430 N.am    0  <0>0       -0.2825
     11  H11        4.8770   36.0040   59.0520 H       0  <0>0        0.1549
     12  C5         4.5200   34.9550   56.5110 C.ar    0  <0>0        0.0197
     13  C4         3.3800   35.7560   56.5160 C.ar    0  <0>0        0.0047
     14  C3         2.1290   35.1720   56.5290 C.ar    0  <0>0        0.0369
     15  C2         2.0070   33.7900   56.5390 C.ar    0  <0>0        0.1387
     16  C7         3.1420   32.9900   56.5400 C.ar    0  <0>0        0.0369
     17  C6         4.3950   33.5670   56.5210 C.ar    0  <0>0        0.0047
     18  O1         0.7750   33.2180   56.5530 O.3     0  <0>0       -0.4714
     19  C1         0.0620   33.2440   57.7910 C.3     0  <0>0        0.2525
     20  C14        9.2360   36.5960   59.2620 C.ar    0  <0>0       -0.0165
     21  C19        9.8010   37.0170   60.4510 C.ar    0  <0>0        0.0075
     22  C18       10.5770   36.1460   61.1940 C.ar    0  <0>0        0.0574
     23  C17       10.7950   34.8570   60.7420 C.ar    0  <0>0        0.0114
     24 Cl         11.2810   36.6730   62.6910 Cl      0  <0>0       -0.0823
     25  C16       10.2340   34.4390   59.5500 C.ar    0  <0>0        0.0006
     26  C15        9.4540   35.3080   58.8110 C.ar    0  <0>0       -0.0039
@<TRIPOS>BOND
     1     5     4   ar
     2     5     1   ar
     3     4     3   ar
     4     1    12    1
     5     1     2   ar
     6    12    13   ar
     7    12    17   ar
     8    13    14   ar
     9    17    16   ar
    10    14    15   ar
    11    15    16   ar
    12    15    18    1
    13    18    19    1
    14     3     2   ar
    15     3     6    1
    16     2    10    1
    17     6    20    1
    18     6     7    1
    19    26    20   ar
    20    26    25   ar
    21    10    11    1
    22    10     8   am
    23    20    21   ar
    24     7     8    1
    25    25    23   ar
    26     8     9    2
    27    21    22   ar
    28    23    22   ar
    29    22    24    1

@<TRIPOS>MOLECULE
ZINC04588077_replica-1.pdb
 23 25 0 0 0
SMALL
GASTEIGER

@<TRIPOS>ATOM
      1  N1        -1.0920   28.6600   55.0170 N.am    0  <0>0       -0.2127
      2  C8        -1.1730   27.9250   56.1140 C.2     0  <0>0        0.2618
      3  O1        -0.3680   27.0460   56.3550 O.2     0  <0>0       -0.2689
      4  C9        -2.2900   28.2300   57.0320 C.2     0  <0>0        0.0876
      5  C10       -2.6180   27.6530   58.2150 C.2     0  <0>0        0.0120
      6  S1        -3.0920   29.5640   56.1540 S.3     0  <0>0       -0.0252
      7  C17       -1.9890   29.6320   54.7520 C.2     0  <0>0        0.2867
      8  O2        -2.0360   30.3730   53.7880 O.2     0  <0>0       -0.2619
      9  C7        -0.0040   28.4110   54.0670 C.3     0  <0>0        0.1308
     10  C5        -0.4510   27.3950   53.0480 C.ar    0  <0>0        0.0256
     11  C4        -0.0220   26.0820   53.1450 C.ar    0  <0>0        0.1378
     12  C3        -0.4330   25.1500   52.2080 C.ar    0  <0>0        0.0294
     13  F1         0.7950   25.7110   54.1550 F       0  <0>0       -0.2044
     14  C2        -1.2700   25.5310   51.1760 C.ar    0  <0>0        0.0023
     15  C1        -1.6980   26.8420   51.0800 C.ar    0  <0>0       -0.0001
     16  C6        -1.2880   27.7740   52.0160 C.ar    0  <0>0       -0.0004
     17  C11       -1.7140   26.6720   58.8300 C.ar    0  <0>0        0.0112
     18  C16       -0.6870   27.0970   59.6810 C.ar    0  <0>0        0.0577
     19  C15        0.1580   26.1680   60.2540 C.ar    0  <0>0        0.0114
     20 Cl         -0.4750   28.7880   60.0140 Cl      0  <0>0       -0.0822
     21  C14       -0.0090   24.8200   59.9900 C.ar    0  <0>0        0.0009
     22  C13       -1.0230   24.3910   59.1510 C.ar    0  <0>0        0.0001
     23  C12       -1.8790   25.3060   58.5740 C.ar    0  <0>0        0.0009
@<TRIPOS>BOND
     1    15    14   ar
     2    15    16   ar
     3    14    12   ar
     4    16    10   ar
     5    12    11   ar
     6    10    11   ar
     7    10     9    1
     8    11    13    1
     9     8     7    2
    10     9     1    1
    11     7     1   am
    12     7     6    1
    13     1     2   am
    14     2     3    2
    15     2     4    1
    16     6     4    1
    17     4     5    2
    18     5    17    1
    19    23    17   ar
    20    23    22   ar
    21    17    18   ar
    22    22    21   ar
    23    18    20    1
    24    18    19   ar
    25    21    19   ar

@<TRIPOS>MOLECULE
ZINC10287121_replica-1.pdb
 29 31 0 0 0
SMALL
GASTEIGER

@<TRIPOS>ATOM
      1  N1         2.3660   31.7860   56.1680 N.am    0  <0>0       -0.2867
      2  C11        1.1930   31.1280   56.2440 C.2     0  <0>0        0.3011
      3  O3         0.5430   31.1570   57.2720 O.2     0  <0>0       -0.2528
      4  N2         0.7370   30.4380   55.1790 N.am    0  <0>0       -0.2868
      5  H15        2.8840   31.7620   55.3490 H       0  <0>0        0.1512
      6  H16        1.2550   30.4150   54.3580 H       0  <0>0        0.1512
      7  C2         2.8620   32.5350   57.3260 C.3     0  <0>0        0.0986
      8  C1         3.8810   31.6850   58.0860 C.3     0  <0>0        0.0263
      9  C3         3.5180   33.8080   56.8570 C.ar    0  <0>0        0.0325
     10  C8         2.7400   34.8820   56.4540 C.ar    0  <0>0        0.1364
     11  C7         3.3440   36.0540   56.0220 C.ar    0  <0>0        0.0397
     12  C6         4.7220   36.1510   55.9990 C.ar    0  <0>0        0.0400
     13  C5         5.5000   35.0750   56.3970 C.ar    0  <0>0        0.1387
     14  C4         4.8970   33.9030   56.8290 C.ar    0  <0>0        0.0372
     15  O1         1.3840   34.7860   56.4810 O.3     0  <0>0       -0.4717
     16  C9         0.7120   35.4120   57.5780 C.3     0  <0>0        0.2525
     17  O2         6.8570   35.1700   56.3690 O.3     0  <0>0       -0.4714
     18  C10        7.4150   36.2920   55.6830 C.3     0  <0>0        0.2525
     19  C12       -0.5400   29.7240   55.2600 C.3     0  <0>0        0.0955
     20  C13       -0.5100   28.5360   54.3330 C.ar    0  <0>0       -0.0044
     21  C18        0.1300   27.3730   54.7200 C.ar    0  <0>0       -0.0018
     22  C17        0.1570   26.2830   53.8720 C.ar    0  <0>0        0.0111
     23  C16       -0.4570   26.3550   52.6330 C.ar    0  <0>0        0.0577
     24  C15       -1.0970   27.5190   52.2460 C.ar    0  <0>0        0.0111
     25 Cl         -0.4240   24.9860   51.5670 Cl      0  <0>0       -0.0822
     26  C14       -1.1280   28.6070   53.0980 C.ar    0  <0>0       -0.0018
     27  C19       -1.6770   30.6620   54.8510 C.3     0  <0>0        0.0223
     28  C21       -3.0940   30.0860   54.8300 C.3     0  <0>0        0.0020
     29  C20       -2.6820   31.0640   55.9320 C.3     0  <0>0        0.0020
@<TRIPOS>BOND
     1    25    23    1
     2    24    23   ar
     3    24    26   ar
     4    23    22   ar
     5    26    20   ar
     6    22    21   ar
     7    20    21   ar
     8    20    19    1
     9     6     4    1
    10    28    27    1
    11    28    29    1
    12    27    19    1
    13    27    29    1
    14     4    19    1
    15     4     2   am
    16     5     1    1
    17    18    17    1
    18    12    11   ar
    19    12    13   ar
    20    11    10   ar
    21     1     2   am
    22     1     7    1
    23     2     3    2
    24    17    13    1
    25    13    14   ar
    26    10    15    1
    27    10     9   ar
    28    15    16    1
    29    14     9   ar
    30     9     7    1
    31     7     8    1

@<TRIPOS>MOLECULE
ZINC06819707_replica-1.pdb
 28 31 0 0 0
SMALL
GASTEIGER

@<TRIPOS>ATOM
      1  C8         9.1840   34.9960   59.7810 C.3     0  <0>0        0.0356
      2  C9         9.4470   36.2630   58.9640 C.3     0  <0>0        0.0458
      3  C10        8.4360   36.3630   57.8480 C.2     0  <0>0        0.0268
      4  C11        7.9160   35.2510   57.2850 C.2     0  <0>0        0.0261
      5  C12        6.9140   35.3760   56.1620 C.3     0  <0>0        0.0573
      6  C13        7.2630   36.5920   55.3010 C.3     0  <0>0        0.0942
      7  C14        7.5030   37.7780   56.1980 C.2     0  <0>0        0.2265
      8  O2         7.1970   38.8900   55.8240 O.2     0  <0>0       -0.2748
      9  N1         8.0570   37.6060   57.4100 N.am    0  <0>0       -0.2875
     10  C21        8.2860   33.9690   57.7210 C.2     0  <0>0        0.1706
     11  O3         7.8050   32.9920   57.1810 O.2     0  <0>0       -0.2916
     12  C22        9.2670   33.7850   58.8470 C.3     0  <0>0        0.0736
     13  H14        8.1910   38.3750   57.9860 H       0  <0>0        0.1545
     14  C5        10.2230   34.8710   60.8660 C.ar    0  <0>0       -0.0215
     15  C4        10.6260   33.6190   61.2950 C.ar    0  <0>0       -0.0011
     16  C3        11.5740   33.5020   62.2920 C.ar    0  <0>0        0.0366
     17  C2        12.1330   34.6400   62.8550 C.ar    0  <0>0        0.1387
     18  C7        11.7280   35.8950   62.4220 C.ar    0  <0>0        0.0366
     19  C6        10.7740   36.0070   61.4290 C.ar    0  <0>0       -0.0011
     20  O1        13.0690   34.5270   63.8330 O.3     0  <0>0       -0.4714
     21  C1        14.2340   33.7570   63.5300 C.3     0  <0>0        0.2525
     22  C15        5.5320   35.5490   56.7380 C.ar    0  <0>0       -0.0178
     23  C20        4.4750   35.8810   55.9120 C.ar    0  <0>0       -0.0031
     24  C19        3.2070   36.0400   56.4410 C.ar    0  <0>0        0.0111
     25  C18        2.9970   35.8650   57.7960 C.ar    0  <0>0        0.0577
     26  C17        4.0560   35.5320   58.6230 C.ar    0  <0>0        0.0111
     27 Cl          1.4050   36.0640   58.4610 Cl      0  <0>0       -0.0822
     28  C16        5.3210   35.3680   58.0930 C.ar    0  <0>0       -0.0031
@<TRIPOS>BOND
     1     6     5    1
     2     6     7    1
     3     8     7    2
     4    23    24   ar
     5    23    22   ar
     6     5    22    1
     7     5     4    1
     8     7     9   am
     9    24    25   ar
    10    22    28   ar
    11    11    10    2
    12     4    10    1
    13     4     3    2
    14     9     3    1
    15     9    13    1
    16    10    12    1
    17    25    27    1
    18    25    26   ar
    19     3     2    1
    20    28    26   ar
    21    12     1    1
    22     2     1    1
    23     1    14    1
    24    14    15   ar
    25    14    19   ar
    26    15    16   ar
    27    19    18   ar
    28    16    17   ar
    29    18    17   ar
    30    17    20    1
    31    21    20    1

@<TRIPOS>MOLECULE
ZINC14551840_replica-1.pdb
 26 29 0 0 0
SMALL
GASTEIGER

@<TRIPOS>ATOM
      1  C1         6.1330   33.2760   59.6340 C.3     0  <0>0        0.0341
      2  C2         7.1190   34.0040   58.7560 C.ar    0  <0>0        0.0134
      3  C3         7.5610   33.4180   57.5890 C.ar    0  <0>0        0.1401
      4  C4         8.4650   34.0870   56.7850 C.ar    0  <0>0        0.0235
      5  C5         8.9230   35.3360   57.1510 C.ar    0  <0>0       -0.0014
      6  C6         8.4850   35.9340   58.3240 C.ar    0  <0>0       -0.0095
      7  C7         7.5780   35.2660   59.1270 C.ar    0  <0>0        0.0383
      8  N1         7.0970   35.8140   60.3170 N.pl3   0  <0>0       -0.3310
      9  C8         8.0650   36.7340   60.9170 C.3     0  <0>0        0.0921
     10  C9         8.3870   37.8570   59.9450 C.3     0  <0>0        0.0262
     11  C10        9.0320   37.2950   58.6620 C.3     0  <0>0        0.0254
     12  C11        8.5720   38.2670   57.5870 C.3     0  <0>0        0.0045
     13  C12        7.4980   38.9050   57.9740 C.3     0  <0>0        0.0004
     14  C13        7.0830   38.4550   59.3620 C.3     0  <0>0        0.0023
     15  H9         6.8350   35.0890   60.9680 H       0  <0>0        0.1470
     16  C14        9.3290   35.9840   61.2490 C.ar    0  <0>0       -0.0045
     17  C19        9.3780   34.6110   61.0930 C.ar    0  <0>0       -0.0022
     18  C18       10.5350   33.9200   61.3970 C.ar    0  <0>0        0.0059
     19  C17       11.6510   34.6060   61.8590 C.ar    0  <0>0        0.0252
     20  C16       11.5980   35.9870   62.0160 C.ar    0  <0>0        0.0059
     21  C15       10.4400   36.6720   61.7060 C.ar    0  <0>0       -0.0022
     22  S1        13.1290   33.7290   62.2480 S.3     0  <0>0       -0.1127
     23  C20       12.5400   32.2070   63.0410 C.3     0  <0>0        0.0742
     24  N2         7.0650   32.0800   57.1950 N.pl3   0  <0>0        0.0574
     25  O1         6.0310   31.9760   56.5620 O.2     0  <0>0       -0.1261
     26  O2         7.6920   31.0820   57.5060 O.2     0  <0>0       -0.1261
@<TRIPOS>BOND
     1    25    24    2
     2     4     5   ar
     3     4     3   ar
     4     5     6   ar
     5    24    26    2
     6    24     3    1
     7    12    13    1
     8    12    11    1
     9     3     2   ar
    10    13    14    1
    11     6    11    1
    12     6     7   ar
    13    11    10    1
    14     2     7   ar
    15     2     1    1
    16     7     8    1
    17    14    10    1
    18    10     9    1
    19     8     9    1
    20     8    15    1
    21     9    16    1
    22    17    16   ar
    23    17    18   ar
    24    16    21   ar
    25    18    19   ar
    26    21    20   ar
    27    19    20   ar
    28    19    22    1
    29    22    23    1

@<TRIPOS>MOLECULE
ZINC64810075_replica-1.pdb
 25 27 0 0 0
SMALL
GASTEIGER

@<TRIPOS>ATOM
      1  C4        -1.6550   30.4420   55.8060 C.2     0  <0>0        0.2283
      2  O1        -2.4340   31.2920   56.1840 O.2     0  <0>0       -0.2747
      3  N1        -0.3590   30.5060   56.1710 N.am    0  <0>0       -0.2567
      4  H7         0.2630   29.8270   55.8680 H       0  <0>0        0.1573
      5  C5         0.0860   31.5450   56.9830 C.2     0  <0>0        0.2267
      6  N3         0.4240   32.6980   56.4420 N.2     0  <0>0       -0.3806
      7  C12        0.8480   33.6980   57.2240 C.ar    0  <0>0        0.1626
      8  C7         0.9380   33.5040   58.6250 C.ar    0  <0>0        0.1621
      9  C11        1.2110   34.9410   56.6770 C.ar    0  <0>0        0.0348
     10  N2         0.5940   32.3230   59.1550 N.2     0  <0>0       -0.3838
     11  C8         1.3900   34.5560   59.4380 C.ar    0  <0>0        0.0347
     12  C6         0.1770   31.3540   58.3730 C.2     0  <0>0        0.2328
     13 Cl         -0.2680   29.8240   59.0640 Cl      0  <0>0       -0.0442
     14  C9         1.7330   35.7470   58.8730 C.ar    0  <0>0        0.0028
     15  C10        1.6430   35.9380   57.4960 C.ar    0  <0>0        0.0028
     16  C3        -2.1360   29.3170   54.9280 C.3     0  <0>0        0.0898
     17  C2        -1.6080   29.5170   53.5060 C.3     0  <0>0        0.0314
     18  C1        -2.6900   30.1790   52.6490 C.3     0  <0>0        0.0052
     19  C13       -1.2440   28.1810   52.9120 C.ar    0  <0>0       -0.0219
     20  C18       -1.7120   27.8310   51.6590 C.ar    0  <0>0       -0.0020
     21  C17       -1.3740   26.6080   51.1120 C.ar    0  <0>0        0.0293
     22  C16       -0.5750   25.7290   51.8220 C.ar    0  <0>0        0.1401
     23  C15       -0.1120   26.0780   53.0790 C.ar    0  <0>0        0.0293
     24  F1        -0.2480   24.5310   51.2900 F       0  <0>0       -0.2042
     25  C14       -0.4460   27.3040   53.6230 C.ar    0  <0>0       -0.0020
@<TRIPOS>BOND
     1    21    20   ar
     2    21    22   ar
     3    24    22    1
     4    20    19   ar
     5    22    23   ar
     6    18    17    1
     7    19    17    1
     8    19    25   ar
     9    23    25   ar
    10    17    16    1
    11    16     1    1
    12     1     3   am
    13     1     2    2
    14     4     3    1
    15     3     5    1
    16     6     5    2
    17     6     7    2
    18     9     7   ar
    19     9    15   ar
    20     5    12    1
    21     7     8   ar
    22    15    14   ar
    23    12    13    1
    24    12    10    2
    25     8    10    2
    26     8    11   ar
    27    14    11   ar

@<TRIPOS>MOLECULE
ZINC39835439_replica-1.pdb
 27 30 0 0 0
SMALL
GASTEIGER

@<TRIPOS>ATOM
      1  C10        8.9820   34.7860   60.1610 C.1     0  <0>0        0.1086
      2  N1         7.8960   34.0230   60.3730 N.2     0  <0>0       -0.3225
      3  C11        6.9200   34.4450   59.6190 C.ar    0  <0>0        0.2606
      4  N2         7.3390   35.5130   58.8760 N.ar    0  <0>0       -0.1500
      5  N3         8.6930   35.7030   59.2660 N.2     0  <0>0       -0.0937
      6  C12        6.4740   36.0920   58.0320 C.ar    0  <0>0        0.2895
      7  O1         6.8030   37.0450   57.3500 O.2     0  <0>0       -0.2645
      8  C13        5.1150   35.5370   57.9570 C.ar    0  <0>0        0.0913
      9  C14        4.0620   35.9310   57.1960 C.2     0  <0>0        0.0145
     10  S1         5.2250   34.2030   59.1410 S.2     0  <0>0       -0.0299
     11  C9        10.2850   34.6230   60.8270 C.2     0  <0>0        0.0859
     12  C8        10.5270   33.5310   61.5700 C.2     0  <0>0        0.0118
     13  C5        11.8310   33.3670   62.2380 C.ar    0  <0>0        0.0007
     14  C4        12.7560   34.4150   62.2370 C.ar    0  <0>0       -0.0003
     15  C3        13.9740   34.2550   62.8650 C.ar    0  <0>0       -0.0043
     16  C2        14.2790   33.0620   63.4960 C.ar    0  <0>0       -0.0218
     17  C1        15.6120   32.8950   64.1800 C.3     0  <0>0        0.0310
     18  C7        13.3690   32.0190   63.4970 C.ar    0  <0>0       -0.0043
     19  C6        12.1460   32.1660   62.8780 C.ar    0  <0>0       -0.0003
     20  C15        2.7810   35.2190   57.2880 C.ar    0  <0>0        0.0387
     21  C20        2.5030   34.1550   56.4190 C.ar    0  <0>0        0.0598
     22  C19        1.2980   33.4880   56.5170 C.ar    0  <0>0        0.0115
     23 Cl          3.6710   33.6730   55.2300 Cl      0  <0>0       -0.0822
     24  C18        0.3620   33.8740   57.4600 C.ar    0  <0>0        0.0032
     25  C17        0.6250   34.9270   58.3190 C.ar    0  <0>0        0.0297
     26  C16        1.8270   35.6020   58.2410 C.ar    0  <0>0        0.1409
     27  F1         2.0830   36.6290   59.0810 F       0  <0>0       -0.2041
@<TRIPOS>BOND
     1    23    21    1
     2    21    22   ar
     3    21    20   ar
     4    22    24   ar
     5     9    20    1
     6     9     8    2
     7    20    26   ar
     8     7     6    2
     9    24    25   ar
    10     8     6   ar
    11     8    10   ar
    12     6     4   ar
    13    26    25   ar
    14    26    27    1
    15     4     5    1
    16     4     3   ar
    17    10     3   ar
    18     5     1    2
    19     3     2    2
    20     1     2    2
    21     1    11    1
    22    11    12    2
    23    12    13    1
    24    14    13   ar
    25    14    15   ar
    26    13    19   ar
    27    15    16   ar
    28    19    18   ar
    29    16    18   ar
    30    16    17    1

@<TRIPOS>MOLECULE
ZINC01341001_replica-1.pdb
 29 33 0 0 0
SMALL
GASTEIGER

@<TRIPOS>ATOM
      1  C9         0.0830   27.6980   54.3230 C.2     0  <0>0        0.2969
      2  C10       -0.4940   27.3900   53.1200 C.2     0  <0>0        0.0818
      3  C11       -1.2670   28.3490   52.4640 C.2     0  <0>0        0.1154
      4  N2        -1.4370   29.5410   53.0010 N.2     0  <0>0       -0.3715
      5  C12       -0.8790   29.8580   54.1790 C.2     0  <0>0        0.2813
      6  N3        -0.1170   28.9430   54.8580 N.pl3   0  <0>0       -0.0359
      7  N4         0.3330   29.5480   56.0370 N.2     0  <0>0       -0.0852
      8  C13       -0.1390   30.7800   56.0890 C.2     0  <0>0        0.1108
      9  C14       -0.9040   31.0150   54.9430 C.3     0  <0>0        0.1539
     10  C21       -1.7910   27.7730   51.1660 C.3     0  <0>0        0.0594
     11  C22       -1.6310   26.2440   51.3070 C.3     0  <0>0        0.0124
     12  C23       -0.4570   26.1190   52.3020 C.3     0  <0>0        0.0364
     13  N1         0.8520   26.7670   54.9880 N.pl3   0  <0>0       -0.2178
     14  H10        1.7790   27.1220   55.1640 H       0  <0>0        0.2924
     15  C8         0.2030   26.3440   56.2370 C.3     0  <0>0        0.2264
     16  C6         0.2290   24.8400   56.3310 C.ar    0  <0>0        0.0238
     17  C5         0.6610   24.0890   55.2550 C.ar    0  <0>0       -0.0003
     18  C4         0.6840   22.7080   55.3400 C.ar    0  <0>0       -0.0005
     19  C3         0.2770   22.0820   56.5030 C.ar    0  <0>0       -0.0043
     20  C2        -0.1600   22.8340   57.5770 C.ar    0  <0>0       -0.0220
     21  C1        -0.6110   22.1500   58.8420 C.3     0  <0>0        0.0310
     22  C7        -0.1790   24.2130   57.4940 C.ar    0  <0>0       -0.0046
     23  C15        0.1020   31.7540   57.1830 C.ar    0  <0>0        0.0198
     24  C20        0.0890   33.1200   56.9170 C.ar    0  <0>0        0.0309
     25  C19        0.3080   34.0240   57.9410 C.ar    0  <0>0        0.1402
     26  C18        0.5520   33.5690   59.2260 C.ar    0  <0>0        0.0296
     27  F1         0.2910   35.3500   57.6860 F       0  <0>0       -0.2042
     28  C17        0.5720   32.2120   59.4920 C.ar    0  <0>0        0.0023
     29  C16        0.3480   31.3040   58.4790 C.ar    0  <0>0        0.0014
@<TRIPOS>BOND
     1    10    11    1
     2    10     3    1
     3    11    12    1
     4    12     2    1
     5     3     4    2
     6     3     2    1
     7     4     5    2
     8     2     1    2
     9     5     6    1
    10     5     9    1
    11     1     6    1
    12     1    13    1
    13     6     7    1
    14     9     8    1
    15    13    14    1
    16    13    15    1
    17    17    18   ar
    18    17    16   ar
    19    18    19   ar
    20     7     8    2
    21     8    23    1
    22    15    16    1
    23    16    22   ar
    24    19    20   ar
    25    24    23   ar
    26    24    25   ar
    27    23    29   ar
    28    22    20   ar
    29    20    21    1
    30    27    25    1
    31    25    26   ar
    32    29    28   ar
    33    26    28   ar

@<TRIPOS>MOLECULE
ZINC13668173_replica-1.pdb
 24 26 0 0 0
SMALL
GASTEIGER

@<TRIPOS>ATOM
      1  C1         5.1490   33.0260   61.5390 C.3     0  <0>0        0.0436
      2  C2         4.8170   33.5120   60.1270 C.3     0  <0>0        0.1350
      3  C3         5.8240   34.5890   59.7010 C.3     0  <0>0        0.0620
      4  C4         5.5330   34.9710   58.2480 C.3     0  <0>0        0.1040
      5  C5         4.0580   35.2280   58.0760 C.ar    0  <0>0        0.0277
      6  C6         3.6300   35.9340   56.9630 C.ar    0  <0>0        0.0001
      7  C7         2.2850   36.1840   56.7720 C.ar    0  <0>0       -0.0001
      8  C8         1.3600   35.7310   57.6940 C.ar    0  <0>0        0.0031
      9  C9         1.7800   35.0300   58.8040 C.ar    0  <0>0        0.0366
     10  C10        3.1340   34.7770   59.0020 C.ar    0  <0>0        0.1355
     11  O1         3.5100   34.0860   60.1090 O.3     0  <0>0       -0.4828
     12  C17        4.8770   32.3370   59.1480 C.3     0  <0>0        0.0436
     13  N1         6.2830   36.1820   57.9030 N.3     0  <0>0       -0.1764
     14  H11        5.8650   37.0530   57.9920 H       0  <0>0        0.1491
     15  S1         7.8440   36.0640   57.3620 S.O2    0  <0>0        0.0605
     16  O2         7.9690   34.7840   56.7600 O.2     0  <0>0       -0.1530
     17  O3         8.1210   37.2680   56.6600 O.2     0  <0>0       -0.1530
     18  C11        8.8870   36.0580   58.7820 C.ar    0  <0>0        0.1220
     19  C16        8.9110   37.1520   59.6270 C.ar    0  <0>0        0.0208
     20  C15        9.7290   37.1470   60.7420 C.ar    0  <0>0        0.0128
     21  C14       10.5250   36.0480   61.0100 C.ar    0  <0>0        0.0578
     22  C13       10.5000   34.9530   60.1640 C.ar    0  <0>0        0.0128
     23 Cl         11.5530   36.0400   62.4090 Cl      0  <0>0       -0.0822
     24  C12        9.6780   34.9570   59.0540 C.ar    0  <0>0        0.0208
@<TRIPOS>BOND
     1    17    15    2
     2    16    15    2
     3     7     6   ar
     4     7     8   ar
     5     6     5   ar
     6    15    13    1
     7    15    18    1
     8     8     9   ar
     9    13    14    1
    10    13     4    1
    11     5     4    1
    12     5    10   ar
    13     4     3    1
    14    18    24   ar
    15    18    19   ar
    16     9    10   ar
    17    10    11    1
    18    24    22   ar
    19    12     2    1
    20    19    20   ar
    21     3     2    1
    22    11     2    1
    23     2     1    1
    24    22    21   ar
    25    20    21   ar
    26    21    23    1

@<TRIPOS>MOLECULE
ZINC02627622_replica-1.pdb
 24 26 0 0 0
SMALL
GASTEIGER

@<TRIPOS>ATOM
      1  C7        -1.5730   29.7880   53.8270 C.ar    0  <0>0        0.1865
      2  N2        -2.4400   29.8430   54.8190 N.ar    0  <0>0       -0.1249
      3  N3        -2.1240   30.5350   55.9660 N.ar    0  <0>0       -0.1331
      4  C8        -0.9560   31.1400   56.0670 C.ar    0  <0>0        0.1607
      5  S1        -0.2220   30.7530   54.4850 S.2     0  <0>0       -0.0242
      6  S2        -0.2990   32.0850   57.4020 S.3     0  <0>0       -0.0827
      7  C9         1.4840   31.7600   57.3330 C.3     0  <0>0        0.1114
      8  C10        2.0220   31.5710   58.7530 C.3     0  <0>0        0.2175
      9  O1         2.1330   32.8430   59.3940 O.3     0  <0>0       -0.4722
     10  C11        1.2990   33.0810   60.4410 C.ar    0  <0>0        0.1658
     11  C16        0.5720   34.2640   60.4980 C.ar    0  <0>0        0.1738
     12  C15       -0.2750   34.5030   61.5640 C.ar    0  <0>0        0.0328
     13  F1         0.6950   35.1800   59.5130 F       0  <0>0       -0.2010
     14  C14       -0.4010   33.5640   62.5720 C.ar    0  <0>0        0.0025
     15  C13        0.3220   32.3860   62.5170 C.ar    0  <0>0        0.0033
     16  C12        1.1670   32.1410   61.4520 C.ar    0  <0>0        0.0392
     17  N1        -1.6840   29.1540   52.5950 N.pl3   0  <0>0       -0.2913
     18  H6        -2.0580   29.6300   51.8360 H       0  <0>0        0.1541
     19  C4        -1.2570   27.8310   52.4480 C.ar    0  <0>0        0.0498
     20  C3        -0.4380   27.2550   53.4110 C.ar    0  <0>0        0.0147
     21  C2        -0.0180   25.9470   53.2640 C.ar    0  <0>0        0.0013
     22  C1        -0.4100   25.2140   52.1590 C.ar    0  <0>0        0.0001
     23  C6        -1.2260   25.7840   51.2000 C.ar    0  <0>0        0.0013
     24  C5        -1.6540   27.0900   51.3430 C.ar    0  <0>0        0.0147
@<TRIPOS>BOND
     1    23    24   ar
     2    23    22   ar
     3    24    19   ar
     4    18    17    1
     5    22    21   ar
     6    19    17    1
     7    19    20   ar
     8    17     1    1
     9    21    20   ar
    10     1     5   ar
    11     1     2   ar
    12     5     4   ar
    13     2     3   ar
    14     3     4   ar
    15     4     6    1
    16     7     6    1
    17     7     8    1
    18     8     9    1
    19     9    10    1
    20    13    11    1
    21    10    11   ar
    22    10    16   ar
    23    11    12   ar
    24    16    15   ar
    25    12    14   ar
    26    15    14   ar

@<TRIPOS>MOLECULE
ZINC05886383_replica-1.pdb
 26 29 0 0 0
SMALL
GASTEIGER

@<TRIPOS>ATOM
      1  C7         5.8990   35.3310   58.1440 C.3     0  <0>0        0.0580
      2  C8         4.4200   35.6620   57.9200 C.3     0  <0>0        0.0943
      3  C9         4.1270   35.8820   56.4620 C.2     0  <0>0        0.2278
      4  O1         3.0810   35.4720   56.0040 O.2     0  <0>0       -0.2747
      5  N1         4.9920   36.5200   55.6460 N.am    0  <0>0       -0.2700
      6  C10        6.2670   36.8100   56.1350 C.ar    0  <0>0        0.1250
      7  C11        6.7280   36.2730   57.3080 C.ar    0  <0>0        0.0325
      8  C12        8.0200   36.7560   57.5240 C.ar    0  <0>0        0.0997
      9  N2         8.3370   37.5400   56.5110 N.ar    0  <0>0       -0.1719
     10  N3         7.2470   37.5770   55.6220 N.ar    0  <0>0       -0.2631
     11  H2         7.2090   38.0680   54.7850 H       0  <0>0        0.1903
     12  H9         4.7360   36.7720   54.7450 H       0  <0>0        0.1562
     13  C3         6.1700   33.9080   57.7270 C.ar    0  <0>0       -0.0156
     14  C2         7.1410   33.6390   56.7820 C.ar    0  <0>0       -0.0038
     15  C1         7.3910   32.3350   56.3980 C.ar    0  <0>0        0.0020
     16  C6         6.6700   31.2980   56.9610 C.ar    0  <0>0        0.0296
     17  C5         5.6970   31.5670   57.9080 C.ar    0  <0>0        0.1398
     18  C4         5.4480   32.8740   58.2900 C.ar    0  <0>0        0.0257
     19  F1         4.9920   30.5550   58.4590 F       0  <0>0       -0.2042
     20  C13        8.8850   36.4420   58.6890 C.ar    0  <0>0        0.0192
     21  C18        8.9920   37.3470   59.7440 C.ar    0  <0>0        0.0024
     22  C17        9.7930   37.0480   60.8270 C.ar    0  <0>0        0.0114
     23  C16       10.4990   35.8580   60.8610 C.ar    0  <0>0        0.0577
     24  C15       10.4000   34.9590   59.8140 C.ar    0  <0>0        0.0114
     25 Cl         11.5110   35.4920   62.2240 Cl      0  <0>0       -0.0822
     26  C14        9.5960   35.2450   58.7290 C.ar    0  <0>0        0.0024
@<TRIPOS>BOND
     1    12     5    1
     2    11    10    1
     3    10     6   ar
     4    10     9   ar
     5     5     6    1
     6     5     3   am
     7     4     3    2
     8     6     7   ar
     9    15    14   ar
    10    15    16   ar
    11     3     2    1
    12     9     8   ar
    13    14    13   ar
    14    16    17   ar
    15     7     8   ar
    16     7     1    1
    17     8    20    1
    18    13     1    1
    19    13    18   ar
    20    17    18   ar
    21    17    19    1
    22     2     1    1
    23    20    26   ar
    24    20    21   ar
    25    26    24   ar
    26    21    22   ar
    27    24    23   ar
    28    22    23   ar
    29    23    25    1

@<TRIPOS>MOLECULE
ZINC12275378_replica-1.pdb
 28 31 0 0 0
SMALL
GASTEIGER

@<TRIPOS>ATOM
      1  C7         4.2710   34.2160   59.3200 C.3     0  <0>0        0.0652
      2  C8         5.2270   33.0310   59.4320 C.3     0  <0>0        0.0952
      3  C9         6.6570   33.4610   59.2560 C.2     0  <0>0        0.2322
      4  O1         7.5350   32.9750   59.9380 O.2     0  <0>0       -0.2744
      5  N1         6.9520   34.4080   58.3130 N.am    0  <0>0       -0.2297
      6  C10        5.9130   35.1090   57.7190 C.2     0  <0>0        0.0879
      7  C11        4.6140   35.0480   58.1040 C.2     0  <0>0        0.0700
      8  C12        3.5970   35.7490   57.3800 C.1     0  <0>0        0.0982
      9  N2         2.7900   36.3060   56.8060 N.1     0  <0>0       -0.1911
     10  S1         6.6270   36.0850   56.4260 S.3     0  <0>0       -0.0938
     11  C13        8.3930   35.6640   56.6780 C.3     0  <0>0        0.1146
     12  C14        8.3060   34.6980   57.8720 C.3     0  <0>0        0.1853
     13  C3         2.8580   33.7090   59.1960 C.ar    0  <0>0       -0.0150
     14  C2         2.5390   32.7840   58.2190 C.ar    0  <0>0       -0.0038
     15  C1         1.2410   32.3230   58.1000 C.ar    0  <0>0        0.0020
     16  C6         0.2630   32.7800   58.9630 C.ar    0  <0>0        0.0296
     17  C5         0.5820   33.7020   59.9460 C.ar    0  <0>0        0.1398
     18  C4         1.8830   34.1630   60.0630 C.ar    0  <0>0        0.0257
     19  F1        -0.3730   34.1500   60.7890 F       0  <0>0       -0.2042
     20  C15        9.0680   35.2950   59.0270 C.ar    0  <0>0        0.0209
     21  C20       10.1260   34.6040   59.5880 C.ar    0  <0>0        0.0020
     22  C19       10.8250   35.1510   60.6470 C.ar    0  <0>0        0.0294
     23  C18       10.4660   36.3920   61.1460 C.ar    0  <0>0        0.1401
     24  C17        9.4060   37.0840   60.5830 C.ar    0  <0>0        0.0294
     25  F2        11.1490   36.9280   62.1810 F       0  <0>0       -0.2042
     26  C16        8.7120   36.5370   59.5200 C.ar    0  <0>0        0.0020
     27  O2         8.9370   33.4690   57.5080 O.3     0  <0>0       -0.3659
     28  H14        9.9040   33.5120   57.4910 H       0  <0>0        0.2124
@<TRIPOS>BOND
     1    10    11    1
     2    10     6    1
     3    11    12    1
     4     9     8    3
     5     8     7    1
     6    28    27    1
     7    27    12    1
     8     6     7    2
     9     6     5    1
    10    12     5    1
    11    12    20    1
    12    15    14   ar
    13    15    16   ar
    14     7     1    1
    15    14    13   ar
    16     5     3   am
    17    16    17   ar
    18    20    26   ar
    19    20    21   ar
    20    13     1    1
    21    13    18   ar
    22     3     2    1
    23     3     4    2
    24     1     2    1
    25    26    24   ar
    26    21    22   ar
    27    17    18   ar
    28    17    19    1
    29    24    23   ar
    30    22    23   ar
    31    23    25    1

@<TRIPOS>MOLECULE
ZINC12569727_replica-1.pdb
 32 36 0 0 0
SMALL
GASTEIGER

@<TRIPOS>ATOM
      1  N1        10.7820   33.8320   61.2630 N.ar    0  <0>0       -0.2282
      2  C7         9.5840   33.2200   61.2580 C.ar    0  <0>0        0.1019
      3  C8         8.7500   33.9290   60.4130 C.ar    0  <0>0        0.0387
      4  C9         9.5490   35.0400   59.8820 C.ar    0  <0>0        0.1027
      5  N2        10.7450   34.9440   60.4170 N.ar    0  <0>0       -0.1651
      6  C16        7.3470   33.6280   60.1050 C.2     0  <0>0        0.0078
      7  C17        6.3950   34.5660   60.3050 C.2     0  <0>0        0.0584
      8  C18        5.0400   34.2740   60.0060 C.2     0  <0>0        0.2529
      9  O1         4.3210   33.7830   60.8570 O.2     0  <0>0       -0.2696
     10  N3         4.5480   34.5410   58.7800 N.am    0  <0>0       -0.2555
     11  C23        3.1950   34.3220   58.4930 C.ar    0  <0>0        0.0501
     12  C19        5.4220   35.0730   57.7250 C.3     0  <0>0        0.0988
     13  C22        2.6200   34.8410   57.3440 C.ar    0  <0>0       -0.0084
     14  C24        2.4270   33.5750   59.3780 C.ar    0  <0>0        0.0146
     15  C21        3.4220   35.6510   56.3580 C.3     0  <0>0        0.0294
     16  C27        1.2790   34.6120   57.0870 C.ar    0  <0>0       -0.0030
     17  C20        4.6780   36.2120   57.0240 C.3     0  <0>0        0.0266
     18  C26        0.5170   33.8700   57.9690 C.ar    0  <0>0       -0.0002
     19  C25        1.0900   33.3500   59.1160 C.ar    0  <0>0        0.0013
     20  C10        9.0910   36.0770   58.9280 C.ar    0  <0>0        0.0195
     21  C15        8.9190   35.7610   57.5800 C.ar    0  <0>0        0.0039
     22  C14        8.4990   36.7330   56.6960 C.ar    0  <0>0        0.0297
     23  C13        8.2400   38.0170   57.1440 C.ar    0  <0>0        0.1401
     24  C12        8.4030   38.3340   58.4840 C.ar    0  <0>0        0.0297
     25  F1         7.8280   38.9640   56.2740 F       0  <0>0       -0.2042
     26  C11        8.8240   37.3700   59.3760 C.ar    0  <0>0        0.0039
     27  C4        11.8960   33.4180   62.0040 C.ar    0  <0>0        0.0828
     28  C3        13.0450   34.1980   62.0280 C.ar    0  <0>0        0.0191
     29  C2        14.1420   33.7870   62.7590 C.ar    0  <0>0        0.0015
     30  C1        14.0980   32.6010   63.4670 C.ar    0  <0>0        0.0001
     31  C6        12.9560   31.8210   63.4450 C.ar    0  <0>0        0.0015
     32  C5        11.8530   32.2290   62.7210 C.ar    0  <0>0        0.0191
@<TRIPOS>BOND
     1    25    23    1
     2    15    17    1
     3    15    13    1
     4    22    23   ar
     5    22    21   ar
     6    17    12    1
     7    16    13   ar
     8    16    18   ar
     9    23    24   ar
    10    13    11   ar
    11    21    20   ar
    12    12    10    1
    13    18    19   ar
    14    24    26   ar
    15    11    10    1
    16    11    14   ar
    17    10     8   am
    18    20    26   ar
    19    20     4    1
    20    19    14   ar
    21     4     3   ar
    22     4     5   ar
    23     8     7    1
    24     8     9    2
    25     6     7    2
    26     6     3    1
    27     3     2   ar
    28     5     1   ar
    29     2     1   ar
    30     1    27    1
    31    27    28   ar
    32    27    32   ar
    33    28    29   ar
    34    32    31   ar
    35    29    30   ar
    36    31    30   ar

@<TRIPOS>MOLECULE
ZINC04915479_replica-1.pdb
 28 31 0 0 0
SMALL
GASTEIGER

@<TRIPOS>ATOM
      1  C8         6.6630   36.3660   56.4360 C.3     0  <0>0        0.0573
      2  C9         6.8510   35.3610   55.2990 C.3     0  <0>0        0.0942
      3  C10        6.9990   33.9790   55.8800 C.2     0  <0>0        0.2265
      4  O2         6.5650   33.0190   55.2800 O.2     0  <0>0       -0.2748
      5  N1         7.6130   33.8070   57.0640 N.am    0  <0>0       -0.2875
      6  C11        8.1360   34.8720   57.7540 C.2     0  <0>0        0.0268
      7  C12        7.7140   36.1270   57.4950 C.2     0  <0>0        0.0261
      8  C13        8.2310   37.2320   58.1920 C.2     0  <0>0        0.1706
      9  O3         7.8370   38.3480   57.9210 O.2     0  <0>0       -0.2916
     10  C14        9.2670   37.0520   59.2700 C.3     0  <0>0        0.0736
     11  C15        9.0910   35.6690   59.9060 C.3     0  <0>0        0.0356
     12  C16        9.1890   34.6110   58.8010 C.3     0  <0>0        0.0458
     13  H12        7.6860   32.9160   57.4380 H       0  <0>0        0.1545
     14  C5         5.2930   36.1910   57.0390 C.ar    0  <0>0       -0.0176
     15  C4         4.1790   36.1450   56.2210 C.ar    0  <0>0       -0.0008
     16  C3         2.9220   35.9840   56.7720 C.ar    0  <0>0        0.0366
     17  C2         2.7780   35.8690   58.1470 C.ar    0  <0>0        0.1387
     18  C7         3.8980   35.9150   58.9660 C.ar    0  <0>0        0.0366
     19  C6         5.1520   36.0700   58.4100 C.ar    0  <0>0       -0.0008
     20  O1         1.5430   35.7100   58.6910 O.3     0  <0>0       -0.4714
     21  C1         0.6180   34.8910   57.9710 C.3     0  <0>0        0.2525
     22  C17       10.1750   35.4400   60.9270 C.ar    0  <0>0       -0.0216
     23  C22       10.6170   36.4890   61.7130 C.ar    0  <0>0       -0.0019
     24  C21       11.6110   36.2800   62.6510 C.ar    0  <0>0        0.0293
     25  C20       12.1650   35.0200   62.8020 C.ar    0  <0>0        0.1401
     26  C19       11.7210   33.9710   62.0150 C.ar    0  <0>0        0.0293
     27  F1        13.1360   34.8140   63.7180 F       0  <0>0       -0.2042
     28  C18       10.7240   34.1810   61.0820 C.ar    0  <0>0       -0.0019
@<TRIPOS>BOND
     1     4     3    2
     2     2     3    1
     3     2     1    1
     4     3     5   am
     5    15    16   ar
     6    15    14   ar
     7     1    14    1
     8     1     7    1
     9    16    17   ar
    10    14    19   ar
    11     5    13    1
    12     5     6    1
    13     7     6    2
    14     7     8    1
    15     6    12    1
    16     9     8    2
    17    21    20    1
    18    17    20    1
    19    17    18   ar
    20     8    10    1
    21    19    18   ar
    22    12    11    1
    23    10    11    1
    24    11    22    1
    25    22    28   ar
    26    22    23   ar
    27    28    26   ar
    28    23    24   ar
    29    26    25   ar
    30    24    25   ar
    31    25    27    1

@<TRIPOS>MOLECULE
ZINC15906108_replica-1.pdb
 32 36 0 0 0
SMALL
GASTEIGER

@<TRIPOS>ATOM
      1  C7         5.9430   35.6450   57.3330 C.2     0  <0>0        0.0523
      2  C8         6.9960   34.9860   57.8840 C.2     0  <0>0        0.0491
      3  C9         8.3890   35.4700   57.5380 C.3     0  <0>0        0.1224
      4  N1         8.4920   36.6210   56.6260 N.am    0  <0>0       -0.2827
      5  C10        7.3600   37.1770   56.1540 C.2     0  <0>0        0.3049
      6  O1         7.4420   38.1270   55.4000 O.2     0  <0>0       -0.2525
      7  N2         6.1460   36.7150   56.4810 N.am    0  <0>0       -0.2684
      8  H7         9.3590   36.9730   56.3700 H       0  <0>0        0.1515
      9  H8         5.3690   37.1570   56.1050 H       0  <0>0        0.1564
     10  C17        6.7920   33.8510   58.7820 C.2     0  <0>0        0.1601
     11  S1         6.3090   33.8550   60.5020 S.3     0  <0>0       -0.0534
     12  C23        6.3120   32.0940   60.7400 C.2     0  <0>0        0.0574
     13  C18        6.6980   31.6180   59.4640 C.2     0  <0>0        0.1374
     14  C22        6.0490   31.2560   61.7940 C.2     0  <0>0       -0.0123
     15  N3         6.9210   32.5600   58.5300 N.2     0  <0>0       -0.3951
     16  C19        6.8000   30.2120   59.3290 C.2     0  <0>0        0.0283
     17  C20        6.5370   29.3890   60.3800 C.2     0  <0>0       -0.0188
     18  C21        6.1600   29.8870   61.6190 C.3     0  <0>0        0.0527
     19  C4         4.5670   35.2080   57.6420 C.ar    0  <0>0        0.0134
     20  C3         3.8080   35.8980   58.5920 C.ar    0  <0>0        0.0012
     21  C2         2.5230   35.4850   58.8750 C.ar    0  <0>0        0.0000
     22  C1         1.9840   34.3910   58.2220 C.ar    0  <0>0        0.0000
     23  C6         2.7300   33.7030   57.2790 C.ar    0  <0>0        0.0000
     24  C5         4.0160   34.1060   56.9860 C.ar    0  <0>0        0.0012
     25  C11        9.0870   35.8330   58.8230 C.ar    0  <0>0        0.0007
     26  C16        9.9870   34.9530   59.3920 C.ar    0  <0>0        0.0099
     27  C15       10.6320   35.2890   60.5690 C.ar    0  <0>0        0.0679
     28  C14       10.3680   36.5030   61.1810 C.ar    0  <0>0        0.0682
     29 Cl         11.7690   34.1870   61.2820 Cl      0  <0>0       -0.0814
     30  C13        9.4620   37.3800   60.6120 C.ar    0  <0>0        0.0120
     31 Cl         11.1720   36.9230   62.6610 Cl      0  <0>0       -0.0814
     32  C12        8.8220   37.0460   59.4340 C.ar    0  <0>0       -0.0014
@<TRIPOS>BOND
     1     6     5    2
     2     9     7    1
     3     5     7   am
     4     5     4   am
     5     8     4    1
     6     7     1    1
     7     4     3    1
     8    24    23   ar
     9    24    19   ar
    10    23    22   ar
    11     1    19    1
    12     1     2    2
    13     3     2    1
    14     3    25    1
    15    19    20   ar
    16     2    10    1
    17    22    21   ar
    18    15    10    2
    19    15    13    2
    20    20    21   ar
    21    10    11    1
    22    25    26   ar
    23    25    32   ar
    24    16    13    1
    25    16    17    2
    26    26    27   ar
    27    32    30   ar
    28    13    12    1
    29    17    18    1
    30    11    12    1
    31    27    28   ar
    32    27    29    1
    33    30    28   ar
    34    12    14    2
    35    28    31    1
    36    18    14    1

@<TRIPOS>MOLECULE
ZINC02471847_replica-1.pdb
 24 27 0 0 0
SMALL
GASTEIGER

@<TRIPOS>ATOM
      1  C7         9.5270   33.6050   61.2260 C.3     0  <0>0        0.0965
      2  C8         9.4380   34.9410   60.4780 C.3     0  <0>0        0.0532
      3  C9         8.0180   35.1370   59.9330 C.3     0  <0>0        0.1351
      4  N1         7.6110   33.9210   59.2290 N.ar    0  <0>0       -0.2184
      5  C10        8.1990   32.7110   59.3940 C.ar    0  <0>0        0.2158
      6  N2         7.5920   31.8570   58.6150 N.ar    0  <0>0       -0.1903
      7  C11        6.6180   32.4800   57.9430 C.ar    0  <0>0        0.2220
      8  N3         6.5960   33.7440   58.2900 N.ar    0  <0>0       -0.1440
      9  N4         9.2560   32.5110   60.2730 N.pl3   0  <0>0       -0.3010
     10  H11        9.7890   31.7000   60.2600 H       0  <0>0        0.1499
     11  C12        7.9980   36.3050   58.9820 C.ar    0  <0>0        0.0381
     12  C17        7.1950   37.3990   59.2450 C.ar    0  <0>0        0.0577
     13  C16        7.1810   38.4740   58.3740 C.ar    0  <0>0        0.0113
     14 Cl          6.2070   37.4270   60.6720 Cl      0  <0>0       -0.0824
     15  C15        7.9630   38.4500   57.2340 C.ar    0  <0>0        0.0032
     16  C14        8.7630   37.3550   56.9660 C.ar    0  <0>0        0.0294
     17  C13        8.7810   36.2810   57.8400 C.ar    0  <0>0        0.1388
     18  F1         9.5630   35.2110   57.5780 F       0  <0>0       -0.2044
     19  C4        10.9080   33.4420   61.8070 C.ar    0  <0>0       -0.0044
     20  C3        11.2130   32.3240   62.5600 C.ar    0  <0>0       -0.0027
     21  C2        12.4800   32.1740   63.0920 C.ar    0  <0>0       -0.0003
     22  C1        13.4420   33.1420   62.8690 C.ar    0  <0>0       -0.0000
     23  C6        13.1370   34.2590   62.1150 C.ar    0  <0>0       -0.0003
     24  C5        11.8700   34.4100   61.5840 C.ar    0  <0>0       -0.0027
@<TRIPOS>BOND
     1    16    15   ar
     2    16    17   ar
     3    15    13   ar
     4    18    17    1
     5    17    11   ar
     6     7     8   ar
     7     7     6   ar
     8     8     4   ar
     9    13    12   ar
    10     6     5   ar
    11    11    12   ar
    12    11     3    1
    13     4     5   ar
    14     4     3    1
    15    12    14    1
    16     5     9    1
    17     3     2    1
    18    10     9    1
    19     9     1    1
    20     2     1    1
    21     1    19    1
    22    24    19   ar
    23    24    23   ar
    24    19    20   ar
    25    23    22   ar
    26    20    21   ar
    27    22    21   ar

@<TRIPOS>MOLECULE
ZINC02281173_replica-1.pdb
 28 31 0 0 0
SMALL
GASTEIGER

@<TRIPOS>ATOM
      1  C12       -0.7120   30.0670   56.8420 C.3     0  <0>0        0.1581
      2  C13       -0.6660   29.7560   58.2840 C.2     0  <0>0        0.2360
      3  O1        -1.2820   28.8110   58.7400 O.2     0  <0>0       -0.2742
      4  N1         0.0810   30.5460   59.0830 N.am    0  <0>0       -0.2662
      5  C14        0.7610   31.5930   58.5940 C.2     0  <0>0        0.1501
      6  S1         1.6770   32.5440   59.6840 S.2     0  <0>0       -0.0176
      7  N2         0.7610   31.9370   57.2990 N.am    0  <0>0       -0.2194
      8  C15        0.0630   31.2360   56.3820 C.2     0  <0>0        0.2430
      9  O2         0.0710   31.5580   55.2100 O.2     0  <0>0       -0.2736
     10  H9         0.1250   30.3540   60.0320 H       0  <0>0        0.1565
     11  C11       -1.4530   29.3000   55.9610 C.3     0  <0>0        0.0447
     12  C10       -0.8500   28.2060   55.2940 C.ar    0  <0>0       -0.0212
     13  C4        -1.0490   28.0000   53.8570 C.ar    0  <0>0       -0.0039
     14  C3        -1.8360   28.8720   53.0980 C.ar    0  <0>0       -0.0003
     15  C5        -0.4270   26.8930   53.2320 C.ar    0  <0>0       -0.0003
     16  C2        -1.9960   28.6440   51.7630 C.ar    0  <0>0       -0.0000
     17  C1        -1.3870   27.5560   51.1440 C.ar    0  <0>0       -0.0000
     18  C6        -0.6140   26.6890   51.8540 C.ar    0  <0>0       -0.0000
     19  C7         0.3630   26.0200   53.9990 C.ar    0  <0>0       -0.0000
     20  C8         0.5370   26.2280   55.3350 C.ar    0  <0>0       -0.0003
     21  C9        -0.0550   27.2940   55.9930 C.ar    0  <0>0       -0.0042
     22  C16        1.5050   33.0510   56.8870 C.ar    0  <0>0        0.0598
     23  C21        2.7740   32.8810   56.3510 C.ar    0  <0>0        0.0176
     24  C20        3.5050   33.9800   55.9450 C.ar    0  <0>0        0.0309
     25  C19        2.9730   35.2510   56.0720 C.ar    0  <0>0        0.1402
     26  C18        1.7070   35.4240   56.6080 C.ar    0  <0>0        0.0309
     27  F1         3.6890   36.3260   55.6740 F       0  <0>0       -0.2042
     28  C17        0.9710   34.3270   57.0090 C.ar    0  <0>0        0.0176
@<TRIPOS>BOND
     1    17    16   ar
     2    17    18   ar
     3    16    14   ar
     4    18    15   ar
     5    14    13   ar
     6    15    13   ar
     7    15    19   ar
     8    13    12   ar
     9    19    20   ar
    10     9     8    2
    11    12    11    1
    12    12    21   ar
    13    20    21   ar
    14    27    25    1
    15    24    25   ar
    16    24    23   ar
    17    11     1    1
    18    25    26   ar
    19    23    22   ar
    20     8     1    1
    21     8     7   am
    22    26    28   ar
    23     1     2    1
    24    22    28   ar
    25    22     7    1
    26     7     5    1
    27     2     3    2
    28     2     4   am
    29     5     4    1
    30     5     6    2
    31     4    10    1

@<TRIPOS>MOLECULE
ZINC07654603_replica-1.pdb
 29 31 0 0 0
SMALL
GASTEIGER

@<TRIPOS>ATOM
      1  S2         1.0050   32.5430   57.3090 S.3     0  <0>0       -0.0768
      2  C9         2.7230   32.6720   56.9410 C.ar    0  <0>0        0.1611
      3  N3         3.7270   31.9290   57.3690 N.ar    0  <0>0       -0.1331
      4  N2         5.0080   32.2060   56.9510 N.ar    0  <0>0       -0.1249
      5  C8         5.2270   33.2110   56.1250 C.ar    0  <0>0        0.1865
      6  S1         3.5710   33.8350   55.8840 S.2     0  <0>0       -0.0242
      7  N1         6.4260   33.6610   55.5840 N.pl3   0  <0>0       -0.2913
      8  H9         6.9630   33.0450   54.8480 H       0  <0>0        0.1541
      9  C5         6.9490   34.8970   55.9750 C.ar    0  <0>0        0.0497
     10  C4         7.4010   35.0820   57.2750 C.ar    0  <0>0        0.0143
     11  C3         7.9170   36.3040   57.6570 C.ar    0  <0>0       -0.0030
     12  C2         7.9850   37.3440   56.7480 C.ar    0  <0>0       -0.0218
     13  C1         8.5490   38.6760   57.1690 C.3     0  <0>0        0.0310
     14  C7         7.5350   37.1630   55.4520 C.ar    0  <0>0       -0.0030
     15  C6         7.0230   35.9420   55.0610 C.ar    0  <0>0        0.0143
     16  C10        0.5930   30.8260   56.8930 C.3     0  <0>0        0.1489
     17  C11        0.0040   30.7720   55.5080 C.2     0  <0>0        0.2341
     18  O1        -0.0910   31.7860   54.8490 O.2     0  <0>0       -0.2741
     19  N4        -0.4250   29.5980   55.0030 N.am    0  <0>0       -0.3015
     20  H12       -0.3390   28.6780   55.6010 H       0  <0>0        0.1497
     21  C12       -1.0030   29.5460   53.6580 C.3     0  <0>0        0.0941
     22  C13       -2.4930   29.8900   53.7310 C.3     0  <0>0        0.0262
     23  C14       -0.8350   28.1600   53.0920 C.ar    0  <0>0       -0.0044
     24  C19       -0.1120   27.2120   53.7930 C.ar    0  <0>0       -0.0004
     25  C18        0.0430   25.9400   53.2760 C.ar    0  <0>0        0.0294
     26  C17       -0.5250   25.6150   52.0560 C.ar    0  <0>0        0.1401
     27  C16       -1.2500   26.5650   51.3560 C.ar    0  <0>0        0.0294
     28  F1        -0.3760   24.3710   51.5490 F       0  <0>0       -0.2042
     29  C15       -1.4080   27.8350   51.8780 C.ar    0  <0>0       -0.0004
@<TRIPOS>BOND
     1    27    29   ar
     2    27    26   ar
     3    28    26    1
     4    29    23   ar
     5    26    25   ar
     6    23    21    1
     7    23    24   ar
     8    25    24   ar
     9    21    22    1
    10    21    19    1
    11     8     7    1
    12    18    17    2
    13    19    17   am
    14    19    20    1
    15    15    14   ar
    16    15     9   ar
    17    14    12   ar
    18    17    16    1
    19     7     9    1
    20     7     5    1
    21     6     5   ar
    22     6     2   ar
    23     9    10   ar
    24     5     4   ar
    25    12    13    1
    26    12    11   ar
    27    16     1    1
    28     2     1    1
    29     2     3   ar
    30     4     3   ar
    31    10    11   ar

@<TRIPOS>MOLECULE
ZINC25158404_replica-1.pdb
 28 29 0 0 0
SMALL
GASTEIGER

@<TRIPOS>ATOM
      1  C1         0.5950   27.1600   57.9380 C.3     0  <0>0        0.0313
      2  C2        -0.0920   28.5250   57.8500 C.3     0  <0>0        0.1511
      3  C3         0.8340   29.5880   58.3830 C.2     0  <0>0        0.2406
      4  O1         2.0000   29.3290   58.5920 O.2     0  <0>0       -0.2733
      5  N1         0.3650   30.8280   58.6280 N.am    0  <0>0       -0.3009
      6  H6        -0.5670   31.0360   58.4600 H       0  <0>0        0.1497
      7  C4         1.2650   31.8620   59.1460 C.3     0  <0>0        0.0940
      8  C5         0.6790   32.4540   60.4020 C.ar    0  <0>0       -0.0045
      9  C10        0.3210   33.7880   60.4350 C.ar    0  <0>0       -0.0027
     10  C9        -0.2220   34.3310   61.5850 C.ar    0  <0>0       -0.0003
     11  C8        -0.3980   33.5390   62.7060 C.ar    0  <0>0       -0.0000
     12  C7        -0.0350   32.2060   62.6740 C.ar    0  <0>0       -0.0003
     13  C6         0.5040   31.6630   61.5230 C.ar    0  <0>0       -0.0027
     14  C11        1.4380   32.9610   58.0960 C.3     0  <0>0        0.0222
     15  C12        2.8490   32.8890   57.5100 C.3     0  <0>0        0.0020
     16  C13        0.4120   32.7650   56.9790 C.3     0  <0>0        0.0020
     17  N2        -0.4180   28.8170   56.4520 N.am    0  <0>0       -0.2640
     18  C14       -1.7020   28.8010   56.0420 C.2     0  <0>0        0.4023
     19  O2        -2.5880   28.5430   56.8310 O.2     0  <0>0       -0.2264
     20  H19        0.2900   29.0230   55.8210 H       0  <0>0        0.1532
     21  O3        -2.0010   29.0700   54.7570 O.3     0  <0>0       -0.4297
     22  C15       -0.9130   29.1050   53.8320 C.3     0  <0>0        0.2367
     23  C16       -0.9780   27.8960   52.9340 C.ar    0  <0>0        0.0213
     24  C21       -1.7050   27.9460   51.7590 C.ar    0  <0>0       -0.0007
     25  C20       -1.7600   26.8390   50.9330 C.ar    0  <0>0       -0.0002
     26  C19       -1.0980   25.6780   51.2880 C.ar    0  <0>0       -0.0000
     27  C18       -0.3770   25.6260   52.4650 C.ar    0  <0>0       -0.0002
     28  C17       -0.3170   26.7350   53.2890 C.ar    0  <0>0       -0.0007
@<TRIPOS>BOND
     1    25    26   ar
     2    25    24   ar
     3    26    27   ar
     4    24    23   ar
     5    27    28   ar
     6    23    28   ar
     7    23    22    1
     8    22    21    1
     9    21    18    1
    10    20    17    1
    11    18    17   am
    12    18    19    2
    13    17     2    1
    14    16    14    1
    15    15    14    1
    16     2     1    1
    17     2     3    1
    18    14     7    1
    19     3     4    2
    20     3     5   am
    21     6     5    1
    22     5     7    1
    23     7     8    1
    24     8     9   ar
    25     8    13   ar
    26     9    10   ar
    27    13    12   ar
    28    10    11   ar
    29    12    11   ar

@<TRIPOS>MOLECULE
ZINC51756327_replica-1.pdb
 24 24 0 0 0
SMALL
GASTEIGER

@<TRIPOS>ATOM
      1  N2         0.7750   30.1130   55.1800 N.am    0  <0>0       -0.2833
      2  C10       -0.2460   29.7030   54.4020 C.2     0  <0>0        0.3042
      3  O2        -1.1120   30.4900   54.0720 O.2     0  <0>0       -0.2526
      4  N3        -0.3070   28.4210   53.9890 N.am    0  <0>0       -0.2642
      5  H13        1.4670   29.4850   55.4430 H       0  <0>0        0.1513
      6  C9         0.8420   31.5060   55.6270 C.3     0  <0>0        0.1367
      7  C4         0.8200   31.5510   57.1340 C.ar    0  <0>0        0.0778
      8  N1         0.3720   30.5120   57.8110 N.ar    0  <0>0       -0.2469
      9  C3         0.3330   30.5040   59.1300 C.ar    0  <0>0        0.0972
     10  C2         0.7660   31.5940   59.8570 C.ar    0  <0>0        0.0309
     11  C1         0.7170   31.5760   61.3630 C.3     0  <0>0        0.0358
     12  C6         1.2430   32.7120   59.1790 C.ar    0  <0>0        0.1333
     13  C5         1.2720   32.6800   57.7870 C.ar    0  <0>0        0.0270
     14  C8         1.7840   33.8620   57.0060 C.3     0  <0>0        0.0355
     15  O1         1.6740   33.8070   59.8580 O.3     0  <0>0       -0.4720
     16  C7         0.6970   34.8010   60.1720 C.3     0  <0>0        0.2524
     17  C11        0.7360   27.4740   54.3880 C.3     0  <0>0        0.0949
     18  C12        0.1780   26.5120   55.4400 C.3     0  <0>0        0.0199
     19  C13        0.6430   25.0890   55.1270 C.3     0  <0>0        0.0018
     20  C14        0.6850   26.9220   56.8240 C.3     0  <0>0        0.0018
     21  C15       -1.4180   27.9760   53.1440 C.3     0  <0>0        0.0949
     22  C16       -0.8670   27.4230   51.8280 C.3     0  <0>0        0.0199
     23  C17       -0.8010   25.8970   51.9050 C.3     0  <0>0        0.0018
     24  C18       -1.7850   27.8370   50.6760 C.3     0  <0>0        0.0018
@<TRIPOS>BOND
     1    24    22    1
     2    22    23    1
     3    22    21    1
     4    21     4    1
     5     4    17    1
     6     4     2   am
     7     3     2    2
     8    17    18    1
     9     2     1   am
    10    19    18    1
    11     1     5    1
    12     1     6    1
    13    18    20    1
    14     6     7    1
    15    14    13    1
    16     7    13   ar
    17     7     8   ar
    18    13    12   ar
    19     8     9   ar
    20     9    10   ar
    21    12    10   ar
    22    12    15    1
    23    10    11    1
    24    15    16    1

@<TRIPOS>MOLECULE
ZINC20886101_replica-1.pdb
 29 32 0 0 0
SMALL
GASTEIGER

@<TRIPOS>ATOM
      1  C8        11.1670   34.9820   60.9670 C.3     0  <0>0        0.0357
      2  C9        10.4400   34.1230   59.9310 C.3     0  <0>0        0.0458
      3  C10        9.4740   34.9790   59.1490 C.2     0  <0>0        0.0268
      4  C11        8.8840   36.0510   59.7190 C.2     0  <0>0        0.0261
      5  C12        7.9160   36.8910   58.9190 C.3     0  <0>0        0.0574
      6  C13        8.3760   36.9450   57.4610 C.3     0  <0>0        0.0942
      7  C14        8.6910   35.5480   56.9910 C.2     0  <0>0        0.2265
      8  O2         8.4820   35.2370   55.8380 O.2     0  <0>0       -0.2748
      9  N1         9.2040   34.6470   57.8460 N.am    0  <0>0       -0.2875
     10  C21        9.1530   36.4130   61.0500 C.2     0  <0>0        0.1706
     11  O3         8.5920   37.3770   61.5320 O.2     0  <0>0       -0.2916
     12  C22       10.1230   35.6250   61.8870 C.3     0  <0>0        0.0736
     13  H14        9.4080   33.6290   57.4840 H       0  <0>0        0.1545
     14  C6        12.0930   34.1170   61.7810 C.ar    0  <0>0       -0.0187
     15  C5        13.4290   34.4530   61.8980 C.ar    0  <0>0       -0.0041
     16  C4        14.2810   33.6590   62.6450 C.ar    0  <0>0        0.0028
     17  C3        13.8010   32.5260   63.2700 C.ar    0  <0>0        0.0369
     18  C2        12.4600   32.1890   63.1580 C.ar    0  <0>0        0.1384
     19  C7        11.6070   32.9860   62.4090 C.ar    0  <0>0        0.0326
     20  O1        11.9840   31.0770   63.7770 O.3     0  <0>0       -0.4714
     21  C1        12.8050   29.9080   63.7330 C.3     0  <0>0        0.2525
     22  C15        6.5410   36.2780   58.9900 C.ar    0  <0>0       -0.0172
     23  C20        5.6790   36.3900   57.9160 C.ar    0  <0>0        0.0050
     24  C19        4.4170   35.8270   57.9790 C.ar    0  <0>0        0.0617
     25  C18        4.0180   35.1510   59.1210 C.ar    0  <0>0        0.1462
     26 Br          3.2370   35.9820   56.5100 Br      0  <0>0       -0.0467
     27  C17        4.8840   35.0400   60.1960 C.ar    0  <0>0        0.0298
     28  F1         2.7870   34.6010   59.1850 F       0  <0>0       -0.2037
     29  C16        6.1460   35.5990   60.1270 C.ar    0  <0>0       -0.0016
@<TRIPOS>BOND
     1     8     7    2
     2    26    24    1
     3     7     6    1
     4     7     9   am
     5     6     5    1
     6    13     9    1
     7     9     3    1
     8    23    24   ar
     9    23    22   ar
    10    24    25   ar
    11     5    22    1
    12     5     4    1
    13    22    29   ar
    14    25    28    1
    15    25    27   ar
    16     3     4    2
    17     3     2    1
    18     4    10    1
    19     2     1    1
    20    29    27   ar
    21     1    14    1
    22     1    12    1
    23    10    11    2
    24    10    12    1
    25    14    15   ar
    26    14    19   ar
    27    15    16   ar
    28    19    18   ar
    29    16    17   ar
    30    18    17   ar
    31    18    20    1
    32    21    20    1

@<TRIPOS>MOLECULE
ZINC01046388_replica-1.pdb
 30 33 0 0 0
SMALL
GASTEIGER

@<TRIPOS>ATOM
      1  C2        14.1120   32.6300   63.9230 C.ar    0  <0>0        0.1384
      2  C3        13.3880   31.4680   63.6880 C.ar    0  <0>0        0.0370
      3  C4        12.2000   31.5230   62.9900 C.ar    0  <0>0        0.0053
      4  C5        11.7280   32.7480   62.5240 C.ar    0  <0>0        0.0256
      5  C6        12.4490   33.9170   62.7720 C.ar    0  <0>0       -0.0164
      6  C7        13.6400   33.8530   63.4640 C.ar    0  <0>0        0.0327
      7  C8        11.9230   35.2420   62.2870 C.3     0  <0>0        0.0313
      8  C9        11.2230   35.0800   60.9410 C.3     0  <0>0        0.0333
      9  C10       10.2120   33.9680   60.9980 C.2     0  <0>0        0.0053
     10  C11       10.4610   32.8260   61.7580 C.2     0  <0>0        0.1300
     11  N1         9.5930   31.8230   61.7880 N.2     0  <0>0       -0.3706
     12  C12        8.4540   31.8610   61.1210 C.2     0  <0>0        0.2709
     13  C13        8.1170   32.9800   60.3440 C.3     0  <0>0        0.2018
     14  C14        9.0220   34.0640   60.2830 C.2     0  <0>0        0.0001
     15  C22        6.8760   33.0270   59.6310 C.1     0  <0>0        0.0873
     16  N2         5.8920   33.0620   59.0640 N.1     0  <0>0       -0.1950
     17  O2         7.6040   30.8080   61.1840 O.2     0  <0>0       -0.4498
     18  C23        6.6660   30.7950   62.2620 C.3     0  <0>0        0.2550
     19  C15        8.7140   35.2680   59.4750 C.ar    0  <0>0       -0.0027
     20  C20        8.1970   36.4080   60.0860 C.ar    0  <0>0       -0.0003
     21  C19        7.9130   37.5260   59.3290 C.ar    0  <0>0        0.0038
     22  C18        8.1400   37.5160   57.9650 C.ar    0  <0>0        0.0714
     23  C17        8.6530   36.3870   57.3510 C.ar    0  <0>0        0.0038
     24  C16        8.9460   35.2650   58.0990 C.ar    0  <0>0       -0.0003
     25  C21        7.8270   38.7400   57.1430 C.3     0  <0>0        0.4186
     26  F1         9.0090   39.2430   56.5870 F       0  <0>0       -0.1659
     27  F2         6.9370   38.3990   56.1180 F       0  <0>0       -0.1659
     28  F3         7.2450   39.7150   57.9610 F       0  <0>0       -0.1659
     29  O1        15.2860   32.5710   64.6040 O.3     0  <0>0       -0.4714
     30  C1        15.8990   33.8150   64.9470 C.3     0  <0>0        0.2525
@<TRIPOS>BOND
     1    27    25    1
     2    26    25    1
     3    25    28    1
     4    25    22    1
     5    23    22   ar
     6    23    24   ar
     7    22    21   ar
     8    24    19   ar
     9    16    15    3
    10    21    20   ar
    11    19    20   ar
    12    19    14    1
    13    15    13    1
    14    14    13    1
    15    14     9    2
    16    13    12    1
    17     8     9    1
    18     8     7    1
    19     9    10    1
    20    12    17    1
    21    12    11    2
    22    17    18    1
    23    10    11    2
    24    10     4    1
    25     7     5    1
    26     4     5   ar
    27     4     3   ar
    28     5     6   ar
    29     3     2   ar
    30     6     1   ar
    31     2     1   ar
    32     1    29    1
    33    29    30    1

@<TRIPOS>MOLECULE
ZINC05682072_replica-1.pdb
 28 32 0 0 0
SMALL
GASTEIGER

@<TRIPOS>ATOM
      1  C7        -0.0020   28.9490   55.3180 C.2     0  <0>0        0.0108
      2  C8         0.0130   30.2920   55.3470 C.2     0  <0>0        0.0146
      3  C9         0.3680   30.7710   56.6840 C.2     0  <0>0        0.0676
      4  C10        0.5690   29.7430   57.5130 C.2     0  <0>0        0.0245
      5  C11        0.3510   28.4790   56.7120 C.3     0  <0>0        0.1458
      6  N1         0.4740   32.1210   57.0460 N.pl3   0  <0>0       -0.1951
      7  N3        -0.4240   32.8500   57.8390 N.pl3   0  <0>0       -0.0442
      8  N2        -0.0020   34.0580   57.9650 N.2     0  <0>0       -0.1458
      9  C23        1.1550   34.2240   57.2840 C.2     0  <0>0        0.1035
     10  C18        1.4780   32.9930   56.6880 C.3     0  <0>0        0.1589
     11  C22        2.0050   35.3210   57.0930 C.2     0  <0>0        0.0184
     12  C19        2.6310   32.8750   55.9190 C.2     0  <0>0        0.0011
     13  C20        3.4500   33.9680   55.7470 C.2     0  <0>0       -0.0025
     14  C21        3.1320   35.1860   56.3360 C.2     0  <0>0        0.0011
     15  C4        -0.3080   28.0990   54.1550 C.ar    0  <0>0       -0.0011
     16  C3        -1.0830   28.5990   53.1050 C.ar    0  <0>0       -0.0002
     17  C2        -1.3670   27.7970   52.0190 C.ar    0  <0>0       -0.0000
     18  C1        -0.8850   26.5000   51.9680 C.ar    0  <0>0       -0.0000
     19  C6        -0.1180   25.9980   53.0040 C.ar    0  <0>0       -0.0000
     20  C5         0.1780   26.7910   54.0940 C.ar    0  <0>0       -0.0002
     21  C12       -0.7840   27.6780   57.2970 C.ar    0  <0>0        0.0096
     22  C17       -2.0550   28.2160   57.3530 C.ar    0  <0>0       -0.0014
     23  C16       -3.0940   27.4810   57.8900 C.ar    0  <0>0       -0.0002
     24  C15       -2.8630   26.2060   58.3700 C.ar    0  <0>0       -0.0000
     25  C14       -1.5920   25.6660   58.3130 C.ar    0  <0>0       -0.0002
     26  C13       -0.5530   26.4000   57.7720 C.ar    0  <0>0       -0.0014
     27  O1         1.5470   27.6970   56.6840 O.3     0  <0>0       -0.3749
     28  H13        1.4780   26.8560   57.1560 H       0  <0>0        0.2115
@<TRIPOS>BOND
     1    18    17   ar
     2    18    19   ar
     3    17    16   ar
     4    19    20   ar
     5    16    15   ar
     6    20    15   ar
     7    15     1    1
     8     1     2    2
     9     1     5    1
    10     2     3    1
    11    13    12    2
    12    13    14    1
    13    12    10    1
    14    14    11    2
    15    27     5    1
    16    27    28    1
    17     3     6    1
    18     3     4    2
    19    10     6    1
    20    10     9    1
    21     5    21    1
    22     5     4    1
    23     6     7    1
    24    11     9    1
    25     9     8    2
    26    21    22   ar
    27    21    26   ar
    28    22    23   ar
    29    26    25   ar
    30     7     8    1
    31    23    24   ar
    32    25    24   ar

@<TRIPOS>MOLECULE
ZINC04980491_replica-1.pdb
 33 36 0 0 0
SMALL
GASTEIGER

@<TRIPOS>ATOM
      1  C8         7.8680   37.2120   58.9390 C.2     0  <0>0        0.3013
      2  C9         9.0260   36.9590   59.6180 C.2     0  <0>0        0.1176
      3  C10        9.0700   35.8890   60.5270 C.2     0  <0>0        0.1421
      4  N2         8.0010   35.1300   60.7140 N.2     0  <0>0       -0.3668
      5  C11        6.8640   35.3690   60.0470 C.2     0  <0>0        0.2816
      6  N3         6.7800   36.4080   59.1550 N.pl3   0  <0>0       -0.0355
      7  N4         5.4860   36.4100   58.6190 N.2     0  <0>0       -0.0852
      8  C12        4.8010   35.4170   59.1560 C.2     0  <0>0        0.1107
      9  C13        5.6280   34.7390   60.0580 C.3     0  <0>0        0.1539
     10  N1         7.7970   38.2600   58.0440 N.pl3   0  <0>0       -0.2214
     11  H17        7.3900   39.0990   58.3100 H       0  <0>0        0.2921
     12  C7         8.3350   38.1040   56.6900 C.3     0  <0>0        0.1967
     13  C6         7.1890   37.8400   55.7120 C.3     0  <0>0        0.0279
     14  C5         7.3210   36.4260   55.1420 C.3     0  <0>0       -0.0731
     15  N5         6.4030   35.5290   55.8730 N.4     0  <0>0        0.3870
     16  H29        6.2790   35.8840   56.8290 H       0  <0>0       -0.0797
     17  C2         5.0870   35.4940   55.2010 C.3     0  <0>0       -0.0774
     18  C1         5.0670   34.4160   54.1160 C.3     0  <0>0       -0.0250
     19  C3         6.9720   34.1660   55.9390 C.3     0  <0>0       -0.0774
     20  C4         8.2580   34.2090   56.7670 C.3     0  <0>0       -0.0250
     21  C20       10.3170   35.6050   61.2760 C.ar    0  <0>0        0.0300
     22  C25       10.8080   36.5310   62.1960 C.ar    0  <0>0        0.0025
     23  C24       11.9690   36.2610   62.8900 C.ar    0  <0>0        0.0001
     24  C23       12.6460   35.0740   62.6760 C.ar    0  <0>0        0.0000
     25  C22       12.1640   34.1510   61.7650 C.ar    0  <0>0        0.0001
     26  C21       11.0010   34.4080   61.0680 C.ar    0  <0>0        0.0025
     27  C14        3.3880   35.0770   58.8540 C.ar    0  <0>0        0.0177
     28  C19        2.6350   35.9010   58.0200 C.ar    0  <0>0        0.0036
     29  C18        1.3220   35.5820   57.7400 C.ar    0  <0>0        0.0297
     30  C17        0.7520   34.4440   58.2890 C.ar    0  <0>0        0.1401
     31  C16        1.4970   33.6220   59.1200 C.ar    0  <0>0        0.0297
     32  F1        -0.5330   34.1340   58.0140 F       0  <0>0       -0.2042
     33  C15        2.8130   33.9320   59.3990 C.ar    0  <0>0        0.0036
@<TRIPOS>BOND
     1    18    17    1
     2    14    13    1
     3    14    15    1
     4    17    15    1
     5    13    12    1
     6    15    19    1
     7    15    16    1
     8    19    20    1
     9    12    10    1
    10    29    28   ar
    11    29    30   ar
    12    32    30    1
    13    28    27   ar
    14    10    11    1
    15    10     1    1
    16    30    31   ar
    17     7     6    1
    18     7     8    2
    19    27     8    1
    20    27    33   ar
    21     1     6    1
    22     1     2    2
    23    31    33   ar
    24     6     5    1
    25     8     9    1
    26     2     3    1
    27     5     9    1
    28     5     4    2
    29     3     4    2
    30     3    21    1
    31    26    21   ar
    32    26    25   ar
    33    21    22   ar
    34    25    24   ar
    35    22    23   ar
    36    24    23   ar

@<TRIPOS>MOLECULE
ZINC02963654_replica-1.pdb
 26 29 0 0 0
SMALL
GASTEIGER

@<TRIPOS>ATOM
      1  N1         7.3490   35.1970   57.5550 N.am    0  <0>0       -0.2418
      2  C9         7.1930   36.1720   56.6560 C.2     0  <0>0        0.1410
      3  S1         8.1890   37.5610   56.7550 S.2     0  <0>0       -0.0182
      4  N2         6.2780   36.1000   55.6740 N.am    0  <0>0       -0.3133
      5  C10        5.3590   34.9520   55.6140 C.3     0  <0>0        0.1014
      6  C11        6.1460   33.7040   56.0450 C.3     0  <0>0        0.0846
      7  C12        6.6020   33.9440   57.4920 C.3     0  <0>0        0.2013
      8  O1         5.4510   33.9960   58.3310 O.3     0  <0>0       -0.4625
      9  C13        4.3760   34.7180   57.9210 C.ar    0  <0>0        0.1714
     10  C14        4.2640   35.1970   56.6290 C.ar    0  <0>0        0.0327
     11  C15        3.1470   35.9190   56.2480 C.ar    0  <0>0        0.0005
     12  C16        2.1380   36.1720   57.1590 C.ar    0  <0>0        0.0030
     13  C17        2.2430   35.7030   58.4550 C.ar    0  <0>0        0.0400
     14  C18        3.3570   34.9770   58.8390 C.ar    0  <0>0        0.1722
     15  C20        7.5040   32.7920   57.9380 C.3     0  <0>0        0.0659
     16  H11        6.2240   36.8030   55.0060 H       0  <0>0        0.1487
     17  C6         8.2690   35.3870   58.5920 C.ar    0  <0>0        0.0515
     18  C5         9.5410   34.8370   58.5040 C.ar    0  <0>0        0.0146
     19  C4        10.4480   35.0320   59.5270 C.ar    0  <0>0        0.0009
     20  C3        10.0860   35.7620   60.6440 C.ar    0  <0>0       -0.0045
     21  C2         8.8180   36.3050   60.7380 C.ar    0  <0>0       -0.0246
     22  C1         8.4290   37.1010   61.9580 C.3     0  <0>0        0.0307
     23  C7         7.9080   36.1200   59.7160 C.ar    0  <0>0       -0.0120
     24  C8         6.5270   36.7120   59.8190 C.3     0  <0>0        0.0320
     25  O2         3.4600   34.5150   60.1150 O.3     0  <0>0       -0.4684
     26  C19        2.5900   33.4440   60.4880 C.3     0  <0>0        0.2526
@<TRIPOS>BOND
     1    16     4    1
     2     5     4    1
     3     5     6    1
     4     5    10    1
     5     4     2    1
     6     6     7    1
     7    11    10   ar
     8    11    12   ar
     9    10     9   ar
    10     2     3    2
    11     2     1    1
    12    12    13   ar
    13     7     1    1
    14     7    15    1
    15     7     8    1
    16     1    17    1
    17     9     8    1
    18     9    14   ar
    19    13    14   ar
    20    18    17   ar
    21    18    19   ar
    22    17    23   ar
    23    14    25    1
    24    19    20   ar
    25    23    24    1
    26    23    21   ar
    27    25    26    1
    28    20    21   ar
    29    21    22    1

@<TRIPOS>MOLECULE
ZINC00389413_replica-1.pdb
 20 23 0 0 0
SMALL
GASTEIGER

@<TRIPOS>ATOM
      1  C1         3.9930   34.3470   59.9260 C.ar    0  <0>0       -0.0002
      2  C2         5.2110   34.7740   60.4250 C.ar    0  <0>0        0.0015
      3  C3         6.1120   35.4060   59.5900 C.ar    0  <0>0        0.0173
      4  C4         5.7940   35.6110   58.2590 C.ar    0  <0>0        0.0625
      5  C5         4.5830   35.1530   57.7460 C.ar    0  <0>0       -0.0055
      6  C6         3.6810   34.5350   58.5940 C.ar    0  <0>0       -0.0028
      7  C7         4.2600   35.2800   56.2810 C.3     0  <0>0        0.0358
      8  C8         4.8430   36.5590   55.6780 C.3     0  <0>0        0.0709
      9  C9         6.2600   36.7250   56.1620 C.ar    0  <0>0        0.1474
     10  N1         6.6650   36.2740   57.3930 N.ar    0  <0>0       -0.2776
     11  C10        7.9750   36.6050   57.5030 C.ar    0  <0>0        0.1700
     12  N2         8.3100   37.2060   56.3770 N.ar    0  <0>0       -0.1287
     13  N3         7.2870   37.2670   55.5920 N.ar    0  <0>0       -0.1330
     14  C11        8.8570   36.3460   58.6620 C.ar    0  <0>0        0.0363
     15  C16        9.0040   37.3100   59.6590 C.ar    0  <0>0        0.0036
     16  C15        9.8220   37.0600   60.7410 C.ar    0  <0>0        0.0068
     17  C14       10.5080   35.8610   60.8320 C.ar    0  <0>0        0.0346
     18  C13       10.3700   34.9030   59.8420 C.ar    0  <0>0        0.0068
     19 Br         11.6340   35.5280   62.3140 Br      0  <0>0       -0.0490
     20  C12        9.5490   35.1390   58.7580 C.ar    0  <0>0        0.0036
@<TRIPOS>BOND
     1    13     9   ar
     2    13    12   ar
     3     8     9    1
     4     8     7    1
     5     9    10   ar
     6     7     5    1
     7    12    11   ar
     8    10    11   ar
     9    10     4    1
    10    11    14    1
    11     5     4   ar
    12     5     6   ar
    13     4     3   ar
    14     6     1   ar
    15    14    20   ar
    16    14    15   ar
    17    20    18   ar
    18     3     2   ar
    19    15    16   ar
    20    18    17   ar
    21     1     2   ar
    22    16    17   ar
    23    17    19    1

@<TRIPOS>MOLECULE
ZINC41153006_replica-1.pdb
 30 33 0 0 0
SMALL
GASTEIGER

@<TRIPOS>ATOM
      1  N1         0.5500   32.6880   57.5640 N.pl3   0  <0>0       -0.2348
      2  C8        -0.2780   31.5950   57.3770 C.1     0  <0>0        0.2041
      3  N2        -0.3200   30.6660   58.3130 N.2     0  <0>0       -0.3317
      4  C9        -1.1100   29.5920   58.1690 C.2     0  <0>0        0.1343
      5  C10       -1.1810   28.5880   59.1430 C.2     0  <0>0        0.0293
      6  C11       -2.0000   27.5150   58.9470 C.2     0  <0>0        0.0020
      7  C12       -2.7700   27.4030   57.7930 C.2     0  <0>0       -0.0036
      8  C13       -2.7240   28.3620   56.8250 C.2     0  <0>0       -0.0110
      9  C14       -1.8940   29.4750   56.9950 C.3     0  <0>0        0.1426
     10  C15       -1.8060   30.5030   56.0230 C.2     0  <0>0        0.1810
     11  N3        -1.0010   31.5270   56.2620 N.2     0  <0>0       -0.3168
     12  H8         0.5320   33.4240   56.9330 H       0  <0>0        0.1658
     13  C7         1.4160   32.7300   58.6640 C.ar    0  <0>0        0.0923
     14  C2         2.7500   32.3550   58.5180 C.ar    0  <0>0        0.1526
     15  C3         3.6040   32.4040   59.6070 C.ar    0  <0>0        0.0382
     16  C4         3.1310   32.8210   60.8380 C.ar    0  <0>0        0.0032
     17  C5         1.8060   33.1890   60.9860 C.ar    0  <0>0        0.0015
     18  C6         0.9480   33.1420   59.9030 C.ar    0  <0>0        0.0183
     19  O1         3.2130   31.9460   57.3060 O.3     0  <0>0       -0.4702
     20  C1         4.1840   32.7790   56.6690 C.3     0  <0>0        0.2525
     21  N4        -2.5470   30.4420   54.8610 N.pl3   0  <0>0       -0.3101
     22  H13       -3.5070   30.5720   54.8910 H       0  <0>0        0.1489
     23  C16       -1.8810   30.1790   53.5830 C.3     0  <0>0        0.0935
     24  C17       -0.6870   29.2490   53.8110 C.3     0  <0>0        0.0476
     25  C18       -0.8420   28.0150   52.9600 C.ar    0  <0>0       -0.0205
     26  C23       -0.2230   26.8360   53.3340 C.ar    0  <0>0       -0.0042
     27  C22       -0.3690   25.7030   52.5560 C.ar    0  <0>0       -0.0003
     28  C21       -1.1250   25.7500   51.4000 C.ar    0  <0>0       -0.0000
     29  C20       -1.7380   26.9310   51.0240 C.ar    0  <0>0       -0.0003
     30  C19       -1.5970   28.0630   51.8030 C.ar    0  <0>0       -0.0042
@<TRIPOS>BOND
     1    29    28   ar
     2    29    30   ar
     3    28    27   ar
     4    30    25   ar
     5    27    26   ar
     6    25    26   ar
     7    25    24    1
     8    23    24    1
     9    23    21    1
    10    21    22    1
    11    21    10    1
    12    10    11    2
    13    10     9    1
    14    11     2    2
    15    20    19    1
    16     8     9    1
    17     8     7    2
    18    12     1    1
    19     9     4    1
    20    19    14    1
    21     2     1    1
    22     2     3    2
    23     1    13    1
    24     7     6    1
    25     4     3    2
    26     4     5    1
    27    14    13   ar
    28    14    15   ar
    29    13    18   ar
    30     6     5    2
    31    15    16   ar
    32    18    17   ar
    33    16    17   ar

@<TRIPOS>MOLECULE
ZINC62038528_replica-1.pdb
 34 38 0 0 0
SMALL
GASTEIGER

@<TRIPOS>ATOM
      1  C10        0.0520   30.1710   59.3600 C.2     0  <0>0        0.0914
      2  C11       -0.1330   30.5460   60.7180 C.3     0  <0>0        0.1144
      3  C12        0.2770   31.7640   61.4100 C.2     0  <0>0       -0.0038
      4  C13       -0.0160   31.8950   62.7260 C.2     0  <0>0        0.0331
      5  S2        -0.8660   30.3770   63.1150 S.3     0  <0>0       -0.0718
      6  C14       -0.8110   29.6070   61.5190 C.2     0  <0>0        0.0950
      7  N2        -1.2390   28.4610   61.0230 N.2     0  <0>0       -0.2414
      8  C15       -1.0380   28.1670   59.7530 C.3     0  <0>0        0.2511
      9  N3        -0.4150   29.0030   58.9430 N.2     0  <0>0       -0.2417
     10  S1         0.8840   31.2480   58.2400 S.3     0  <0>0       -0.0891
     11  C9        -0.3300   31.5350   56.9240 C.3     0  <0>0        0.1483
     12  C8        -0.1490   30.5020   55.8400 C.2     0  <0>0        0.2376
     13  N1        -0.8720   29.3650   55.8670 N.am    0  <0>0       -0.2808
     14  H7        -1.5630   29.2450   56.5370 H       0  <0>0        0.1550
     15  O1         0.6470   30.6940   54.9460 O.2     0  <0>0       -0.2738
     16  C6        -0.6280   28.3580   54.9240 C.ar    0  <0>0        0.0842
     17  C5         0.1560   27.2580   55.2650 C.ar    0  <0>0        0.1470
     18  C4         0.3960   26.2650   54.3290 C.ar    0  <0>0        0.0376
     19  C3        -0.1430   26.3660   53.0600 C.ar    0  <0>0       -0.0011
     20  C2        -0.9210   27.4580   52.7200 C.ar    0  <0>0       -0.0204
     21  C1        -1.5050   27.5620   51.3360 C.3     0  <0>0        0.0311
     22  C7        -1.1600   28.4550   53.6460 C.ar    0  <0>0        0.0135
     23  O2         0.6840   27.1590   56.5140 O.3     0  <0>0       -0.5043
     24  H23        0.0270   27.0340   57.2120 H       0  <0>0        0.2922
     25  C16        1.0000   32.8370   60.6880 C.ar    0  <0>0       -0.0031
     26  C21        2.3910   32.8420   60.6490 C.ar    0  <0>0       -0.0049
     27  C20        3.0710   33.8410   59.9700 C.ar    0  <0>0       -0.0261
     28  C19        2.3660   34.8400   59.3340 C.ar    0  <0>0       -0.0261
     29  C22        4.5770   33.7900   59.9770 C.3     0  <0>0        0.0260
     30  C18        0.9760   34.8410   59.3760 C.ar    0  <0>0       -0.0046
     31  C25        3.0440   35.9510   58.5740 C.3     0  <0>0        0.0260
     32  C17        0.2910   33.8520   60.0460 C.ar    0  <0>0       -0.0006
     33  C24        4.5110   36.0620   58.9800 C.3     0  <0>0        0.0050
     34  C23        5.1500   34.6730   58.8700 C.3     0  <0>0        0.0050
@<TRIPOS>BOND
     1    21    20    1
     2    20    19   ar
     3    20    22   ar
     4    19    18   ar
     5    22    16   ar
     6    18    17   ar
     7    16    17   ar
     8    16    13    1
     9    15    12    2
    10    17    23    1
    11    12    13   am
    12    12    11    1
    13    13    14    1
    14    23    24    1
    15    11    10    1
    16    10     1    1
    17    31    33    1
    18    31    28    1
    19    34    33    1
    20    34    29    1
    21     9     1    2
    22     9     8    1
    23    28    30   ar
    24    28    27   ar
    25     1     2    1
    26    30    32   ar
    27     8     7    1
    28    27    29    1
    29    27    26   ar
    30    32    25   ar
    31    26    25   ar
    32    25     3    1
    33     2     3    1
    34     2     6    1
    35     7     6    2
    36     3     4    2
    37     6     5    1
    38     4     5    1

@<TRIPOS>MOLECULE
ZINC01446652_replica-1.pdb
 30 33 0 0 0
SMALL
GASTEIGER

@<TRIPOS>ATOM
      1  C8         9.8420   34.7070   60.4400 C.ar    0  <0>0        0.0988
      2  C9         9.0760   33.5110   60.8130 C.ar    0  <0>0        0.0177
      3  C10        9.9110   32.7460   61.6060 C.ar    0  <0>0        0.0976
      4  N1        11.0830   33.3980   61.7180 N.ar    0  <0>0       -0.2285
      5  N2        11.0260   34.5950   61.0000 N.ar    0  <0>0       -0.1654
      6  C17        7.6970   33.1940   60.4270 C.3     0  <0>0        0.0499
      7  C18        7.3030   31.8990   60.3160 C.3     0  <0>0        0.1346
      8  S2         7.5960   30.7280   58.9970 S.3     0  <0>0       -0.0831
      9  C20        6.7350   29.3370   59.7090 C.2     0  <0>0        0.1171
     10  N3         6.2740   29.8260   60.8780 N.am    0  <0>0       -0.2476
     11  S1         6.5340   27.7650   59.0620 S.2     0  <0>0       -0.0275
     12  C19        6.5110   31.0740   61.2460 C.2     0  <0>0        0.2404
     13  O1         6.0980   31.5190   62.3010 O.2     0  <0>0       -0.2736
     14  C21        5.4920   28.9560   61.7610 C.3     0  <0>0        0.0991
     15  C22        6.4020   28.3820   62.8490 C.3     0  <0>0        0.0203
     16  C23        5.6220   28.2690   64.1600 C.3     0  <0>0        0.0018
     17  C24        6.8910   26.9950   62.4260 C.3     0  <0>0        0.0018
     18  C5         9.3690   35.8270   59.5930 C.ar    0  <0>0        0.0191
     19  C4         9.2100   37.0990   60.1400 C.ar    0  <0>0        0.0012
     20  C3         8.7700   38.1390   59.3470 C.ar    0  <0>0       -0.0042
     21  C2         8.4870   37.9200   58.0100 C.ar    0  <0>0       -0.0218
     22  C1         8.0050   39.0590   57.1490 C.3     0  <0>0        0.0310
     23  C7         8.6430   36.6590   57.4610 C.ar    0  <0>0       -0.0042
     24  C6         9.0880   35.6140   58.2440 C.ar    0  <0>0        0.0012
     25  C11       12.1920   32.9460   62.4440 C.ar    0  <0>0        0.0828
     26  C16       13.3320   33.7350   62.5390 C.ar    0  <0>0        0.0191
     27  C15       14.4240   33.2850   63.2550 C.ar    0  <0>0        0.0015
     28  C14       14.3830   32.0520   63.8790 C.ar    0  <0>0        0.0001
     29  C13       13.2510   31.2640   63.7870 C.ar    0  <0>0        0.0015
     30  C12       12.1530   31.7090   63.0760 C.ar    0  <0>0        0.0191
@<TRIPOS>BOND
     1    22    21    1
     2    23    21   ar
     3    23    24   ar
     4    21    20   ar
     5    24    18   ar
     6     8     9    1
     7     8     7    1
     8    11     9    2
     9    20    19   ar
    10    18    19   ar
    11    18     1    1
    12     9    10    1
    13     7     6    1
    14     7    12    1
    15     6     2    1
    16     1     2   ar
    17     1     5   ar
    18     2     3   ar
    19    10    12   am
    20    10    14    1
    21     5     4   ar
    22    12    13    2
    23     3     4   ar
    24     4    25    1
    25    14    15    1
    26    17    15    1
    27    25    26   ar
    28    25    30   ar
    29    26    27   ar
    30    15    16    1
    31    30    29   ar
    32    27    28   ar
    33    29    28   ar

@<TRIPOS>MOLECULE
ZINC01212606_replica-1.pdb
 23 25 0 0 0
SMALL
GASTEIGER

@<TRIPOS>ATOM
      1  C7        -0.7120   29.3430   54.3050 C.ar    0  <0>0        0.1455
      2  C8        -1.8460   30.0480   54.5900 C.ar    0  <0>0        0.0408
      3  C9        -1.4610   31.1610   55.3440 C.ar    0  <0>0        0.0454
      4  C10       -0.0910   31.0930   55.4820 C.ar    0  <0>0        0.1987
      5  O1         0.3390   29.9830   54.8470 O.2     0  <0>0       -0.4489
      6  C11        0.7500   32.0560   56.1960 C.2     0  <0>0        0.2853
      7  O2         0.4670   32.3850   57.3340 O.2     0  <0>0       -0.2664
      8  N1         1.8370   32.5770   55.5940 N.am    0  <0>0       -0.2633
      9  H7         2.0210   32.3720   54.6650 H       0  <0>0        0.1567
     10  C12        2.6970   33.4100   56.3080 C.ar    0  <0>0        0.1345
     11  N2         3.7050   32.8840   56.9860 N.ar    0  <0>0       -0.2285
     12  C16        4.5410   33.6360   57.6760 C.ar    0  <0>0        0.1069
     13  C15        4.3930   35.0090   57.7150 C.ar    0  <0>0        0.0538
     14  C14        3.3470   35.5990   57.0160 C.ar    0  <0>0        0.0111
     15 Br          5.6000   36.0730   58.7080 Br      0  <0>0       -0.0474
     16  C13        2.4870   34.7840   56.3020 C.ar    0  <0>0        0.0350
     17  C6        -0.6500   28.0880   53.5310 C.ar    0  <0>0        0.0346
     18  C1         0.0300   26.9810   54.0450 C.ar    0  <0>0        0.0039
     19  C2         0.0800   25.8090   53.3180 C.ar    0  <0>0        0.0115
     20  C3        -0.5310   25.7320   52.0790 C.ar    0  <0>0        0.0577
     21  C4        -1.2020   26.8290   51.5620 C.ar    0  <0>0        0.0115
     22 Cl         -0.4570   24.2570   51.1680 Cl      0  <0>0       -0.0822
     23  C5        -1.2640   28.0040   52.2800 C.ar    0  <0>0        0.0039
@<TRIPOS>BOND
     1    22    20    1
     2    21    20   ar
     3    21    23   ar
     4    20    19   ar
     5    23    17   ar
     6    19    18   ar
     7    17    18   ar
     8    17     1    1
     9     1     2   ar
    10     1     5   ar
    11     2     3   ar
    12     9     8    1
    13     5     4   ar
    14     3     4   ar
    15     4     6    1
    16     8     6   am
    17     8    10    1
    18     6     7    2
    19    16    10   ar
    20    16    14   ar
    21    10    11   ar
    22    11    12   ar
    23    14    13   ar
    24    12    13   ar
    25    13    15    1

@<TRIPOS>MOLECULE
ZINC38111997_replica-1.pdb
 23 24 0 0 0
SMALL
GASTEIGER

@<TRIPOS>ATOM
      1  C5        11.2300   35.3540   61.0370 C.3     0  <0>0        0.0001
      2  C6        10.4400   36.4670   61.7290 C.3     0  <0>0        0.0017
      3  C7         9.7710   37.3490   60.6730 C.3     0  <0>0        0.0204
      4  C8         8.8210   36.5000   59.8250 C.3     0  <0>0        0.0813
      5  C9         9.6120   35.3870   59.1340 C.3     0  <0>0        0.0204
      6  C10       10.2810   34.5060   60.1900 C.3     0  <0>0        0.0017
      7  C11        7.7500   35.8810   60.7250 C.3     0  <0>0        0.1548
      8  O1         6.8990   36.9120   61.2290 O.3     0  <0>0       -0.3803
      9  H21        7.3540   37.7490   61.4010 H       0  <0>0        0.2105
     10  N1         8.1820   37.3460   58.8140 N.pl3   0  <0>0       -0.3332
     11  H22        8.1560   38.3080   58.9340 H       0  <0>0        0.1468
     12  C12        7.6100   36.7670   57.6770 C.ar    0  <0>0        0.0448
     13  C17        8.2790   36.8200   56.4600 C.ar    0  <0>0        0.0174
     14  C16        7.7160   36.2440   55.3380 C.ar    0  <0>0        0.0382
     15  C15        6.4790   35.6210   55.4240 C.ar    0  <0>0        0.1388
     16  C14        5.8090   35.5720   56.6370 C.ar    0  <0>0        0.0382
     17  C13        6.3730   36.1420   57.7610 C.ar    0  <0>0        0.0174
     18  O2         5.9240   35.0590   54.3180 O.3     0  <0>0       -0.4714
     19  C18        4.6050   34.5250   54.4530 C.3     0  <0>0        0.2525
     20  C2        11.8990   34.4710   62.0930 C.3     0  <0>0        0.0000
     21  C1        11.1140   33.1670   62.2390 C.3     0  <0>0        0.0000
     22  C3        11.9180   35.2070   63.4350 C.3     0  <0>0        0.0000
     23  C4        13.3330   34.1590   61.6610 C.3     0  <0>0        0.0000
@<TRIPOS>BOND
     1    18    19    1
     2    18    15    1
     3    14    15   ar
     4    14    13   ar
     5    15    16   ar
     6    13    12   ar
     7    16    17   ar
     8    12    17   ar
     9    12    10    1
    10    10    11    1
    11    10     4    1
    12     5     4    1
    13     5     6    1
    14     4     3    1
    15     4     7    1
    16     6     1    1
    17     3     2    1
    18     7     8    1
    19     1     2    1
    20     1    20    1
    21     8     9    1
    22    23    20    1
    23    20    21    1
    24    20    22    1

@<TRIPOS>MOLECULE
ZINC14551879_replica-1.pdb
 26 29 0 0 0
SMALL
GASTEIGER

@<TRIPOS>ATOM
      1  C8         8.9960   34.6640   60.1150 C.3     0  <0>0        0.0921
      2  C9         9.0120   34.0710   58.7210 C.3     0  <0>0        0.0263
      3  C10        8.7270   32.5720   58.5730 C.3     0  <0>0        0.0023
      4  C11        8.0990   32.5190   57.1780 C.3     0  <0>0        0.0004
      5  C12        7.5340   33.6860   56.8910 C.3     0  <0>0        0.0045
      6  C13        7.6990   34.5890   58.0560 C.3     0  <0>0        0.0272
      7  C14        7.8440   36.0550   57.9160 C.ar    0  <0>0        0.0153
      8  C15        7.2770   36.7410   56.8620 C.ar    0  <0>0        0.1402
      9  C16        7.4120   38.1130   56.7640 C.ar    0  <0>0        0.0261
     10  C17        8.1180   38.8020   57.7340 C.ar    0  <0>0        0.0326
     11  C18        8.6900   38.1240   58.7880 C.ar    0  <0>0        0.1529
     12  C19        8.5750   36.7340   58.8930 C.ar    0  <0>0        0.0702
     13  N1         9.2070   36.1130   59.9690 N.pl3   0  <0>0       -0.3290
     14  F1         9.3750   38.8080   59.7300 F       0  <0>0       -0.2029
     15  H17       10.1910   36.3380   59.9870 H       0  <0>0        0.1471
     16  C5        10.1040   34.0630   60.9410 C.ar    0  <0>0       -0.0045
     17  C4        11.2990   34.7430   61.0920 C.ar    0  <0>0       -0.0022
     18  C3        12.3170   34.1970   61.8470 C.ar    0  <0>0        0.0059
     19  C2        12.1390   32.9620   62.4590 C.ar    0  <0>0        0.0252
     20  C7        10.9360   32.2810   62.3070 C.ar    0  <0>0        0.0059
     21  C6         9.9210   32.8370   61.5530 C.ar    0  <0>0       -0.0022
     22  S1        13.4350   32.2600   63.4250 S.3     0  <0>0       -0.1127
     23  C1        12.9620   30.5160   63.5930 C.3     0  <0>0        0.0742
     24  N2         6.5190   36.0020   55.8270 N.pl3   0  <0>0        0.0574
     25  O1         7.0430   35.7430   54.7580 O.2     0  <0>0       -0.1261
     26  O2         5.3730   35.6540   56.0450 O.2     0  <0>0       -0.1261
@<TRIPOS>BOND
     1    25    24    2
     2    24    26    2
     3    24     8    1
     4     9     8   ar
     5     9    10   ar
     6     8     7   ar
     7     5     4    1
     8     5     6    1
     9     4     3    1
    10    10    11   ar
    11     7     6    1
    12     7    12   ar
    13     6     2    1
    14     3     2    1
    15     2     1    1
    16    11    12   ar
    17    11    14    1
    18    12    13    1
    19    13    15    1
    20    13     1    1
    21     1    16    1
    22    16    17   ar
    23    16    21   ar
    24    17    18   ar
    25    21    20   ar
    26    18    19   ar
    27    20    19   ar
    28    19    22    1
    29    22    23    1

@<TRIPOS>MOLECULE
ZINC03878905_replica-1.pdb
 27 29 0 0 0
SMALL
GASTEIGER

@<TRIPOS>ATOM
      1  C1         7.9690   38.6650   58.5780 C.3     0  <0>0        0.0630
      2  C2         8.5770   37.2930   58.7160 C.2     0  <0>0        0.1074
      3  C3         8.3260   36.3190   57.7680 C.3     0  <0>0        0.1211
      4  C4         8.9150   35.0630   57.9310 C.2     0  <0>0        0.1793
      5  N1         9.6870   34.8460   58.9890 N.2     0  <0>0       -0.3287
      6  C5         9.8990   35.8050   59.8790 C.1     0  <0>0        0.1381
      7  N2         9.3530   37.0070   59.7500 N.2     0  <0>0       -0.3482
      8  N3         8.6940   34.0570   57.0020 N.pl3   0  <0>0       -0.2905
      9  H9         9.0130   34.1600   56.0910 H       0  <0>0        0.1543
     10  C12        8.0130   32.8960   57.3780 C.ar    0  <0>0        0.0500
     11  C17        8.6440   31.9430   58.1680 C.ar    0  <0>0        0.0164
     12  C16        7.9680   30.7980   58.5380 C.ar    0  <0>0        0.0253
     13  C15        6.6640   30.5980   58.1230 C.ar    0  <0>0        0.1430
     14  C14        6.0320   31.5440   57.3370 C.ar    0  <0>0        0.0253
     15  C13        6.7010   32.6950   56.9680 C.ar    0  <0>0        0.0164
     16  N4         5.9420   29.3700   58.5230 N.pl3   0  <0>0        0.0577
     17  O1         6.5570   28.3330   58.7050 O.2     0  <0>0       -0.1261
     18  O2         4.7330   29.3940   58.6690 O.2     0  <0>0       -0.1261
     19  C18        7.4420   36.6080   56.5820 C.3     0  <0>0        0.0412
     20  C19        6.0050   36.3320   56.9460 C.2     0  <0>0       -0.0253
     21  C20        5.1410   36.0250   56.0120 C.2     0  <0>0       -0.0049
     22  C6        10.7680   35.5270   61.0490 C.ar    0  <0>0        0.0856
     23  C11       11.3510   34.2700   61.2030 C.ar    0  <0>0        0.0120
     24  C10       12.1580   34.0170   62.2930 C.ar    0  <0>0        0.0007
     25  C9        12.3890   35.0070   63.2320 C.ar    0  <0>0        0.0000
     26  C8        11.8130   36.2550   63.0830 C.ar    0  <0>0        0.0007
     27  C7        11.0080   36.5220   61.9950 C.ar    0  <0>0        0.0120
@<TRIPOS>BOND
     1    21    20    2
     2     9     8    1
     3    19    20    1
     4    19     3    1
     5    15    14   ar
     6    15    10   ar
     7     8    10    1
     8     8     4    1
     9    14    13   ar
    10    10    11   ar
    11     3     4    1
    12     3     2    1
    13     4     5    2
    14    13    16    1
    15    13    12   ar
    16    11    12   ar
    17    16    18    2
    18    16    17    2
    19     1     2    1
    20     2     7    2
    21     5     6    2
    22     7     6    2
    23     6    22    1
    24    22    23   ar
    25    22    27   ar
    26    23    24   ar
    27    27    26   ar
    28    24    25   ar
    29    26    25   ar

@<TRIPOS>MOLECULE
ZINC12193627_replica-1.pdb
 30 34 0 0 0
SMALL
GASTEIGER

@<TRIPOS>ATOM
      1  C10        0.3700   31.3000   56.2030 C.2     0  <0>0        0.0782
      2  N1         0.6740   32.5490   56.0580 N.2     0  <0>0       -0.1831
      3  N2         1.1890   33.1280   57.2030 N.pl3   0  <0>0       -0.1912
      4  C11        1.4620   32.0650   58.1960 C.3     0  <0>0        0.1262
      5  C12        0.7220   30.8550   57.6080 C.3     0  <0>0        0.0735
      6  C13        0.8480   32.5250   59.4930 C.ar    0  <0>0        0.0323
      7  C14        0.6490   31.6090   60.5090 C.ar    0  <0>0        0.0071
      8  C15        0.1260   32.0160   61.7220 C.ar    0  <0>0        0.0345
      9  C16       -0.1980   33.3460   61.9170 C.ar    0  <0>0        0.0098
     10  C17       -0.0080   34.2610   60.9030 C.ar    0  <0>0        0.0372
     11  C18        0.5090   33.8570   59.6730 C.ar    0  <0>0        0.1386
     12  O2         0.6260   34.8040   58.7050 O.3     0  <0>0       -0.4553
     13  C19        1.4090   34.5410   57.5350 C.3     0  <0>0        0.2834
     14 Br         -0.1450   30.7590   63.1080 Br      0  <0>0       -0.0490
     15  C7        -0.2270   30.4420   55.1630 C.ar    0  <0>0        0.0153
     16  C6         0.2910   29.1660   54.9270 C.ar    0  <0>0        0.0043
     17  C5        -0.2700   28.3660   53.9550 C.ar    0  <0>0        0.0370
     18  C4        -1.3500   28.8270   53.2110 C.ar    0  <0>0        0.1391
     19  C9        -1.8680   30.0940   53.4430 C.ar    0  <0>0        0.0370
     20  C8        -1.3150   30.8980   54.4170 C.ar    0  <0>0        0.0043
     21  O1        -1.9000   28.0340   52.2550 O.3     0  <0>0       -0.4707
     22  C3        -1.0000   27.3980   51.3440 C.3     0  <0>0        0.2318
     23  C2        -1.2760   25.9160   51.3190 C.2     0  <0>0        0.0207
     24  C1        -0.5480   25.1020   52.0420 C.2     0  <0>0       -0.0011
     25  C20        2.8680   34.7850   57.8220 C.ar    0  <0>0        0.0387
     26  C25        3.2380   35.7030   58.7870 C.ar    0  <0>0        0.0010
     27  C24        4.5770   35.9260   59.0510 C.ar    0  <0>0       -0.0002
     28  C23        5.5440   35.2330   58.3500 C.ar    0  <0>0       -0.0000
     29  C22        5.1750   34.3150   57.3850 C.ar    0  <0>0       -0.0002
     30  C21        3.8360   34.0870   57.1240 C.ar    0  <0>0        0.0010
@<TRIPOS>BOND
     1    23    22    1
     2    23    24    2
     3    22    21    1
     4    21    18    1
     5    18    19   ar
     6    18    17   ar
     7    19    20   ar
     8    17    16   ar
     9    20    15   ar
    10    16    15   ar
    11    15     1    1
    12     2     1    2
    13     2     3    1
    14     1     5    1
    15    30    29   ar
    16    30    25   ar
    17     3    13    1
    18     3     4    1
    19    29    28   ar
    20    13    25    1
    21    13    12    1
    22     5     4    1
    23    25    26   ar
    24     4     6    1
    25    28    27   ar
    26    12    11    1
    27    26    27   ar
    28     6    11   ar
    29     6     7   ar
    30    11    10   ar
    31     7     8   ar
    32    10     9   ar
    33     8     9   ar
    34     8    14    1

@<TRIPOS>MOLECULE
ZINC66128516_replica-1.pdb
 28 31 0 0 0
SMALL
GASTEIGER

@<TRIPOS>ATOM
      1  C5         6.3300   36.0370   58.2080 C.ar    0  <0>0        0.1375
      2  C6         5.6830   36.5930   59.3150 C.ar    0  <0>0        0.0367
      3  C7         6.3670   36.8770   60.4550 C.ar    0  <0>0        0.0031
      4  C8         7.7450   36.6080   60.5270 C.ar    0  <0>0       -0.0000
      5  C9         8.4820   36.8870   61.6900 C.ar    0  <0>0       -0.0000
      6  C10        9.8150   36.6140   61.7240 C.ar    0  <0>0       -0.0000
      7  C11       10.4630   36.0590   60.6220 C.ar    0  <0>0       -0.0000
      8  C12        9.7810   35.7750   59.4790 C.ar    0  <0>0       -0.0001
      9  C13        8.4030   36.0440   59.4050 C.ar    0  <0>0        0.0021
     10  C14        7.6660   35.7590   58.2440 C.ar    0  <0>0        0.0486
     11  C15        8.3480   35.1530   57.0440 C.3     0  <0>0        0.1759
     12  N2         7.3570   34.9070   55.9970 N.am    0  <0>0       -0.2562
     13  C22        6.6830   33.7440   55.9270 C.2     0  <0>0        0.2516
     14  C23        7.0880   35.9490   55.0020 C.3     0  <0>0        0.1170
     15  C21        7.0110   32.6660   56.8780 C.ar    0  <0>0        0.0667
     16  O2         5.8160   33.5840   55.0910 O.2     0  <0>0       -0.2698
     17  C16        8.1970   32.7710   57.6260 C.ar    0  <0>0        0.0503
     18  C20        6.1840   31.5590   57.0440 C.ar    0  <0>0        0.0058
     19  N1         8.9940   33.8950   57.4350 N.pl3   0  <0>0       -0.3150
     20  C17        8.5400   31.7720   58.5210 C.ar    0  <0>0        0.0145
     21  H17        9.9550   33.8470   57.5580 H       0  <0>0        0.1486
     22  C18        7.7120   30.6780   58.6740 C.ar    0  <0>0        0.0013
     23  C19        6.5400   30.5730   57.9410 C.ar    0  <0>0        0.0002
     24  O1         5.6200   35.7650   57.0810 O.3     0  <0>0       -0.4794
     25  C3         4.2010   35.9220   57.1560 C.3     0  <0>0        0.1660
     26  C4         3.6590   36.3300   55.7850 C.3     0  <0>0        0.0472
     27  C2         3.5640   34.5970   57.5820 C.3     0  <0>0        0.0435
     28  C1         2.4020   34.8740   58.5370 C.3     0  <0>0        0.0038
@<TRIPOS>BOND
     1    14    12    1
     2    16    13    2
     3    26    25    1
     4    13    12   am
     5    13    15    1
     6    12    11    1
     7    15    18   ar
     8    15    17   ar
     9    18    23   ar
    10    11    19    1
    11    11    10    1
    12    24    25    1
    13    24     1    1
    14    25    27    1
    15    19    21    1
    16    19    17    1
    17    27    28    1
    18    17    20   ar
    19    23    22   ar
    20     1    10   ar
    21     1     2   ar
    22    10     9   ar
    23    20    22   ar
    24     2     3   ar
    25     9     8   ar
    26     9     4   ar
    27     8     7   ar
    28     3     4   ar
    29     4     5   ar
    30     7     6   ar
    31     5     6   ar

@<TRIPOS>MOLECULE
ZINC39726224_replica-1.pdb
 30 34 0 0 0
SMALL
GASTEIGER

@<TRIPOS>ATOM
      1  C9         8.9190   34.0940   60.4500 C.2     0  <0>0        0.2204
      2  N1         9.7530   33.0840   61.1060 N.2     0  <0>0       -0.3810
      3  C10       10.8330   33.4260   61.7240 C.2     0  <0>0        0.1554
      4  C11       11.8840   32.6970   62.4740 C.3     0  <0>0        0.1292
      5  C12       12.0970   31.3690   62.7910 C.2     0  <0>0       -0.0123
      6  C13       13.2140   31.0070   63.5300 C.2     0  <0>0       -0.0037
      7  C14       14.1130   31.9720   63.9490 C.2     0  <0>0        0.0020
      8  C15       13.9160   33.3030   63.6390 C.2     0  <0>0        0.0283
      9  C16       12.7950   33.6900   62.8950 C.2     0  <0>0        0.1197
     10  N2        12.3740   34.9050   62.4650 N.2     0  <0>0       -0.3985
     11  C17       11.2600   34.8500   61.7860 C.2     0  <0>0        0.2108
     12  C18       10.4290   35.8800   61.1300 C.2     0  <0>0        0.2907
     13  O1        10.7580   37.0500   61.1680 O.2     0  <0>0       -0.2663
     14  N3         9.3030   35.5070   60.4880 N.am    0  <0>0       -0.1994
     15  S1         8.7740   33.6220   58.7050 S.3     0  <0>0       -0.0628
     16  C2         7.0010   33.3090   58.4800 C.3     0  <0>0        0.0777
     17  C1         6.2960   33.3710   59.8360 C.3     0  <0>0        0.0169
     18  C3         6.4190   34.3530   57.5630 C.ar    0  <0>0       -0.0120
     19  C8         7.1050   34.7340   56.4260 C.ar    0  <0>0       -0.0034
     20  C7         6.5690   35.6890   55.5820 C.ar    0  <0>0       -0.0003
     21  C6         5.3500   36.2700   55.8800 C.ar    0  <0>0       -0.0000
     22  C5         4.6670   35.8930   57.0210 C.ar    0  <0>0       -0.0003
     23  C4         5.2010   34.9350   57.8630 C.ar    0  <0>0       -0.0034
     24  C19        8.5040   36.4680   59.8600 C.ar    0  <0>0        0.0886
     25  C24        7.2910   36.8430   60.4250 C.ar    0  <0>0        0.1541
     26  C23        6.5070   37.7990   59.8040 C.ar    0  <0>0        0.0309
     27  F1         6.8810   36.2820   61.5840 F       0  <0>0       -0.2028
     28  C22        6.9230   38.3690   58.6150 C.ar    0  <0>0        0.0024
     29  C21        8.1260   37.9930   58.0470 C.ar    0  <0>0        0.0014
     30  C20        8.9160   37.0440   58.6650 C.ar    0  <0>0        0.0176
@<TRIPOS>BOND
     1    20    21   ar
     2    20    19   ar
     3    21    22   ar
     4    19    18   ar
     5    22    23   ar
     6    18    23   ar
     7    18    16    1
     8    29    28   ar
     9    29    30   ar
    10    16    15    1
    11    16    17    1
    12    28    26   ar
    13    30    24   ar
    14    15     1    1
    15    26    25   ar
    16    24    25   ar
    17    24    14    1
    18    25    27    1
    19     1    14    1
    20     1     2    2
    21    14    12   am
    22     2     3    2
    23    12    13    2
    24    12    11    1
    25     3    11    1
    26     3     4    1
    27    11    10    2
    28    10     9    2
    29     4     5    1
    30     4     9    1
    31     5     6    2
    32     9     8    1
    33     6     7    1
    34     8     7    2

@<TRIPOS>MOLECULE
ZINC01253074_replica-1.pdb
 24 27 0 0 0
SMALL
GASTEIGER

@<TRIPOS>ATOM
      1  C8        -0.1750   28.8970   54.8140 C.2     0  <0>0        0.2230
      2  N1        -0.1520   30.1660   54.4170 N.2     0  <0>0       -0.2101
      3  C9         0.0210   30.9020   55.6280 C.3     0  <0>0        0.2604
      4  C10       -0.7800   29.9510   56.6280 C.3     0  <0>0        0.2668
      5  O1        -0.0790   28.7890   56.1900 O.2     0  <0>0       -0.4482
      6  S1        -0.1280   30.8400   58.0860 S.3     0  <0>0       -0.0339
      7  C11       -0.1580   32.4750   57.3330 C.2     0  <0>0        0.1601
      8  N2        -0.1580   32.2420   56.0160 N.2     0  <0>0       -0.2232
      9  N3        -0.1780   33.6960   57.9710 N.pl3   0  <0>0       -0.2931
     10  H10       -1.0240   34.1020   58.2170 H       0  <0>0        0.1541
     11  C12        1.0230   34.3490   58.2660 C.ar    0  <0>0        0.0497
     12  C17        1.4080   35.4640   57.5310 C.ar    0  <0>0        0.0143
     13  C16        2.5940   36.1070   57.8240 C.ar    0  <0>0       -0.0030
     14  C15        3.3990   35.6430   58.8490 C.ar    0  <0>0       -0.0218
     15  C14        3.0200   34.5340   59.5820 C.ar    0  <0>0       -0.0030
     16  C18        4.6940   36.3470   59.1660 C.3     0  <0>0        0.0310
     17  C13        1.8310   33.8900   59.2980 C.ar    0  <0>0        0.0143
     18  C5        -0.2920   27.7410   53.8960 C.ar    0  <0>0        0.0529
     19  C4         0.2760   26.5140   54.2400 C.ar    0  <0>0        0.0043
     20  C3         0.1640   25.4400   53.3800 C.ar    0  <0>0       -0.0041
     21  C2        -0.5090   25.5790   52.1800 C.ar    0  <0>0       -0.0218
     22  C1        -0.6270   24.4030   51.2460 C.3     0  <0>0        0.0310
     23  C7        -1.0730   26.7940   51.8320 C.ar    0  <0>0       -0.0041
     24  C6        -0.9730   27.8730   52.6870 C.ar    0  <0>0        0.0043
@<TRIPOS>BOND
     1    22    21    1
     2    23    21   ar
     3    23    24   ar
     4    21    20   ar
     5    24    18   ar
     6    20    19   ar
     7    18    19   ar
     8    18     1    1
     9     2     1    2
    10     2     3    1
    11     1     5    1
    12     3     8    1
    13     3     4    1
    14     8     7    2
    15     5     4    1
    16     4     6    1
    17     7     9    1
    18     7     6    1
    19    12    13   ar
    20    12    11   ar
    21    13    14   ar
    22     9    10    1
    23     9    11    1
    24    11    17   ar
    25    14    16    1
    26    14    15   ar
    27    17    15   ar

@<TRIPOS>MOLECULE
ZINC13125347_replica-1.pdb
 25 28 0 0 0
SMALL
GASTEIGER

@<TRIPOS>ATOM
      1  N1        -1.1970   30.2700   56.5960 N.pl3   0  <0>0       -0.2712
      2  C9        -1.7440   29.2160   57.3030 C.3     0  <0>0        0.1501
      3  C10       -2.6960   28.2500   57.0090 C.2     0  <0>0        0.0005
      4  C11       -3.0300   27.3080   57.9600 C.2     0  <0>0       -0.0024
      5  C12       -2.4210   27.3210   59.2070 C.2     0  <0>0        0.0021
      6  C13       -1.4820   28.2640   59.5140 C.2     0  <0>0        0.0296
      7  C14       -1.1260   29.2290   58.5660 C.2     0  <0>0        0.1328
      8  N2        -0.2520   30.2650   58.5740 N.2     0  <0>0       -0.3892
      9  C15       -0.2850   30.8790   57.4160 C.2     0  <0>0        0.1850
     10  C8        -1.5280   30.6610   55.2230 C.3     0  <0>0        0.1202
     11  C7        -1.2050   29.5250   54.2860 C.ar    0  <0>0       -0.0063
     12  C2        -1.9260   29.3670   53.1170 C.ar    0  <0>0       -0.0242
     13  C1        -3.0340   30.3310   52.7790 C.3     0  <0>0        0.0308
     14  C3        -1.6250   28.3290   52.2550 C.ar    0  <0>0       -0.0045
     15  C4        -0.6080   27.4450   52.5650 C.ar    0  <0>0       -0.0003
     16  C5         0.1090   27.6010   53.7370 C.ar    0  <0>0       -0.0003
     17  C6        -0.1910   28.6390   54.5990 C.ar    0  <0>0       -0.0029
     18  C16        0.5360   32.0520   57.0520 C.ar    0  <0>0        0.0611
     19  C20        1.5550   31.9270   56.1340 C.ar    0  <0>0        0.0786
     20  N3         2.3040   32.9960   55.7930 N.ar    0  <0>0       -0.3198
     21  C19        2.0820   34.2020   56.3480 C.ar    0  <0>0        0.2578
     22  H1         3.0170   32.8940   55.1440 H       0  <0>0        0.1690
     23  C18        1.0550   34.3750   57.2930 C.ar    0  <0>0        0.0607
     24  O1         2.7760   35.1530   56.0270 O.2     0  <0>0       -0.2672
     25  C17        0.2830   33.3100   57.6470 C.ar    0  <0>0        0.0102
@<TRIPOS>BOND
     1    14    15   ar
     2    14    12   ar
     3    15    16   ar
     4    13    12    1
     5    12    11   ar
     6    16    17   ar
     7    11    17   ar
     8    11    10    1
     9    22    20    1
    10    10     1    1
    11    20    19   ar
    12    20    21   ar
    13    24    21    2
    14    19    18   ar
    15    21    23   ar
    16     1     2    1
    17     1     9    1
    18     3     2    1
    19     3     4    2
    20    18     9    1
    21    18    25   ar
    22    23    25   ar
    23     2     7    1
    24     9     8    2
    25     4     5    1
    26     7     8    2
    27     7     6    1
    28     5     6    2

@<TRIPOS>MOLECULE
ZINC11114863_replica-1.pdb
 27 29 0 0 0
SMALL
GASTEIGER

@<TRIPOS>ATOM
      1  C10        0.6670   31.1400   55.9260 C.2     0  <0>0        0.2429
      2  O1        -0.1610   31.8400   55.3830 O.2     0  <0>0       -0.2732
      3  N2         1.8210   31.6790   56.3670 N.am    0  <0>0       -0.2968
      4  H14        2.4830   31.1200   56.8010 H       0  <0>0        0.1500
      5  C11        2.0760   33.1110   56.1890 C.3     0  <0>0        0.1230
      6  C12        3.5420   33.3310   55.9180 C.ar    0  <0>0        0.0002
      7  C17        3.9370   34.1370   54.8680 C.ar    0  <0>0       -0.0023
      8  C16        5.2830   34.3380   54.6190 C.ar    0  <0>0       -0.0003
      9  C15        6.2320   33.7340   55.4220 C.ar    0  <0>0       -0.0000
     10  C14        5.8360   32.9290   56.4740 C.ar    0  <0>0       -0.0003
     11  C13        4.4910   32.7300   56.7240 C.ar    0  <0>0       -0.0023
     12  C18        1.6800   33.8500   57.4410 C.ar    0  <0>0        0.0292
     13  S1         0.7360   33.2670   58.8390 S.2     0  <0>0       -0.0888
     14  C21        0.7640   34.7690   59.8050 C.ar    0  <0>0        0.0352
     15  C20        1.4790   35.6020   59.0090 C.ar    0  <0>0        0.0072
     16  C19        1.9530   35.1290   57.7990 C.ar    0  <0>0        0.0046
     17  C9         0.4050   29.6670   56.1090 C.3     0  <0>0        0.1736
     18  N1        -0.7530   29.2740   55.3020 N.pl3   0  <0>0       -0.3255
     19  H11       -1.6030   29.7260   55.4210 H       0  <0>0        0.1472
     20  C6        -0.6330   28.2470   54.3620 C.ar    0  <0>0        0.0406
     21  C5         0.1040   27.1090   54.6650 C.ar    0  <0>0        0.0140
     22  C4         0.2200   26.0960   53.7340 C.ar    0  <0>0        0.0009
     23  C3        -0.3970   26.2140   52.5010 C.ar    0  <0>0       -0.0045
     24  C2        -1.1310   27.3460   52.1970 C.ar    0  <0>0       -0.0246
     25  C1        -1.8000   27.4690   50.8530 C.3     0  <0>0        0.0307
     26  C7        -1.2560   28.3600   53.1260 C.ar    0  <0>0       -0.0127
     27  C8        -2.0610   29.5900   52.7960 C.3     0  <0>0        0.0320
@<TRIPOS>BOND
     1    25    24    1
     2    24    23   ar
     3    24    26   ar
     4    23    22   ar
     5    27    26    1
     6    26    20   ar
     7    22    21   ar
     8    20    21   ar
     9    20    18    1
    10     8     7   ar
    11     8     9   ar
    12     7     6   ar
    13    18    19    1
    14    18    17    1
    15     2     1    2
    16     9    10   ar
    17     6     5    1
    18     6    11   ar
    19     1    17    1
    20     1     3   am
    21     5     3    1
    22     5    12    1
    23     3     4    1
    24    10    11   ar
    25    12    16   ar
    26    12    13   ar
    27    16    15   ar
    28    13    14   ar
    29    15    14   ar

@<TRIPOS>MOLECULE
ZINC19762614_replica-1.pdb
 28 31 0 0 0
SMALL
GASTEIGER

@<TRIPOS>ATOM
      1  C1         2.2800   29.5380   60.7610 C.3     0  <0>0        0.0475
      2  C2         1.4900   29.9470   59.5440 C.2     0  <0>0        0.0317
      3  C3         0.6930   31.0250   59.5970 C.2     0  <0>0        0.0634
      4  C4        -0.1040   31.4660   58.4040 C.3     0  <0>0        0.0826
      5  C5        -0.2150   30.3570   57.3880 C.2     0  <0>0        0.0304
      6  C6         0.6220   29.2990   57.4260 C.2     0  <0>0        0.0248
      7  N1         1.5930   29.2160   58.3880 N.pl3   0  <0>0       -0.3190
      8  C7         0.5120   28.1830   56.4160 C.3     0  <0>0        0.0457
      9  C8        -0.0100   28.7410   55.0900 C.3     0  <0>0        0.0356
     10  C9        -1.3700   29.4020   55.3430 C.3     0  <0>0        0.0736
     11  C10       -1.2110   30.4590   56.4010 C.2     0  <0>0        0.1710
     12  O1        -1.9570   31.4180   56.4030 O.2     0  <0>0       -0.2916
     13  C22        0.6020   31.7710   60.8160 C.1     0  <0>0        0.0976
     14  N3         0.5300   32.3620   61.7840 N.1     0  <0>0       -0.1911
     15  H6         2.3580   28.6360   58.2540 H       0  <0>0        0.1516
     16  C17        0.5740   32.6520   57.7680 C.ar    0  <0>0        0.0057
     17  C21        0.0590   33.9240   57.9310 C.ar    0  <0>0        0.0952
     18  N2         0.6500   34.9670   57.3830 N.ar    0  <0>0       -0.2426
     19  C20        1.7410   34.8410   56.6520 C.ar    0  <0>0        0.0989
     20  C19        2.3100   33.6000   56.4410 C.ar    0  <0>0        0.0204
     21  C18        1.7210   32.4810   57.0070 C.ar    0  <0>0       -0.0005
     22  C11       -0.1650   27.6210   54.0950 C.ar    0  <0>0       -0.0216
     23  C16       -0.8540   27.8340   52.9160 C.ar    0  <0>0       -0.0034
     24  C15       -0.9900   26.8090   51.9990 C.ar    0  <0>0        0.0111
     25  C14       -0.4480   25.5640   52.2670 C.ar    0  <0>0        0.0577
     26  C13        0.2350   25.3490   53.4510 C.ar    0  <0>0        0.0111
     27 Cl         -0.6260   24.2740   51.1200 Cl      0  <0>0       -0.0822
     28  C12        0.3770   26.3770   54.3640 C.ar    0  <0>0       -0.0034
@<TRIPOS>BOND
     1    27    25    1
     2    24    25   ar
     3    24    23   ar
     4    25    26   ar
     5    23    22   ar
     6    26    28   ar
     7    22    28   ar
     8    22     9    1
     9     9    10    1
    10     9     8    1
    11    10    11    1
    12    11    12    2
    13    11     5    1
    14     8     6    1
    15    20    19   ar
    16    20    21   ar
    17    19    18   ar
    18    21    16   ar
    19    18    17   ar
    20     5     6    2
    21     5     4    1
    22     6     7    1
    23    16    17   ar
    24    16     4    1
    25    15     7    1
    26     7     2    1
    27     4     3    1
    28     2     3    2
    29     2     1    1
    30     3    13    1
    31    13    14    3

@<TRIPOS>MOLECULE
ZINC08780594_replica-1.pdb
 29 32 0 0 0
SMALL
GASTEIGER

@<TRIPOS>ATOM
      1  C1         7.3640   36.8130   55.0440 C.3     0  <0>0        0.0626
      2  C2         7.2440   35.7190   56.0740 C.2     0  <0>0        0.1004
      3  C3         6.4070   34.6930   55.8600 C.3     0  <0>0        0.1438
      4  C4         6.2590   33.5860   56.8610 C.3     0  <0>0        0.0561
      5  C5         7.4100   33.5760   57.8360 C.3     0  <0>0        0.1109
      6  C6         8.2110   34.6550   57.9680 C.2     0  <0>0        0.0931
      7  N1         7.9890   35.7810   57.2230 N.2     0  <0>0       -0.4176
      8  C7         9.3680   34.6500   58.9370 C.3     0  <0>0        0.0596
      9  C8         9.0370   33.7490   60.1280 C.3     0  <0>0        0.0363
     10  C9         8.7410   32.3390   59.6040 C.3     0  <0>0        0.0697
     11  C10        7.6230   32.4160   58.5990 C.2     0  <0>0        0.1572
     12  O1         6.8930   31.4570   58.4450 O.2     0  <0>0       -0.2956
     13  C24        5.6440   34.6490   54.6490 C.1     0  <0>0        0.0793
     14  N2         5.0380   34.6140   53.6880 N.1     0  <0>0       -0.1955
     15  C18        4.9720   33.7840   57.6190 C.ar    0  <0>0       -0.0202
     16  C23        4.8460   34.8390   58.5040 C.ar    0  <0>0       -0.0037
     17  C22        3.6650   35.0210   59.1990 C.ar    0  <0>0        0.0064
     18  C21        2.6080   34.1490   59.0080 C.ar    0  <0>0        0.0345
     19  C20        2.7350   33.0930   58.1220 C.ar    0  <0>0        0.0064
     20 Br          0.9930   34.3970   59.9580 Br      0  <0>0       -0.0490
     21  C19        3.9140   32.9150   57.4240 C.ar    0  <0>0       -0.0037
     22  C11       10.2120   33.7020   61.0700 C.ar    0  <0>0       -0.0215
     23  C16       11.0690   34.7840   61.1580 C.ar    0  <0>0       -0.0011
     24  C15       12.1470   34.7440   62.0210 C.ar    0  <0>0        0.0366
     25  C14       12.3690   33.6170   62.8000 C.ar    0  <0>0        0.1387
     26  C13       11.5070   32.5330   62.7100 C.ar    0  <0>0        0.0366
     27  C12       10.4270   32.5810   61.8500 C.ar    0  <0>0       -0.0011
     28  O2        13.4290   33.5750   63.6490 O.3     0  <0>0       -0.4714
     29  C17       14.3150   32.4610   63.5260 C.3     0  <0>0        0.2525
@<TRIPOS>BOND
     1    14    13    3
     2    13     3    1
     3     1     2    1
     4     3     2    1
     5     3     4    1
     6     2     7    2
     7     4    15    1
     8     4     5    1
     9     7     6    2
    10    21    15   ar
    11    21    19   ar
    12    15    16   ar
    13     5     6    1
    14     5    11    1
    15     6     8    1
    16    19    18   ar
    17    12    11    2
    18    16    17   ar
    19    11    10    1
    20     8     9    1
    21    18    17   ar
    22    18    20    1
    23    10     9    1
    24     9    22    1
    25    22    23   ar
    26    22    27   ar
    27    23    24   ar
    28    27    26   ar
    29    24    25   ar
    30    26    25   ar
    31    25    28    1
    32    29    28    1

@<TRIPOS>MOLECULE
ZINC32655145_replica-1.pdb
 34 38 0 0 0
SMALL
GASTEIGER

@<TRIPOS>ATOM
      1  C8         2.0800   33.0560   58.9830 C.3     0  <0>0        0.0649
      2  C9         1.3430   32.4400   57.8320 C.3     0  <0>0        0.1516
      3  C10        0.4370   33.2040   57.0850 C.2     0  <0>0        0.2365
      4  O1         0.2380   34.3770   57.3570 O.2     0  <0>0       -0.2742
      5  N1        -0.2130   32.6180   56.0560 N.am    0  <0>0       -0.2540
      6  H2        -0.9270   33.1980   55.4540 H       0  <0>0        0.1577
      7  C11        0.0150   31.3080   55.7630 C.2     0  <0>0        0.2145
      8  N2         0.8660   30.5850   56.4630 N.2     0  <0>0       -0.3697
      9  C12        1.5400   31.1150   57.4890 C.2     0  <0>0        0.1714
     10  N3         2.4320   30.3490   58.2130 N.pl3   0  <0>0       -0.2946
     11  C13        3.3950   30.9410   58.9850 C.2     0  <0>0        0.0260
     12  C14        3.2790   32.2280   59.3710 C.2     0  <0>0        0.0265
     13  C15        4.2760   32.8420   60.1500 C.2     0  <0>0        0.1703
     14  O2         4.1360   34.0000   60.4920 O.2     0  <0>0       -0.2916
     15  C16        5.5110   32.0950   60.5700 C.3     0  <0>0        0.0693
     16  C17        5.8200   31.0160   59.5270 C.3     0  <0>0        0.0141
     17  C18        4.5920   30.1130   59.3870 C.3     0  <0>0        0.0414
     18  H10        2.3730   29.2520   58.1720 H       0  <0>0        0.1540
     19  S1        -0.8470   30.5620   54.4190 S.3     0  <0>0       -0.0620
     20  C19       -0.4940   28.8170   54.7490 C.3     0  <0>0        0.0930
     21  C20       -0.7730   28.0060   53.5090 C.ar    0  <0>0       -0.0003
     22  C25       -0.2950   26.7110   53.4080 C.ar    0  <0>0        0.0545
     23  C24       -0.5520   25.9670   52.2700 C.ar    0  <0>0        0.0111
     24 Cl          0.6270   26.0220   54.7080 Cl      0  <0>0       -0.0825
     25  C23       -1.2860   26.5160   51.2360 C.ar    0  <0>0        0.0008
     26  C22       -1.7650   27.8100   51.3390 C.ar    0  <0>0       -0.0002
     27  C21       -1.5120   28.5520   52.4770 C.ar    0  <0>0       -0.0026
     28  C6         1.1500   33.1620   60.1650 C.ar    0  <0>0       -0.0177
     29  C5         0.6000   34.3850   60.5020 C.ar    0  <0>0       -0.0040
     30  C4        -0.2530   34.4830   61.5860 C.ar    0  <0>0       -0.0006
     31  C3        -0.5580   33.3590   62.3300 C.ar    0  <0>0       -0.0043
     32  C2        -0.0020   32.1370   61.9950 C.ar    0  <0>0       -0.0222
     33  C1        -0.3310   30.9120   62.8090 C.3     0  <0>0        0.0310
     34  C7         0.8500   32.0390   60.9120 C.ar    0  <0>0       -0.0082
@<TRIPOS>BOND
     1    25    26   ar
     2    25    23   ar
     3    26    27   ar
     4    23    22   ar
     5    27    21   ar
     6    22    21   ar
     7    22    24    1
     8    21    20    1
     9    19    20    1
    10    19     7    1
    11     6     5    1
    12     7     5    1
    13     7     8    2
    14     5     3   am
    15     8     9    2
    16     3     4    2
    17     3     2    1
    18     9     2    1
    19     9    10    1
    20     2     1    1
    21    18    10    1
    22    10    11    1
    23     1    12    1
    24     1    28    1
    25    11    12    2
    26    11    17    1
    27    12    13    1
    28    17    16    1
    29    16    15    1
    30    13    14    2
    31    13    15    1
    32    28    29   ar
    33    28    34   ar
    34    29    30   ar
    35    34    32   ar
    36    30    31   ar
    37    32    31   ar
    38    32    33    1

@<TRIPOS>MOLECULE
ZINC43955018_replica-1.pdb
 26 28 0 0 0
SMALL
GASTEIGER

@<TRIPOS>ATOM
      1  N1        -1.2700   29.1880   54.3020 N.pl3   0  <0>0       -0.3058
      2  C7        -0.4720   30.4190   54.2360 C.3     0  <0>0        0.0909
      3  C8         0.3140   30.5670   55.5430 C.3     0  <0>0        0.0229
      4  C9        -0.6550   30.5080   56.7260 C.3     0  <0>0        0.0209
      5  C10       -1.3650   29.1530   56.7400 C.3     0  <0>0        0.0229
      6  C11       -2.1740   28.9920   55.4440 C.3     0  <0>0        0.0909
      7  C12        0.1220   30.6910   58.0310 C.3     0  <0>0        0.0915
      8  N2         1.3250   31.4880   57.7760 N.3     0  <0>0       -0.1794
      9  H16        2.0720   31.0980   57.2960 H       0  <0>0        0.1488
     10  S1         1.4090   33.0540   58.3090 S.O2    0  <0>0        0.0607
     11  O1         0.0940   33.5860   58.2160 O.2     0  <0>0       -0.1530
     12  O2         2.1370   33.0290   59.5280 O.2     0  <0>0       -0.1530
     13  C13        2.3960   33.9450   57.1520 C.ar    0  <0>0        0.1281
     14  C18        2.6530   35.2890   57.3540 C.ar    0  <0>0        0.0531
     15  C17        3.4310   35.9880   56.4490 C.ar    0  <0>0        0.0080
     16 Br          1.9460   36.1700   58.8710 Br      0  <0>0       -0.0476
     17  C16        3.9430   35.3450   55.3380 C.ar    0  <0>0        0.0006
     18  C15        3.6820   34.0030   55.1340 C.ar    0  <0>0        0.0014
     19  C14        2.9080   33.3030   56.0410 C.ar    0  <0>0        0.0204
     20  C5        -1.1770   28.2240   53.2930 C.ar    0  <0>0        0.0757
     21  C4        -1.8270   28.4190   52.0800 C.ar    0  <0>0        0.1533
     22  C3        -1.7310   27.4630   51.0850 C.ar    0  <0>0        0.0309
     23  F1        -2.5510   29.5410   51.8730 F       0  <0>0       -0.2029
     24  C2        -0.9890   26.3160   51.2970 C.ar    0  <0>0        0.0024
     25  C1        -0.3420   26.1190   52.5020 C.ar    0  <0>0        0.0014
     26  C6        -0.4340   27.0690   53.5000 C.ar    0  <0>0        0.0168
@<TRIPOS>BOND
     1    22    24   ar
     2    22    21   ar
     3    24    25   ar
     4    23    21    1
     5    21    20   ar
     6    25    26   ar
     7    20    26   ar
     8    20     1    1
     9     2     1    1
    10     2     3    1
    11     1     6    1
    12    18    17   ar
    13    18    19   ar
    14    17    15   ar
    15     6     5    1
    16     3     4    1
    17    19    13   ar
    18    15    14   ar
    19     4     5    1
    20     4     7    1
    21    13    14   ar
    22    13    10    1
    23     9     8    1
    24    14    16    1
    25     8     7    1
    26     8    10    1
    27    11    10    2
    28    10    12    2

@<TRIPOS>MOLECULE
ZINC04914544_replica-1.pdb
 29 32 0 0 0
SMALL
GASTEIGER

@<TRIPOS>ATOM
      1  C9         7.0600   35.4110   56.3580 C.3     0  <0>0        0.0573
      2  C10        7.5290   36.5490   55.4500 C.3     0  <0>0        0.0942
      3  C11        7.6450   37.8130   56.2630 C.2     0  <0>0        0.2265
      4  O2         7.4000   38.8840   55.7520 O.2     0  <0>0       -0.2748
      5  N1         8.0210   37.7540   57.5520 N.am    0  <0>0       -0.2875
      6  C12        8.3290   36.5590   58.1490 C.2     0  <0>0        0.0268
      7  C13        7.8960   35.3960   57.6160 C.2     0  <0>0        0.0261
      8  C14        8.2070   34.1610   58.2080 C.2     0  <0>0        0.1706
      9  O3         7.7910   33.1360   57.7040 O.2     0  <0>0       -0.2916
     10  C15        9.0480   34.0860   59.4530 C.3     0  <0>0        0.0736
     11  C16        9.9920   35.2930   59.4890 C.3     0  <0>0        0.0356
     12  C17        9.1550   36.5700   59.4110 C.3     0  <0>0        0.0458
     13  H14        8.0780   38.5740   58.0690 H       0  <0>0        0.1545
     14  C6         5.6110   35.6190   56.7190 C.ar    0  <0>0       -0.0176
     15  C5         4.6900   35.9140   55.7310 C.ar    0  <0>0       -0.0008
     16  C4         3.3630   36.1060   56.0580 C.ar    0  <0>0        0.0366
     17  C3         2.9530   36.0000   57.3800 C.ar    0  <0>0        0.1385
     18  C8         3.8800   35.7040   58.3690 C.ar    0  <0>0        0.0366
     19  C7         5.2050   35.5070   58.0360 C.ar    0  <0>0       -0.0008
     20  O1         1.6470   36.1880   57.7050 O.3     0  <0>0       -0.4755
     21  C2         0.6860   35.3700   57.0330 C.3     0  <0>0        0.2055
     22  C1         0.3230   34.1780   57.9200 C.3     0  <0>0        0.0512
     23  C18       10.7800   35.2800   60.7740 C.ar    0  <0>0       -0.0216
     24  C23       10.7860   36.3960   61.5910 C.ar    0  <0>0       -0.0019
     25  C22       11.5080   36.3850   62.7690 C.ar    0  <0>0        0.0293
     26  C21       12.2240   35.2570   63.1330 C.ar    0  <0>0        0.1401
     27  C20       12.2170   34.1410   62.3140 C.ar    0  <0>0        0.0293
     28  F1        12.9290   35.2450   64.2850 F       0  <0>0       -0.2042
     29  C19       11.4900   34.1510   61.1380 C.ar    0  <0>0       -0.0019
@<TRIPOS>BOND
     1     2     3    1
     2     2     1    1
     3    15    16   ar
     4    15    14   ar
     5     4     3    2
     6    16    17   ar
     7     3     5   am
     8     1    14    1
     9     1     7    1
    10    14    19   ar
    11    21    20    1
    12    21    22    1
    13    17    20    1
    14    17    18   ar
    15     5    13    1
    16     5     6    1
    17     7     6    2
    18     7     8    1
    19     9     8    2
    20    19    18   ar
    21     6    12    1
    22     8    10    1
    23    12    11    1
    24    10    11    1
    25    11    23    1
    26    23    29   ar
    27    23    24   ar
    28    29    27   ar
    29    24    25   ar
    30    27    26   ar
    31    25    26   ar
    32    26    28    1

@<TRIPOS>MOLECULE
CHEMBL392127_replica-1.pdb
 28 32 0 0 0
SMALL
GASTEIGER

@<TRIPOS>ATOM
      1  C8         5.0840   31.7830   58.7430 C.2     0  <0>0        0.2491
      2  O1         4.9820   30.9410   57.8720 O.2     0  <0>0       -0.2699
      3  N1         6.3040   32.1440   59.1910 N.am    0  <0>0       -0.2732
      4  C9         6.4470   33.0890   60.3100 C.3     0  <0>0        0.1111
      5  C10        7.4130   34.2000   59.8860 C.3     0  <0>0        0.0944
      6  N2         8.6680   33.6010   59.4150 N.3     0  <0>0       -0.2638
      7  C11        8.4480   32.7770   58.2200 C.3     0  <0>0        0.0944
      8  C12        7.5250   31.6010   58.5780 C.3     0  <0>0        0.1111
      9  C13        9.6820   34.6340   59.1620 C.3     0  <0>0        0.1031
     10  C21       10.4450   34.9340   60.4300 C.ar    0  <0>0       -0.0036
     11  C20       10.2410   36.2770   60.7330 C.ar    0  <0>0       -0.0026
     12  C22       11.2330   34.1480   61.2440 C.ar    0  <0>0       -0.0026
     13  C19        9.3620   36.8880   59.7070 C.ar    0  <0>0       -0.0026
     14  C25       10.8420   36.8200   61.8710 C.ar    0  <0>0       -0.0003
     15  C14        9.0180   35.9280   58.7600 C.ar    0  <0>0       -0.0036
     16  C18        8.8750   38.1890   59.5700 C.ar    0  <0>0       -0.0003
     17  C15        8.2010   36.2580   57.6990 C.ar    0  <0>0       -0.0026
     18  C16        7.7220   37.5490   57.5690 C.ar    0  <0>0       -0.0003
     19  C17        8.0590   38.5110   58.5050 C.ar    0  <0>0       -0.0000
     20  C24       11.6290   36.0270   62.6800 C.ar    0  <0>0       -0.0000
     21  C23       11.8250   34.6930   62.3690 C.ar    0  <0>0       -0.0003
     22  C5         3.8720   32.4090   59.3120 C.ar    0  <0>0        0.0536
     23  C4         3.2000   31.7990   60.3720 C.ar    0  <0>0        0.0042
     24  C3         2.0690   32.3880   60.8990 C.ar    0  <0>0       -0.0041
     25  C2         1.6010   33.5820   60.3770 C.ar    0  <0>0       -0.0218
     26  C1         0.3660   34.2210   60.9580 C.3     0  <0>0        0.0310
     27  C7         2.2600   34.1890   59.3230 C.ar    0  <0>0       -0.0041
     28  C6         3.3950   33.6120   58.7920 C.ar    0  <0>0        0.0042
@<TRIPOS>BOND
     1    18    17   ar
     2    18    19   ar
     3    17    15   ar
     4     2     1    2
     5     7     8    1
     6     7     6    1
     7    19    16   ar
     8     8     3    1
     9     1     3   am
    10     1    22    1
    11    15     9    1
    12    15    13   ar
    13    28    22   ar
    14    28    27   ar
    15     9     6    1
    16     9    10    1
    17     3     4    1
    18    22    23   ar
    19    27    25   ar
    20     6     5    1
    21    16    13   ar
    22    13    11    1
    23     5     4    1
    24    23    24   ar
    25    25    24   ar
    26    25    26    1
    27    10    11   ar
    28    10    12   ar
    29    11    14   ar
    30    12    21   ar
    31    14    20   ar
    32    21    20   ar

@<TRIPOS>MOLECULE
ZINC04838456_replica-1.pdb
 28 30 0 0 0
SMALL
GASTEIGER

@<TRIPOS>ATOM
      1  C8         6.8940   35.1410   56.3390 C.ar    0  <0>0        0.1865
      2  N2         6.5390   34.0520   55.6860 N.ar    0  <0>0       -0.1249
      3  N3         5.2250   33.6440   55.6970 N.ar    0  <0>0       -0.1331
      4  C9         4.3230   34.3520   56.3500 C.ar    0  <0>0        0.1611
      5  S1         5.3270   35.6690   57.0170 S.2     0  <0>0       -0.0242
      6  S2         2.5930   34.0700   56.5220 S.3     0  <0>0       -0.0768
      7  C10        2.4630   32.2780   56.7690 C.3     0  <0>0        0.1489
      8  C11        1.0660   31.8230   56.4330 C.2     0  <0>0        0.2341
      9  O1         0.2590   31.6400   57.3190 O.2     0  <0>0       -0.2741
     10  N4         0.7140   31.6210   55.1480 N.am    0  <0>0       -0.2997
     11  H11        1.3600   31.7690   54.4390 H       0  <0>0        0.1498
     12  C12       -0.6450   31.1800   54.8220 C.3     0  <0>0        0.1163
     13  C13       -0.5920   29.8030   54.2090 C.ar    0  <0>0       -0.0025
     14  C18        0.3530   28.8910   54.6410 C.ar    0  <0>0       -0.0018
     15  C17        0.4020   27.6290   54.0800 C.ar    0  <0>0        0.0111
     16  C16       -0.4940   27.2790   53.0860 C.ar    0  <0>0        0.0577
     17  C15       -1.4390   28.1920   52.6540 C.ar    0  <0>0        0.0111
     18 Cl         -0.4320   25.6940   52.3800 Cl      0  <0>0       -0.0822
     19  C14       -1.4910   29.4520   53.2200 C.ar    0  <0>0       -0.0018
     20  N1         8.1490   35.7240   56.4640 N.pl3   0  <0>0       -0.2913
     21  H8         8.7090   35.8430   55.6810 H       0  <0>0        0.1541
     22  C6         8.6060   36.1370   57.7190 C.ar    0  <0>0        0.0494
     23  C5         8.2910   37.4040   58.1920 C.ar    0  <0>0        0.0146
     24  C4         8.7440   37.8090   59.4330 C.ar    0  <0>0        0.0009
     25  C3         9.5110   36.9550   60.2030 C.ar    0  <0>0       -0.0042
     26  C2         9.8270   35.6920   59.7340 C.ar    0  <0>0       -0.0206
     27  C1        10.6640   34.7640   60.5770 C.3     0  <0>0        0.0311
     28  C7         9.3730   35.2790   58.4970 C.ar    0  <0>0        0.0104
@<TRIPOS>BOND
     1    18    16    1
     2    17    16   ar
     3    17    19   ar
     4    16    15   ar
     5    19    13   ar
     6    15    14   ar
     7    13    14   ar
     8    13    12    1
     9    11    10    1
    10    12    10    1
    11    10     8   am
    12    21    20    1
    13     2     3   ar
    14     2     1   ar
    15     3     4   ar
    16     1    20    1
    17     1     5   ar
    18     4     6    1
    19     4     5   ar
    20     8     7    1
    21     8     9    2
    22    20    22    1
    23     6     7    1
    24    22    23   ar
    25    22    28   ar
    26    23    24   ar
    27    28    26   ar
    28    24    25   ar
    29    26    25   ar
    30    26    27    1

@<TRIPOS>MOLECULE
ZINC14545890_replica-1.pdb
 35 39 0 0 0
SMALL
GASTEIGER

@<TRIPOS>ATOM
      1  C9         0.6980   31.4530   56.9820 C.ar    0  <0>0        0.1249
      2  C10        0.6660   31.4880   58.3640 C.ar    0  <0>0        0.0214
      3  C11        1.4110   32.4240   59.0520 C.ar    0  <0>0        0.0154
      4  C12        2.1990   33.3370   58.3620 C.ar    0  <0>0        0.0408
      5  C13        2.2160   33.3050   56.9630 C.ar    0  <0>0       -0.0080
      6  C14        1.4780   32.3580   56.2860 C.ar    0  <0>0        0.0171
      7  C15        3.0300   34.3240   56.2670 C.3     0  <0>0        0.0255
      8  C16        3.5780   34.0990   54.9050 C.3     0  <0>0        0.0045
      9  C17        4.7230   34.7610   54.7940 C.3     0  <0>0        0.0004
     10  C18        5.0500   35.4660   56.1120 C.3     0  <0>0        0.0023
     11  C19        4.3040   34.5880   57.1250 C.3     0  <0>0        0.0263
     12  C20        3.8070   35.2620   58.3910 C.3     0  <0>0        0.0950
     13  N2         2.9740   34.2540   59.0820 N.pl3   0  <0>0       -0.3308
     14  H21        2.9650   34.2280   60.0510 H       0  <0>0        0.1471
     15  S1        -0.2460   30.2480   56.1080 S.O2    0  <0>0        0.0736
     16  O1        -1.3390   30.9380   55.5200 O.2     0  <0>0       -0.1499
     17  O2        -0.4250   29.1520   56.9950 O.2     0  <0>0       -0.1499
     18  N1         0.6950   29.6990   54.8610 N.pl3   0  <0>0       -0.2150
     19  H13        1.4990   30.1820   54.6120 H       0  <0>0        0.1737
     20  C5         0.3330   28.5420   54.1680 C.ar    0  <0>0        0.0644
     21  C4         0.8000   27.3040   54.5890 C.ar    0  <0>0        0.0155
     22  C3         0.4390   26.1620   53.9020 C.ar    0  <0>0       -0.0033
     23  C2        -0.3860   26.2500   52.7950 C.ar    0  <0>0       -0.0257
     24  C1        -0.7770   25.0010   52.0470 C.3     0  <0>0        0.0307
     25  C7        -0.8510   27.4810   52.3720 C.ar    0  <0>0       -0.0245
     26  C6        -0.4900   28.6290   53.0520 C.ar    0  <0>0        0.0113
     27  C8        -1.7490   27.5730   51.1660 C.3     0  <0>0        0.0307
     28  C21        4.9720   35.6620   59.2590 C.ar    0  <0>0        0.0294
     29  C26        5.8440   34.6960   59.7400 C.ar    0  <0>0        0.1362
     30  C25        6.9180   35.0690   60.5360 C.ar    0  <0>0        0.0366
     31  C24        7.1110   36.3980   60.8550 C.ar    0  <0>0        0.0031
     32  C23        6.2380   37.3590   60.3790 C.ar    0  <0>0       -0.0001
     33  C22        5.1690   36.9910   59.5820 C.ar    0  <0>0        0.0003
     34  O3         5.6480   33.3880   59.4290 O.3     0  <0>0       -0.4717
     35  C27        5.6550   32.4550   60.5120 C.3     0  <0>0        0.2525
@<TRIPOS>BOND
     1    27    25    1
     2    24    23    1
     3    25    23   ar
     4    25    26   ar
     5    23    22   ar
     6    26    20   ar
     7    22    21   ar
     8    20    21   ar
     9    20    18    1
    10    19    18    1
    11     9     8    1
    12     9    10    1
    13    18    15    1
    14     8     7    1
    15    16    15    2
    16    15     1    1
    17    15    17    2
    18    10    11    1
    19     7     5    1
    20     7    11    1
    21     6     5   ar
    22     6     1   ar
    23     5     4   ar
    24     1     2   ar
    25    11    12    1
    26     4     3   ar
    27     4    13    1
    28     2     3   ar
    29    12    13    1
    30    12    28    1
    31    13    14    1
    32    28    33   ar
    33    28    29   ar
    34    34    29    1
    35    34    35    1
    36    33    32   ar
    37    29    30   ar
    38    32    31   ar
    39    30    31   ar

@<TRIPOS>MOLECULE
ZINC41571356_replica-1.pdb
 22 24 0 0 0
SMALL
GASTEIGER

@<TRIPOS>ATOM
      1  O1        -0.8570   29.7480   54.3710 O.3     0  <0>0       -0.4736
      2  C10       -0.4300   28.4580   54.3680 C.ar    0  <0>0        0.1385
      3  C4        -0.7040   27.6220   53.2670 C.ar    0  <0>0        0.0340
      4  C3        -1.4170   28.0940   52.1530 C.ar    0  <0>0        0.0030
      5  C5        -0.2510   26.2800   53.2860 C.ar    0  <0>0        0.0029
      6  C2        -1.6630   27.2580   51.1080 C.ar    0  <0>0        0.0001
      7  C1        -1.2180   25.9380   51.1250 C.ar    0  <0>0        0.0000
      8  C6        -0.5240   25.4460   52.1880 C.ar    0  <0>0        0.0001
      9  C7         0.4630   25.8090   54.4010 C.ar    0  <0>0        0.0002
     10  C8         0.7100   26.6430   55.4480 C.ar    0  <0>0        0.0031
     11  C9         0.2670   27.9630   55.4350 C.ar    0  <0>0        0.0369
     12  C11        0.0770   30.7390   54.8030 C.3     0  <0>0        0.2265
     13  C12       -0.5470   31.5740   55.9240 C.3     0  <0>0        0.1351
     14  N1         0.0740   32.9010   55.9480 N.pl3   0  <0>0       -0.3296
     15  H12        0.2280   33.3800   55.1200 H       0  <0>0        0.1469
     16  C13        0.4470   33.4740   57.1660 C.ar    0  <0>0        0.0470
     17  C18        1.0870   34.7060   57.1870 C.ar    0  <0>0        0.0439
     18  C17        1.4490   35.2730   58.3970 C.ar    0  <0>0        0.1414
     19  C16        1.1830   34.6090   59.5810 C.ar    0  <0>0        0.0297
     20  F1         2.0680   36.4740   58.4200 F       0  <0>0       -0.2041
     21  C15        0.5510   33.3800   59.5620 C.ar    0  <0>0        0.0036
     22  C14        0.1820   32.8110   58.3580 C.ar    0  <0>0        0.0144
@<TRIPOS>BOND
     1     6     7   ar
     2     6     4   ar
     3     7     8   ar
     4     4     3   ar
     5     8     5   ar
     6     3     5   ar
     7     3     2   ar
     8     5     9   ar
     9     2     1    1
    10     2    11   ar
    11     1    12    1
    12     9    10   ar
    13    12    13    1
    14    15    14    1
    15    11    10   ar
    16    13    14    1
    17    14    16    1
    18    16    17   ar
    19    16    22   ar
    20    17    18   ar
    21    22    21   ar
    22    18    20    1
    23    18    19   ar
    24    21    19   ar

@<TRIPOS>MOLECULE
ZINC00387856_replica-1.pdb
 23 25 0 0 0
SMALL
GASTEIGER

@<TRIPOS>ATOM
      1  C6        -0.5600   28.8170   54.5810 C.3     0  <0>0        0.0376
      2  C5        -1.1160   30.2370   54.7060 C.3     0  <0>0        0.0721
      3  C4        -0.3070   31.0060   55.7180 C.ar    0  <0>0        0.1544
      4  C3        -0.7730   31.6220   56.8300 C.ar    0  <0>0        0.0536
      5  C2         0.3830   32.1830   57.4200 C.ar    0  <0>0        0.1007
      6  C1         0.4480   32.9870   58.6930 C.3     0  <0>0        0.0557
      7  N1         1.3790   31.8740   56.6410 N.ar    0  <0>0       -0.0817
      8  O1         1.0160   31.2200   55.6910 O.2     0  <0>0       -0.3581
      9  C7        -1.0910   27.9590   55.7320 C.3     0  <0>0        0.0739
     10  C8         0.0630   27.2710   56.4180 C.2     0  <0>0        0.1734
     11  O2         0.9240   27.9280   56.9620 O.2     0  <0>0       -0.2913
     12  C9         0.1420   25.8020   56.4260 C.ar    0  <0>0        0.0347
     13  C14        0.5940   25.1150   55.2950 C.ar    0  <0>0        0.0028
     14  C13        0.6650   23.7390   55.3110 C.ar    0  <0>0        0.0001
     15  C12        0.2910   23.0350   56.4430 C.ar    0  <0>0        0.0000
     16  C11       -0.1580   23.7080   57.5670 C.ar    0  <0>0        0.0001
     17  C10       -0.2350   25.0840   57.5660 C.ar    0  <0>0        0.0028
     18  C15       -0.9950   28.2200   53.2670 C.ar    0  <0>0       -0.0216
     19  C20       -1.8710   28.9100   52.4500 C.ar    0  <0>0       -0.0043
     20  C19       -2.2700   28.3620   51.2450 C.ar    0  <0>0       -0.0003
     21  C18       -1.7930   27.1250   50.8570 C.ar    0  <0>0       -0.0000
     22  C17       -0.9170   26.4340   51.6740 C.ar    0  <0>0       -0.0003
     23  C16       -0.5150   26.9840   52.8770 C.ar    0  <0>0       -0.0043
@<TRIPOS>BOND
     1    21    20   ar
     2    21    22   ar
     3    20    19   ar
     4    22    23   ar
     5    19    18   ar
     6    23    18   ar
     7    18     1    1
     8     1     2    1
     9     1     9    1
    10     2     3    1
    11    13    14   ar
    12    13    12   ar
    13    14    15   ar
    14     8     3   ar
    15     8     7   ar
    16     3     4   ar
    17     9    10    1
    18    10    12    1
    19    10    11    2
    20    12    17   ar
    21    15    16   ar
    22     7     5   ar
    23     4     5   ar
    24     5     6    1
    25    17    16   ar

@<TRIPOS>MOLECULE
ZINC06889761_replica-1.pdb
 24 25 0 0 0
SMALL
GASTEIGER

@<TRIPOS>ATOM
      1  C9        -1.2800   30.4870   56.2670 C.2     0  <0>0        0.1505
      2  S1        -2.7020   29.5920   55.9440 S.2     0  <0>0       -0.0172
      3  N2        -1.3680   31.7660   56.6820 N.am    0  <0>0       -0.2178
      4  H11       -2.2370   32.1800   56.7970 H       0  <0>0        0.1762
      5  N1        -0.0710   29.9130   56.1070 N.am    0  <0>0       -0.3145
      6  H10        0.5380   29.8450   56.8590 H       0  <0>0        0.1485
      7  C8         0.3240   29.3910   54.7960 C.3     0  <0>0        0.0931
      8  C7         0.3460   27.8620   54.8410 C.3     0  <0>0        0.0475
      9  C4        -0.2460   27.3120   53.5690 C.ar    0  <0>0       -0.0205
     10  C3        -0.0160   25.9970   53.2110 C.ar    0  <0>0       -0.0042
     11  C2        -0.5610   25.4940   52.0440 C.ar    0  <0>0       -0.0003
     12  C1        -1.3330   26.3060   51.2340 C.ar    0  <0>0       -0.0000
     13  C6        -1.5610   27.6210   51.5930 C.ar    0  <0>0       -0.0003
     14  C5        -1.0220   28.1230   52.7620 C.ar    0  <0>0       -0.0042
     15  N3        -0.2030   32.4990   56.9470 N.2     0  <0>0       -0.1783
     16  C10       -0.1560   33.2930   57.9730 C.2     0  <0>0        0.1206
     17  C11        1.0690   34.0640   58.2510 C.ar    0  <0>0        0.0587
     18  C16        2.0900   33.5050   59.0250 C.ar    0  <0>0        0.0614
     19  C15        3.2380   34.2320   59.2760 C.ar    0  <0>0        0.0116
     20 Cl          1.9190   31.9000   59.6640 Cl      0  <0>0       -0.0821
     21  C14        3.3740   35.5130   58.7740 C.ar    0  <0>0        0.0032
     22  C13        2.3670   36.0760   58.0110 C.ar    0  <0>0        0.0297
     23  C12        1.2150   35.3600   57.7460 C.ar    0  <0>0        0.1424
     24  F1         0.2320   35.9110   57.0000 F       0  <0>0       -0.2041
@<TRIPOS>BOND
     1    12    13   ar
     2    12    11   ar
     3    13    14   ar
     4    11    10   ar
     5    14     9   ar
     6    10     9   ar
     7     9     8    1
     8     7     8    1
     9     7     5    1
    10     2     1    2
    11     5     1    1
    12     5     6    1
    13     1     3    1
    14     3     4    1
    15     3    15    1
    16    15    16    2
    17    24    23    1
    18    23    22   ar
    19    23    17   ar
    20    16    17    1
    21    22    21   ar
    22    17    18   ar
    23    21    19   ar
    24    18    19   ar
    25    18    20    1

@<TRIPOS>MOLECULE
ZINC04469030_replica-1.pdb
 27 30 0 0 0
SMALL
GASTEIGER

@<TRIPOS>ATOM
      1  N1        -1.1090   28.9480   56.8920 N.am    0  <0>0       -0.2084
      2  C11       -1.9100   28.9420   55.8070 C.2     0  <0>0        0.2526
      3  O1        -3.0830   28.6390   55.7620 O.2     0  <0>0       -0.2723
      4  C12       -1.0360   29.3920   54.6580 C.3     0  <0>0        0.1463
      5  C13       -1.5760   30.6860   54.0600 C.3     0  <0>0        0.0316
      6  C14       -2.8550   30.3620   53.2790 C.3     0  <0>0        0.0071
      7  C15       -2.4760   29.5490   52.0430 C.3     0  <0>0        0.0262
      8  C16       -1.6120   28.3750   52.4210 C.ar    0  <0>0       -0.0242
      9  C17       -0.9410   28.3070   53.6230 C.ar    0  <0>0       -0.0019
     10  C18       -0.1450   27.2050   53.9040 C.ar    0  <0>0       -0.0026
     11  C19       -0.0260   26.1750   52.9930 C.ar    0  <0>0       -0.0003
     12  C20       -0.7040   26.2410   51.7900 C.ar    0  <0>0       -0.0003
     13  C21       -1.4930   27.3370   51.5070 C.ar    0  <0>0       -0.0045
     14  N2         0.2750   29.6230   55.2770 N.am    0  <0>0       -0.2806
     15  C22        0.1350   29.3360   56.5860 C.2     0  <0>0        0.3105
     16  O2         1.0360   29.4210   57.3970 O.2     0  <0>0       -0.2521
     17  H24        1.0840   29.9220   54.8330 H       0  <0>0        0.1516
     18  C10       -1.5450   28.5710   58.2390 C.3     0  <0>0        0.1290
     19  C7        -1.5920   27.0690   58.3510 C.ar    0  <0>0       -0.0019
     20  C6        -2.7920   26.4320   58.6030 C.ar    0  <0>0       -0.0029
     21  C5        -2.8360   25.0540   58.7050 C.ar    0  <0>0       -0.0045
     22  C4        -1.6790   24.3130   58.5550 C.ar    0  <0>0       -0.0225
     23  C9        -0.4780   24.9500   58.3020 C.ar    0  <0>0       -0.0045
     24  C8        -0.4360   26.3270   58.1940 C.ar    0  <0>0       -0.0029
     25  C2        -1.7260   22.8120   58.6670 C.3     0  <0>0        0.0224
     26  C1        -3.0890   22.3070   58.1880 C.3     0  <0>0        0.0047
     27  C3        -0.6230   22.2000   57.8010 C.3     0  <0>0        0.0047
@<TRIPOS>BOND
     1    13    12   ar
     2    13     8   ar
     3    12    11   ar
     4     7     8    1
     5     7     6    1
     6     8     9   ar
     7    11    10   ar
     8     6     5    1
     9     9    10   ar
    10     9     4    1
    11     5     4    1
    12     4    14    1
    13     4     2    1
    14    17    14    1
    15    14    15   am
    16     3     2    2
    17     2     1   am
    18    15     1   am
    19    15    16    2
    20     1    18    1
    21    27    25    1
    22    26    25    1
    23    24    23   ar
    24    24    19   ar
    25    18    19    1
    26    23    22   ar
    27    19    20   ar
    28    22    25    1
    29    22    21   ar
    30    20    21   ar

@<TRIPOS>MOLECULE
ZINC40004399_replica-1.pdb
 29 32 0 0 0
SMALL
GASTEIGER

@<TRIPOS>ATOM
      1  C1         5.8240   36.7690   58.7090 C.3     0  <0>0        0.0510
      2  C2         6.0340   35.4900   57.9410 C.2     0  <0>0        0.0555
      3  C3         7.2270   35.2390   57.3840 C.2     0  <0>0        0.0890
      4  C4         7.4280   34.0340   56.6600 C.1     0  <0>0        0.2039
      5  O1         8.5090   33.7870   56.1460 O.2     0  <0>0       -0.2095
      6  N1         6.4060   33.1730   56.5550 N.2     0  <0>0       -0.3075
      7  C5         5.2480   33.4360   57.1070 C.ar    0  <0>0        0.2453
      8  N2         4.9900   34.5770   57.8220 N.ar    0  <0>0       -0.2463
      9  C6         3.7660   34.7380   58.3480 C.ar    0  <0>0        0.2728
     10  O2         3.4850   35.7360   58.9870 O.2     0  <0>0       -0.2660
     11  C7         2.7740   33.6790   58.1300 C.ar    0  <0>0        0.0897
     12  C8         1.4830   33.6040   58.5510 C.2     0  <0>0        0.0114
     13  S2         3.7200   32.5230   57.1500 S.2     0  <0>0       -0.0313
     14  C9         0.7210   32.3670   58.3570 C.ar    0  <0>0        0.0007
     15  C14        0.8000   31.3360   59.3030 C.ar    0  <0>0        0.0005
     16  C13        0.0850   30.1870   59.1200 C.ar    0  <0>0        0.0061
     17  C12       -0.7160   30.0360   57.9900 C.ar    0  <0>0        0.0252
     18  C11       -0.7940   31.0550   57.0440 C.ar    0  <0>0        0.0061
     19  C10       -0.0860   32.2090   57.2210 C.ar    0  <0>0        0.0005
     20  S1        -1.6330   28.5490   57.7560 S.3     0  <0>0       -0.1127
     21  C15       -2.8280   28.9710   56.4580 C.3     0  <0>0        0.0742
     22  C16        8.3510   36.2330   57.5250 C.3     0  <0>0        0.0675
     23  C17        9.0750   35.9900   58.8250 C.ar    0  <0>0       -0.0064
     24  C22        9.2680   37.0320   59.7140 C.ar    0  <0>0        0.0540
     25  C21        9.9270   36.8070   60.9100 C.ar    0  <0>0        0.0111
     26 Cl          8.6770   38.6190   59.3340 Cl      0  <0>0       -0.0826
     27  C20       10.4030   35.5450   61.2090 C.ar    0  <0>0        0.0008
     28  C19       10.2150   34.5040   60.3170 C.ar    0  <0>0       -0.0003
     29  C18        9.5510   34.7280   59.1260 C.ar    0  <0>0       -0.0031
@<TRIPOS>BOND
     1     5     4    2
     2    21    20    1
     3     6     4    2
     4     6     7    2
     5     4     3    1
     6    18    19   ar
     7    18    17   ar
     8     7    13   ar
     9     7     8   ar
    10    13    11   ar
    11    19    14   ar
    12     3    22    1
    13     3     2    2
    14    22    23    1
    15    20    17    1
    16     8     2    1
    17     8     9   ar
    18     2     1    1
    19    17    16   ar
    20    11     9   ar
    21    11    12    2
    22     9    10    2
    23    14    12    1
    24    14    15   ar
    25    23    29   ar
    26    23    24   ar
    27    16    15   ar
    28    29    28   ar
    29    26    24    1
    30    24    25   ar
    31    28    27   ar
    32    25    27   ar

@<TRIPOS>MOLECULE
ZINC05501292_replica-1.pdb
 25 28 0 0 0
SMALL
GASTEIGER

@<TRIPOS>ATOM
      1  N1         7.7760   34.9190   58.6940 N.pl3   0  <0>0       -0.0588
      2  C8         7.6980   35.4230   57.4270 C.2     0  <0>0        0.3364
      3  C9         6.6190   34.7700   56.8000 C.3     0  <0>0        0.1981
      4  C10        6.0750   33.8730   57.7460 C.2     0  <0>0        0.1350
      5  N2         6.7600   33.9690   58.8490 N.2     0  <0>0       -0.0853
      6  C11        6.3160   35.1090   55.4680 C.2     0  <0>0        0.1009
      7  N3         7.0670   36.0250   54.8620 N.2     0  <0>0       -0.2158
      8  C12        8.0670   36.6140   55.4940 C.3     0  <0>0        0.3917
      9  N4         8.3870   36.3310   56.7370 N.2     0  <0>0       -0.0376
     10  S1         4.9810   34.3330   54.6200 S.3     0  <0>0       -0.0938
     11  C13        3.6560   35.5180   54.9690 C.3     0  <0>0        0.0895
     12  C14        2.9250   35.0990   56.2190 C.ar    0  <0>0       -0.0109
     13  C19        2.5100   33.7890   56.3710 C.ar    0  <0>0       -0.0029
     14  C18        1.8390   33.4040   57.5160 C.ar    0  <0>0        0.0064
     15  C17        1.5820   34.3300   58.5110 C.ar    0  <0>0        0.0345
     16  C16        1.9980   35.6420   58.3590 C.ar    0  <0>0        0.0064
     17 Br          0.6630   33.8060   60.0770 Br      0  <0>0       -0.0490
     18  C15        2.6690   36.0250   57.2130 C.ar    0  <0>0       -0.0029
     19  C5         8.7100   35.2900   59.6690 C.ar    0  <0>0        0.1654
     20  C4         8.4840   36.4080   60.4610 C.ar    0  <0>0        0.0423
     21  C3         9.4070   36.7710   61.4220 C.ar    0  <0>0       -0.0007
     22  C2        10.5570   36.0220   61.5970 C.ar    0  <0>0       -0.0216
     23  C1        11.5610   36.4200   62.6460 C.3     0  <0>0        0.0310
     24  C7        10.7850   34.9080   60.8100 C.ar    0  <0>0       -0.0007
     25  C6         9.8630   34.5360   59.8510 C.ar    0  <0>0        0.0423
@<TRIPOS>BOND
     1    10    11    1
     2    10     6    1
     3     7     6    2
     4     7     8    1
     5    11    12    1
     6     6     3    1
     7     8     9    1
     8    12    13   ar
     9    12    18   ar
    10    13    14   ar
    11     9     2    2
    12     3     2    1
    13     3     4    1
    14    18    16   ar
    15     2     1    1
    16    14    15   ar
    17     4     5    2
    18    16    15   ar
    19    15    17    1
    20     1     5    1
    21     1    19    1
    22    19    25   ar
    23    19    20   ar
    24    25    24   ar
    25    20    21   ar
    26    24    22   ar
    27    21    22   ar
    28    22    23    1

@<TRIPOS>MOLECULE
ZINC36145787_replica-1.pdb
 33 36 0 0 0
SMALL
GASTEIGER

@<TRIPOS>ATOM
      1  N2         7.7130   37.2780   59.6190 N.4     0  <0>0        0.3938
      2  H31        7.9160   36.4220   59.1240 H       0  <0>0       -0.0790
      3  C11        8.6160   37.4020   60.7710 C.3     0  <0>0       -0.0291
      4  C9         9.9430   36.7090   60.4570 C.3     0  <0>0        0.1819
      5  O1         9.7300   35.5230   59.6640 O.2     0  <0>0       -0.3833
      6  N1        10.6660   34.5520   60.0880 N.2     0  <0>0       -0.0876
      7  C8        11.1790   34.8190   61.2430 C.2     0  <0>0        0.1003
      8  C10       10.5730   36.1170   61.7420 C.3     0  <0>0        0.0932
      9  C7        12.1750   33.9970   61.9570 C.ar    0  <0>0        0.0129
     10  C2        11.7990   32.7840   62.5350 C.ar    0  <0>0       -0.0206
     11  C1        10.3730   32.3100   62.4350 C.3     0  <0>0        0.0311
     12  C3        12.7380   32.0180   63.1960 C.ar    0  <0>0       -0.0042
     13  C4        14.0480   32.4520   63.2900 C.ar    0  <0>0       -0.0003
     14  C5        14.4270   33.6560   62.7220 C.ar    0  <0>0        0.0000
     15  C6        13.4980   34.4320   62.0600 C.ar    0  <0>0        0.0010
     16  C12        6.3210   37.2560   60.0860 C.3     0  <0>0       -0.0496
     17  C13        5.6450   36.0020   59.5930 C.ar    0  <0>0       -0.0432
     18  C18        4.4490   36.0870   58.9040 C.ar    0  <0>0       -0.0063
     19  C17        3.8310   34.9380   58.4480 C.ar    0  <0>0       -0.0004
     20  C16        4.4050   33.7030   58.6880 C.ar    0  <0>0       -0.0000
     21  C15        5.5980   33.6180   59.3820 C.ar    0  <0>0       -0.0004
     22  C14        6.2180   34.7670   59.8340 C.ar    0  <0>0       -0.0063
     23  C19        7.9090   38.4210   58.7170 C.3     0  <0>0       -0.0465
     24  C20        8.3840   37.9190   57.3520 C.3     0  <0>0        0.0943
     25  C21        7.1710   37.6300   56.4640 C.3     0  <0>0        0.0534
     26  C22        7.0610   36.1460   56.2320 C.ar    0  <0>0       -0.0198
     27  C27        8.0380   35.2960   56.7150 C.ar    0  <0>0       -0.0042
     28  C26        7.9340   33.9330   56.5040 C.ar    0  <0>0       -0.0003
     29  C25        6.8580   33.4220   55.8030 C.ar    0  <0>0       -0.0000
     30  C24        5.8830   34.2730   55.3150 C.ar    0  <0>0       -0.0003
     31  C23        5.9840   35.6350   55.5290 C.ar    0  <0>0       -0.0042
     32  O2         9.1980   38.9170   56.7340 O.3     0  <0>0       -0.3863
     33  H30       10.1330   38.8700   56.9780 H       0  <0>0        0.2103
@<TRIPOS>BOND
     1    30    31   ar
     2    30    29   ar
     3    31    26   ar
     4    29    28   ar
     5    26    25    1
     6    26    27   ar
     7    25    24    1
     8    28    27   ar
     9    32    33    1
    10    32    24    1
    11    24    23    1
    12    19    20   ar
    13    19    18   ar
    14    20    21   ar
    15    23     1    1
    16    18    17   ar
    17     2     1    1
    18    21    22   ar
    19    17    22   ar
    20    17    16    1
    21     1    16    1
    22     1     3    1
    23     5     6    1
    24     5     4    1
    25     6     7    2
    26     4     3    1
    27     4     8    1
    28     7     8    1
    29     7     9    1
    30     9    15   ar
    31     9    10   ar
    32    15    14   ar
    33    11    10    1
    34    10    12   ar
    35    14    13   ar
    36    12    13   ar

@<TRIPOS>MOLECULE
ZINC02963650_replica-1.pdb
 28 31 0 0 0
SMALL
GASTEIGER

@<TRIPOS>ATOM
      1  C1         5.4330   34.6400   59.7430 C.3     0  <0>0        0.0659
      2  C2         6.7910   35.3440   59.8050 C.3     0  <0>0        0.2013
      3  C3         6.6710   36.6020   60.7070 C.3     0  <0>0        0.0846
      4  C4         8.0330   37.3120   60.6250 C.3     0  <0>0        0.1014
      5  C5         9.1240   36.3250   60.9750 C.ar    0  <0>0        0.0327
      6  C6        10.3330   36.8040   61.4500 C.ar    0  <0>0        0.0005
      7  C7        11.3510   35.9270   61.7710 C.ar    0  <0>0        0.0030
      8  C8        11.1650   34.5660   61.6160 C.ar    0  <0>0        0.0400
      9  C9         9.9580   34.0820   61.1450 C.ar    0  <0>0        0.1722
     10  C10        8.9260   34.9670   60.8230 C.ar    0  <0>0        0.1714
     11  O1         7.7520   34.4550   60.3690 O.3     0  <0>0       -0.4625
     12  N1         8.2390   37.7160   59.2240 N.am    0  <0>0       -0.3133
     13  C12        7.8380   36.9050   58.2310 C.2     0  <0>0        0.1410
     14  S1         8.1700   37.3550   56.6120 S.2     0  <0>0       -0.0182
     15  N2         7.1860   35.7540   58.4610 N.am    0  <0>0       -0.2415
     16  H13        8.6640   38.5630   59.0190 H       0  <0>0        0.1487
     17  C13        6.8750   34.9230   57.3790 C.ar    0  <0>0        0.0558
     18  C18        5.7630   35.1900   56.5930 C.ar    0  <0>0        0.0188
     19  C17        5.4600   34.3680   55.5260 C.ar    0  <0>0        0.0727
     20  C16        6.2620   33.2790   55.2410 C.ar    0  <0>0        0.0039
     21  C15        7.3710   33.0090   56.0220 C.ar    0  <0>0        0.0012
     22  C14        7.6830   33.8320   57.0870 C.ar    0  <0>0        0.0150
     23  C19        4.2530   34.6570   54.6710 C.3     0  <0>0        0.4186
     24  F1         4.5980   34.5380   53.3210 F       0  <0>0       -0.1659
     25  F2         3.2360   33.7450   54.9750 F       0  <0>0       -0.1659
     26  F3         3.8030   35.9570   54.9250 F       0  <0>0       -0.1659
     27  O2         9.7750   32.7420   60.9930 O.3     0  <0>0       -0.4684
     28  C11       10.0510   31.9180   62.1280 C.3     0  <0>0        0.2526
@<TRIPOS>BOND
     1    24    23    1
     2    23    26    1
     3    23    25    1
     4    23    19    1
     5    20    19   ar
     6    20    21   ar
     7    19    18   ar
     8    21    22   ar
     9    18    17   ar
    10    14    13    2
    11    22    17   ar
    12    17    15    1
    13    13    15    1
    14    13    12    1
    15    15     2    1
    16    16    12    1
    17    12     4    1
    18     1     2    1
    19     2    11    1
    20     2     3    1
    21    11    10    1
    22     4     3    1
    23     4     5    1
    24    10     5   ar
    25    10     9   ar
    26     5     6   ar
    27    27     9    1
    28    27    28    1
    29     9     8   ar
    30     6     7   ar
    31     8     7   ar

@<TRIPOS>MOLECULE
ZINC43548657_replica-1.pdb
 35 38 0 0 0
SMALL
GASTEIGER

@<TRIPOS>ATOM
      1  C1         8.8770   33.2200   59.4890 C.3     0  <0>0        0.0072
      2  C2         9.1020   34.7310   59.4280 C.3     0  <0>0        0.0514
      3  C3        10.0500   35.1490   60.5410 C.2     0  <0>0        0.0986
      4  C4         9.8290   36.2860   61.2470 C.3     0  <0>0        0.1034
      5  S1        11.1860   36.3060   62.3850 S.3     0  <0>0       -0.0611
      6  C5        11.9210   34.8770   61.8760 C.2     0  <0>0        0.2106
      7  N1        11.1340   34.4660   60.9050 N.2     0  <0>0       -0.3886
      8  C12        8.7090   37.2540   61.0810 C.3     0  <0>0        0.0181
      9  C13        7.9950   36.9630   59.7590 C.3     0  <0>0        0.0039
     10  C14        7.7630   35.4560   59.6050 C.3     0  <0>0        0.0333
     11  C15        6.9340   35.2370   58.3280 C.3     0  <0>0        0.1112
     12  C16        7.7420   35.7330   57.1270 C.3     0  <0>0        0.0355
     13  C17        8.0450   37.2250   57.2810 C.3     0  <0>0        0.0029
     14  C18        8.8250   37.4640   58.5770 C.3     0  <0>0        0.0002
     15  C26        6.6370   37.6650   59.7540 C.3     0  <0>0        0.0001
     16  N2        13.0730   34.2800   62.3630 N.pl3   0  <0>0       -0.2830
     17  H9        13.9270   34.7340   62.2790 H       0  <0>0        0.1551
     18  C6        13.0060   33.0250   62.9770 C.ar    0  <0>0        0.0506
     19  C11       14.1340   32.4840   63.5800 C.ar    0  <0>0        0.0170
     20  C10       14.0640   31.2470   64.1890 C.ar    0  <0>0        0.0309
     21  C9        12.8730   30.5400   64.1890 C.ar    0  <0>0        0.1402
     22  C8        11.7480   31.0750   63.5830 C.ar    0  <0>0        0.0309
     23  F1        12.8070   29.3270   64.7810 F       0  <0>0       -0.2042
     24  C7        11.8130   32.3150   62.9780 C.ar    0  <0>0        0.0170
     25  O2         6.6490   33.8450   58.1750 O.3     0  <0>0       -0.3844
     26  H31        7.4300   33.2770   58.2050 H       0  <0>0        0.2103
     27  C19        6.9350   35.5110   55.8460 C.3     0  <0>0        0.0790
     28  C20        7.5460   36.3330   54.7100 C.3     0  <0>0        0.0096
     29  C21        5.5080   35.9450   56.0690 C.2     0  <0>0        0.2255
     30  O1         5.2700   37.0710   56.4530 O.2     0  <0>0       -0.2749
     31  N3         4.4980   35.0830   55.8420 N.am    0  <0>0       -0.2737
     32  C22        4.7890   33.6980   55.4600 C.3     0  <0>0        0.1152
     33  C23        3.1100   35.5290   55.9780 C.3     0  <0>0        0.1199
     34  C24        2.5640   35.0810   57.3080 C.2     0  <0>0       -0.0047
     35  C25        2.4700   35.9320   58.2990 C.2     0  <0>0       -0.0031
@<TRIPOS>BOND
     1    28    27    1
     2    32    31    1
     3    31    33    1
     4    31    29   am
     5    27    29    1
     6    27    12    1
     7    33    34    1
     8    29    30    2
     9    12    13    1
    10    12    11    1
    11    13    14    1
    12    34    35    2
    13    25    26    1
    14    25    11    1
    15    11    10    1
    16    14     9    1
    17     2     1    1
    18     2    10    1
    19     2     3    1
    20    10     9    1
    21    15     9    1
    22     9     8    1
    23     3     7    2
    24     3     4    1
    25     7     6    2
    26     8     4    1
    27     4     5    1
    28     6    16    1
    29     6     5    1
    30    17    16    1
    31    16    18    1
    32    18    24   ar
    33    18    19   ar
    34    24    22   ar
    35    19    20   ar
    36    22    21   ar
    37    20    21   ar
    38    21    23    1

@<TRIPOS>MOLECULE
ZINC16183355_replica-1.pdb
 29 32 0 0 0
SMALL
GASTEIGER

@<TRIPOS>ATOM
      1  N1         5.3420   35.4630   58.1620 N.am    0  <0>0       -0.1550
      2  C7         6.5310   35.5550   58.7920 C.2     0  <0>0        0.2732
      3  O1         6.7600   35.3050   59.9640 O.2     0  <0>0       -0.2678
      4  C8         7.4910   36.0170   57.7830 C.2     0  <0>0        0.0817
      5  C9         8.8520   36.2630   57.9560 C.2     0  <0>0        0.0436
      6  C20        6.7080   36.1570   56.5500 C.2     0  <0>0        0.1749
      7  N2         5.4820   35.8270   56.8230 N.2     0  <0>0       -0.1671
      8  C10        9.4430   36.0760   59.2120 C.ar    0  <0>0        0.1456
      9  O2        10.0730   34.9570   59.6330 O.2     0  <0>0       -0.4535
     10  C13       10.5180   35.1410   60.8880 C.ar    0  <0>0        0.1453
     11  C12       10.1620   36.4090   61.3010 C.ar    0  <0>0        0.0406
     12  C11        9.4830   37.0080   60.2430 C.ar    0  <0>0        0.0406
     13  C14       11.2610   34.1520   61.6900 C.ar    0  <0>0        0.0346
     14  C19       10.6840   32.9140   61.9890 C.ar    0  <0>0        0.0035
     15  C18       11.3840   31.9940   62.7400 C.ar    0  <0>0        0.0068
     16  C17       12.6560   32.2930   63.1980 C.ar    0  <0>0        0.0346
     17  C16       13.2340   33.5180   62.9060 C.ar    0  <0>0        0.0068
     18 Br         13.6080   31.0250   64.2270 Br      0  <0>0       -0.0490
     19  C15       12.5470   34.4450   62.1520 C.ar    0  <0>0        0.0035
     20  C21        7.2320   36.6030   55.2090 C.3     0  <0>0        0.4365
     21  F1         7.1220   37.9950   55.1050 F       0  <0>0       -0.1643
     22  F2         8.5750   36.2310   55.0850 F       0  <0>0       -0.1643
     23  F3         6.4840   36.0010   54.1910 F       0  <0>0       -0.1643
     24  C4         4.1430   35.0580   58.7630 C.ar    0  <0>0        0.0771
     25  C3         2.9830   35.7940   58.5670 C.ar    0  <0>0        0.0168
     26  C2         1.8030   35.3920   59.1600 C.ar    0  <0>0        0.0013
     27  C1         1.7760   34.2580   59.9510 C.ar    0  <0>0        0.0001
     28  C6         2.9300   33.5220   60.1470 C.ar    0  <0>0        0.0013
     29  C5         4.1130   33.9170   59.5530 C.ar    0  <0>0        0.0168
@<TRIPOS>BOND
     1    23    20    1
     2    22    20    1
     3    21    20    1
     4    20     6    1
     5     6     7    2
     6     6     4    1
     7     7     1    1
     8     4     5    2
     9     4     2    1
    10     5     8    1
    11     1    24    1
    12     1     2   am
    13    25    24   ar
    14    25    26   ar
    15    24    29   ar
    16     2     3    2
    17    26    27   ar
    18     8     9   ar
    19     8    12   ar
    20    29    28   ar
    21     9    10   ar
    22    27    28   ar
    23    12    11   ar
    24    10    11   ar
    25    10    13    1
    26    13    14   ar
    27    13    19   ar
    28    14    15   ar
    29    19    17   ar
    30    15    16   ar
    31    17    16   ar
    32    16    18    1

@<TRIPOS>MOLECULE
ZINC14197133_replica-1.pdb
 25 27 0 0 0
SMALL
GASTEIGER

@<TRIPOS>ATOM
      1  C11        8.1370   37.1510   59.1060 C.2     0  <0>0        0.2758
      2  O2         8.4800   38.3060   58.9420 O.2     0  <0>0       -0.2675
      3  N2         8.8090   36.3650   59.9700 N.am    0  <0>0       -0.2879
      4  H9         8.5350   35.4430   60.1010 H       0  <0>0        0.1507
      5  C3         6.9870   36.6100   58.3580 C.2     0  <0>0        0.2051
      6  C2         7.0100   36.1130   57.0890 C.3     0  <0>0        0.2247
      7  C1         8.2140   36.0120   56.1890 C.3     0  <0>0        0.0554
      8  O1         5.7580   35.7310   56.7920 O.2     0  <0>0       -0.4480
      9  C4         4.9770   35.9870   57.8580 C.2     0  <0>0        0.2775
     10  N1         5.7090   36.5170   58.8050 N.2     0  <0>0       -0.3639
     11  C5         3.5270   35.7090   57.9460 C.ar    0  <0>0        0.0660
     12  C10        3.0040   35.0690   59.0700 C.ar    0  <0>0        0.0058
     13  C9         1.6500   34.8120   59.1470 C.ar    0  <0>0        0.0002
     14  C8         0.8130   35.1890   58.1110 C.ar    0  <0>0        0.0000
     15  C7         1.3250   35.8240   56.9940 C.ar    0  <0>0        0.0002
     16  C6         2.6760   36.0910   56.9080 C.ar    0  <0>0        0.0058
     17  C12        9.9510   36.9030   60.7130 C.3     0  <0>0        0.1677
     18  C13       10.7300   35.7920   61.2870 C.1     0  <0>0       -0.0644
     19  C14       11.3520   34.9070   61.7440 C.1     0  <0>0       -0.0627
     20  C15       12.1100   33.8280   62.3010 C.ar    0  <0>0        0.0417
     21  C20       11.4750   32.6410   62.6670 C.ar    0  <0>0        0.0082
     22  C19       12.2110   31.6050   63.2020 C.ar    0  <0>0        0.0006
     23  C18       13.5760   31.7400   63.3770 C.ar    0  <0>0        0.0000
     24  C17       14.2130   32.9140   63.0160 C.ar    0  <0>0        0.0006
     25  C16       13.4890   33.9570   62.4750 C.ar    0  <0>0        0.0082
@<TRIPOS>BOND
     1     7     6    1
     2     8     6    1
     3     8     9    1
     4    16    15   ar
     5    16    11   ar
     6    15    14   ar
     7     6     5    1
     8     9    11    1
     9     9    10    2
    10    11    12   ar
    11    14    13   ar
    12     5    10    2
    13     5     1    1
    14     2     1    2
    15    12    13   ar
    16     1     3   am
    17     3     4    1
    18     3    17    1
    19    17    18    1
    20    18    19    3
    21    19    20    1
    22    20    25   ar
    23    20    21   ar
    24    25    24   ar
    25    21    22   ar
    26    24    23   ar
    27    22    23   ar

@<TRIPOS>MOLECULE
ZINC09795375_replica-1.pdb
 19 21 0 0 0
SMALL
GASTEIGER

@<TRIPOS>ATOM
      1  S1        -2.6100   29.7110   54.8610 S.3     0  <0>0       -0.0705
      2  C6        -2.3160   29.0850   56.4810 C.ar    0  <0>0        0.1974
      3  N1        -1.4320   29.5830   57.3920 N.ar    0  <0>0       -0.2676
      4  C3        -0.5510   30.6290   57.3820 C.ar    0  <0>0        0.0834
      5  C4        -1.5470   28.7790   58.5060 C.ar    0  <0>0        0.1708
      6  C2         0.2150   30.8870   58.4600 C.ar    0  <0>0        0.0192
      7  C1         0.1190   30.0850   59.6110 C.ar    0  <0>0        0.0047
      8  C5        -0.7510   29.0410   59.6390 C.ar    0  <0>0        0.0393
      9  N2        -2.4610   27.8670   58.2280 N.ar    0  <0>0       -0.1279
     10  N3        -2.9100   28.0520   57.0360 N.ar    0  <0>0       -0.1218
     11  C7        -1.0010   29.5680   54.0350 C.3     0  <0>0        0.0918
     12  C8        -0.9780   28.3190   53.1910 C.ar    0  <0>0       -0.0045
     13  C13       -0.3120   27.1940   53.6420 C.ar    0  <0>0        0.0337
     14  C12       -0.2950   26.0460   52.8710 C.ar    0  <0>0        0.0360
     15 Br          0.5690   27.2220   55.3150 Br      0  <0>0       -0.0492
     16  C11       -0.9350   26.0280   51.6440 C.ar    0  <0>0        0.1406
     17  C10       -1.5980   27.1560   51.1930 C.ar    0  <0>0        0.0294
     18  F1        -0.9150   24.9080   50.8880 F       0  <0>0       -0.2042
     19  C9        -1.6190   28.3010   51.9660 C.ar    0  <0>0       -0.0006
@<TRIPOS>BOND
     1    18    16    1
     2    17    16   ar
     3    17    19   ar
     4    16    14   ar
     5    19    12   ar
     6    14    13   ar
     7    12    13   ar
     8    12    11    1
     9    13    15    1
    10    11     1    1
    11     1     2    1
    12     2    10   ar
    13     2     3   ar
    14    10     9   ar
    15     4     3   ar
    16     4     6   ar
    17     3     5   ar
    18     9     5   ar
    19     6     7   ar
    20     5     8   ar
    21     7     8   ar

@<TRIPOS>MOLECULE
ZINC06819566_replica-1.pdb
 29 32 0 0 0
SMALL
GASTEIGER

@<TRIPOS>ATOM
      1  C9         7.0370   35.4980   56.2080 C.3     0  <0>0        0.0573
      2  C10        7.4630   36.7120   55.3790 C.3     0  <0>0        0.0942
      3  C11        7.5290   37.9220   56.2750 C.2     0  <0>0        0.2265
      4  O1         7.2430   39.0150   55.8350 O.2     0  <0>0       -0.2748
      5  N1         7.9050   37.7930   57.5590 N.am    0  <0>0       -0.2875
      6  C12        8.2580   36.5720   58.0760 C.2     0  <0>0        0.0268
      7  C13        7.8710   35.4320   57.4660 C.2     0  <0>0        0.0261
      8  C14        8.2280   34.1730   57.9750 C.2     0  <0>0        0.1706
      9  O2         7.8490   33.1680   57.4040 O.2     0  <0>0       -0.2916
     10  C15        9.0720   34.0480   59.2130 C.3     0  <0>0        0.0736
     11  C16        9.9710   35.2840   59.3300 C.3     0  <0>0        0.0356
     12  C17        9.0850   36.5310   59.3370 C.3     0  <0>0        0.0458
     13  H14        7.9280   38.5760   58.1300 H       0  <0>0        0.1545
     14  C6         5.5810   35.6270   56.5750 C.ar    0  <0>0       -0.0178
     15  C5         4.6460   35.9220   55.6000 C.ar    0  <0>0       -0.0043
     16  C4         3.3100   36.0390   55.9380 C.ar    0  <0>0       -0.0046
     17  C3         2.9100   35.8610   57.2490 C.ar    0  <0>0       -0.0222
     18  C8         3.8460   35.5650   58.2220 C.ar    0  <0>0       -0.0046
     19  C7         5.1810   35.4440   57.8850 C.ar    0  <0>0       -0.0043
     20  C2         1.4550   35.9910   57.6160 C.3     0  <0>0        0.0264
     21  C1         1.1850   35.2190   58.9090 C.3     0  <0>0        0.0050
     22  C18       10.7590   35.2160   60.6130 C.ar    0  <0>0       -0.0215
     23  C23       11.4450   34.0610   60.9410 C.ar    0  <0>0       -0.0011
     24  C22       12.1690   33.9960   62.1160 C.ar    0  <0>0        0.0366
     25  C21       12.2080   35.0910   62.9660 C.ar    0  <0>0        0.1387
     26  C20       11.5180   36.2490   62.6350 C.ar    0  <0>0        0.0366
     27  C19       10.8010   36.3100   61.4560 C.ar    0  <0>0       -0.0011
     28  O3        12.9190   35.0300   64.1230 O.3     0  <0>0       -0.4714
     29  C24       14.0550   34.1630   64.1390 C.3     0  <0>0        0.2525
@<TRIPOS>BOND
     1     2     1    1
     2     2     3    1
     3    15    16   ar
     4    15    14   ar
     5     4     3    2
     6    16    17   ar
     7     1    14    1
     8     1     7    1
     9     3     5   am
    10    14    19   ar
    11    17    20    1
    12    17    18   ar
    13     9     8    2
    14     7     8    1
    15     7     6    2
    16     5     6    1
    17     5    13    1
    18    20    21    1
    19    19    18   ar
    20     8    10    1
    21     6    12    1
    22    10    11    1
    23    11    12    1
    24    11    22    1
    25    22    23   ar
    26    22    27   ar
    27    23    24   ar
    28    27    26   ar
    29    24    25   ar
    30    26    25   ar
    31    25    28    1
    32    28    29    1

@<TRIPOS>MOLECULE
ZINC06819679_replica-1.pdb
 28 31 0 0 0
SMALL
GASTEIGER

@<TRIPOS>ATOM
      1  C8         7.7090   36.8950   58.9800 C.3     0  <0>0        0.0573
      2  C9         8.0140   36.9500   57.4790 C.3     0  <0>0        0.0942
      3  C10        8.4590   35.5860   57.0200 C.2     0  <0>0        0.2265
      4  O1         8.1770   35.2010   55.9050 O.2     0  <0>0       -0.2748
      5  N1         9.1730   34.7980   57.8420 N.am    0  <0>0       -0.2875
      6  C11        9.5280   35.2180   59.0980 C.2     0  <0>0        0.0268
      7  C12        8.8570   36.2240   59.6970 C.2     0  <0>0        0.0261
      8  C13        9.2000   36.6660   60.9860 C.2     0  <0>0        0.1706
      9  O2         8.5800   37.5830   61.4880 O.2     0  <0>0       -0.2916
     10  C14       10.3230   36.0230   61.7530 C.3     0  <0>0        0.0736
     11  C15       10.4610   34.5650   61.3040 C.3     0  <0>0        0.0356
     12  C16       10.6830   34.5390   59.7910 C.3     0  <0>0        0.0458
     13  H12        9.4410   33.9150   57.5410 H       0  <0>0        0.1545
     14  C17       11.6370   33.9280   61.9990 C.ar    0  <0>0       -0.0215
     15  C22       12.8660   34.5610   61.9990 C.ar    0  <0>0       -0.0011
     16  C21       13.9450   33.9790   62.6370 C.ar    0  <0>0        0.0366
     17  C20       13.7940   32.7570   63.2760 C.ar    0  <0>0        0.1387
     18  C19       12.5600   32.1240   63.2750 C.ar    0  <0>0        0.0366
     19  C18       11.4830   32.7130   62.6420 C.ar    0  <0>0       -0.0011
     20  O3        14.8540   32.1830   63.9040 O.3     0  <0>0       -0.4714
     21  C23       15.5200   32.9640   64.8980 C.3     0  <0>0        0.2525
     22  C6         6.4440   36.1120   59.2120 C.ar    0  <0>0       -0.0181
     23  C5         6.4040   35.1340   60.1880 C.ar    0  <0>0       -0.0040
     24  C4         5.2420   34.4150   60.4000 C.ar    0  <0>0       -0.0006
     25  C3         4.1190   34.6760   59.6380 C.ar    0  <0>0       -0.0043
     26  C2         4.1580   35.6560   58.6630 C.ar    0  <0>0       -0.0222
     27  C1         2.9330   35.9400   57.8320 C.3     0  <0>0        0.0310
     28  C7         5.3180   36.3770   58.4530 C.ar    0  <0>0       -0.0082
@<TRIPOS>BOND
     1     4     3    2
     2     3     2    1
     3     3     5   am
     4     2     1    1
     5    13     5    1
     6    27    26    1
     7     5     6    1
     8    28    26   ar
     9    28    22   ar
    10    26    25   ar
    11     1    22    1
    12     1     7    1
    13     6     7    2
    14     6    12    1
    15    22    23   ar
    16    25    24   ar
    17     7     8    1
    18    12    11    1
    19    23    24   ar
    20     8     9    2
    21     8    10    1
    22    11    10    1
    23    11    14    1
    24    15    14   ar
    25    15    16   ar
    26    14    19   ar
    27    16    17   ar
    28    19    18   ar
    29    18    17   ar
    30    17    20    1
    31    20    21    1

@<TRIPOS>MOLECULE
ZINC00882446_replica-1.pdb
 30 34 0 0 0
SMALL
GASTEIGER

@<TRIPOS>ATOM
      1  C12        8.5000   36.2480   59.1490 C.2     0  <0>0        0.0914
      2  C13        8.0540   36.0260   57.8180 C.3     0  <0>0        0.1144
      3  C14        7.5810   34.7980   57.1880 C.2     0  <0>0       -0.0038
      4  C15        7.2060   34.8370   55.8880 C.2     0  <0>0        0.0331
      5  S2         7.4660   36.5400   55.4300 S.3     0  <0>0       -0.0718
      6  C16        8.0690   37.1580   56.9790 C.2     0  <0>0        0.0950
      7  N2         8.4720   38.3340   57.4170 N.2     0  <0>0       -0.2414
      8  C17        8.8760   38.4800   58.6640 C.3     0  <0>0        0.2511
      9  N3         8.8880   37.4620   59.5070 N.2     0  <0>0       -0.2417
     10  S1         8.5420   34.9220   60.3090 S.3     0  <0>0       -0.0891
     11  C11       10.3150   34.8750   60.6690 C.3     0  <0>0        0.1486
     12  C10       10.6250   33.6630   61.5100 C.2     0  <0>0        0.2407
     13  N1        11.7730   33.6070   62.2130 N.am    0  <0>0       -0.2582
     14  C4        12.1050   32.4580   62.9440 C.ar    0  <0>0        0.0498
     15  C9        12.6960   34.7500   62.2300 C.3     0  <0>0        0.0986
     16  C3        11.1300   31.4940   63.1700 C.ar    0  <0>0        0.0146
     17  C5        13.3900   32.2760   63.4350 C.ar    0  <0>0       -0.0084
     18  C2        11.4380   30.3540   63.8840 C.ar    0  <0>0        0.0013
     19  C1        12.7170   30.1730   64.3760 C.ar    0  <0>0       -0.0002
     20  C6        13.6930   31.1270   64.1460 C.ar    0  <0>0       -0.0030
     21  C7        14.4690   33.3060   63.2190 C.3     0  <0>0        0.0294
     22  C8        14.1180   34.2070   62.0360 C.3     0  <0>0        0.0266
     23  O1         9.8410   32.7390   61.5540 O.2     0  <0>0       -0.2736
     24  C18        7.5140   33.5320   57.9550 C.ar    0  <0>0       -0.0026
     25  C23        8.6030   32.6610   57.9620 C.ar    0  <0>0        0.0020
     26  C22        8.5360   31.4830   58.6780 C.ar    0  <0>0        0.0296
     27  C21        7.3900   31.1660   59.3900 C.ar    0  <0>0        0.1401
     28  C20        6.3060   32.0290   59.3850 C.ar    0  <0>0        0.0296
     29  F1         7.3300   30.0120   60.0890 F       0  <0>0       -0.2042
     30  C19        6.3650   33.2100   58.6750 C.ar    0  <0>0        0.0020
@<TRIPOS>BOND
     1     5     4    1
     2     5     6    1
     3     4     3    2
     4     6     7    2
     5     6     2    1
     6     3     2    1
     7     3    24    1
     8     7     8    1
     9     2     1    1
    10    24    25   ar
    11    24    30   ar
    12    25    26   ar
    13     8     9    1
    14    30    28   ar
    15    26    27   ar
    16     1     9    2
    17     1    10    1
    18    28    27   ar
    19    27    29    1
    20    10    11    1
    21    11    12    1
    22    12    23    2
    23    12    13   am
    24    22    15    1
    25    22    21    1
    26    13    15    1
    27    13    14    1
    28    14    16   ar
    29    14    17   ar
    30    16    18   ar
    31    21    17    1
    32    17    20   ar
    33    18    19   ar
    34    20    19   ar

@<TRIPOS>MOLECULE
ZINC11496388_replica-1.pdb
 28 31 0 0 0
SMALL
GASTEIGER

@<TRIPOS>ATOM
      1  C10        6.0060   35.4620   58.5400 C.2     0  <0>0        0.0914
      2  C11        6.7580   36.2330   57.6120 C.3     0  <0>0        0.1144
      3  C12        8.1360   36.7040   57.6940 C.2     0  <0>0       -0.0038
      4  C13        8.6380   37.4320   56.6690 C.2     0  <0>0        0.0331
      5  S2         7.2770   37.5290   55.5220 S.3     0  <0>0       -0.0718
      6  C14        6.0740   36.5980   56.4340 C.2     0  <0>0        0.0950
      7  N2         4.8210   36.2380   56.2270 N.2     0  <0>0       -0.2414
      8  C15        4.1740   35.5220   57.1260 C.3     0  <0>0        0.2511
      9  N3         4.7540   35.1420   58.2490 N.2     0  <0>0       -0.2417
     10  S1         6.7330   34.9340   60.0560 S.3     0  <0>0       -0.0905
     11  C8         6.5970   33.1400   59.8610 C.3     0  <0>0        0.1293
     12  C9         7.8260   32.4660   60.4720 C.3     0  <0>0        0.0218
     13  C7         5.3560   32.6520   60.5640 C.2     0  <0>0        0.2357
     14  N1         4.4690   31.8790   59.9060 N.am    0  <0>0       -0.2789
     15  C4         3.2550   31.3950   60.5770 C.3     0  <0>0        0.0934
     16  C5         4.6960   31.5070   58.5030 C.3     0  <0>0        0.0934
     17  C3         2.0370   31.7810   59.7320 C.3     0  <0>0        0.0216
     18  C2         2.2210   31.2520   58.3080 C.3     0  <0>0        0.0034
     19  C1         0.9920   31.6060   57.4690 C.3     0  <0>0        0.0001
     20  C6         3.4650   31.8870   57.6820 C.3     0  <0>0        0.0216
     21  O1         5.1550   32.9550   61.7210 O.2     0  <0>0       -0.2739
     22  C16        8.9720   36.3910   58.8780 C.ar    0  <0>0       -0.0026
     23  C21        9.7310   35.2210   58.9090 C.ar    0  <0>0        0.0020
     24  C20       10.5070   34.9350   60.0130 C.ar    0  <0>0        0.0296
     25  C19       10.5330   35.8060   61.0900 C.ar    0  <0>0        0.1401
     26  C18        9.7810   36.9700   61.0630 C.ar    0  <0>0        0.0296
     27  F1        11.2950   35.5220   62.1680 F       0  <0>0       -0.2042
     28  C17        9.0050   37.2670   59.9610 C.ar    0  <0>0        0.0020
@<TRIPOS>BOND
     1     5     6    1
     2     5     4    1
     3     7     6    2
     4     7     8    1
     5     6     2    1
     6     4     3    2
     7     8     9    1
     8    19    18    1
     9     2     3    1
    10     2     1    1
    11    20    18    1
    12    20    16    1
    13     3    22    1
    14     9     1    2
    15    18    17    1
    16    16    14    1
    17     1    10    1
    18    22    23   ar
    19    22    28   ar
    20    23    24   ar
    21    17    15    1
    22    11    10    1
    23    11    12    1
    24    11    13    1
    25    14    13   am
    26    14    15    1
    27    28    26   ar
    28    24    25   ar
    29    13    21    2
    30    26    25   ar
    31    25    27    1

@<TRIPOS>MOLECULE
ZINC35031367_replica-1.pdb
 28 29 0 0 0
SMALL
GASTEIGER

@<TRIPOS>ATOM
      1  C10        4.4320   35.2340   57.8380 C.ar    0  <0>0        0.1387
      2  C11        5.4710   34.9830   56.9550 C.ar    0  <0>0        0.0366
      3  C12        6.6940   35.5990   57.1350 C.ar    0  <0>0       -0.0012
      4  C13        6.8820   36.4650   58.1970 C.ar    0  <0>0       -0.0226
      5  C14        5.8490   36.7160   59.0790 C.ar    0  <0>0       -0.0012
      6  C15        4.6220   36.1070   58.8990 C.ar    0  <0>0        0.0366
      7  O1         3.2270   34.6290   57.6630 O.3     0  <0>0       -0.4729
      8  C9         2.3320   35.2270   56.7210 C.3     0  <0>0        0.2321
      9  C8         1.0260   35.6010   57.4260 C.3     0  <0>0        0.1335
     10  C7         0.2250   34.3310   57.7210 C.3     0  <0>0       -0.0435
     11  N1         0.8950   33.5660   58.7800 N.4     0  <0>0        0.3900
     12  C2         0.5770   32.1400   58.6270 C.3     0  <0>0       -0.0580
     13  C1         0.9870   31.6750   57.2270 C.3     0  <0>0       -0.0229
     14  C3         1.3370   31.3290   59.6760 C.3     0  <0>0       -0.0209
     15  C4         0.9240   31.7980   61.0740 C.3     0  <0>0       -0.0042
     16  C5         1.1910   33.3010   61.1970 C.3     0  <0>0       -0.0229
     17  C6         0.4350   34.0400   60.0900 C.3     0  <0>0       -0.0771
     18  H40        1.8930   33.6960   58.7060 H       0  <0>0       -0.0795
     19  O2         0.2600   36.4630   56.5820 O.3     0  <0>0       -0.3828
     20  H39        0.2560   36.2010   55.6510 H       0  <0>0        0.2104
     21  C16        8.2190   37.1350   58.3920 C.3     0  <0>0        0.0189
     22  C17        8.5520   37.9770   57.1600 C.3     0  <0>0        0.0044
     23  C18        8.1610   38.0370   59.6260 C.3     0  <0>0        0.0044
     24  C19        9.2990   36.0690   58.5890 C.3     0  <0>0        0.0040
     25  C20        9.3700   35.6830   60.0670 C.3     0  <0>0        0.0003
     26  C21        8.2130   34.7390   60.4030 C.3     0  <0>0        0.0000
     27  C22       10.7000   34.9790   60.3470 C.3     0  <0>0        0.0000
     28  C23        9.2680   36.9420   60.9290 C.3     0  <0>0        0.0000
@<TRIPOS>BOND
     1    20    19    1
     2    19     9    1
     3     8     9    1
     4     8     7    1
     5     2     3   ar
     6     2     1   ar
     7     3     4   ar
     8    22    21    1
     9    13    12    1
    10     9    10    1
    11     7     1    1
    12    10    11    1
    13     1     6   ar
    14     4    21    1
    15     4     5   ar
    16    21    24    1
    17    21    23    1
    18    24    25    1
    19    12    11    1
    20    12    14    1
    21    18    11    1
    22    11    17    1
    23     6     5   ar
    24    14    15    1
    25    25    27    1
    26    25    26    1
    27    25    28    1
    28    17    16    1
    29    15    16    1

@<TRIPOS>MOLECULE
ZINC23298639_replica-1.pdb
 29 31 0 0 0
SMALL
GASTEIGER

@<TRIPOS>ATOM
      1  C4        -0.8170   31.3340   55.4340 C.2     0  <0>0        0.2243
      2  O1        -1.7710   31.2840   56.1810 O.2     0  <0>0       -0.2750
      3  N1        -0.8180   30.6240   54.2890 N.am    0  <0>0       -0.3021
      4  H8         0.0480   30.6700   53.6130 H       0  <0>0        0.1497
      5  C3         0.3720   32.1910   55.7880 C.3     0  <0>0        0.1045
      6  C2         0.9070   31.7800   57.1610 C.3     0  <0>0        0.0810
      7  C1         2.4250   31.9680   57.1950 C.3     0  <0>0        0.0218
      8  N2         0.5830   30.3720   57.4090 N.am    0  <0>0       -0.3020
      9  C17        0.2200   29.9730   58.6440 C.2     0  <0>0        0.2458
     10  O2         0.1590   30.7790   59.5510 O.2     0  <0>0       -0.2701
     11  H19        0.6370   29.6420   56.5880 H       0  <0>0        0.1497
     12  C18       -0.1060   28.5530   58.8950 C.ar    0  <0>0        0.0534
     13  C23        0.9000   27.6570   59.2590 C.ar    0  <0>0        0.0045
     14  C22        0.5890   26.3320   59.4920 C.ar    0  <0>0        0.0001
     15  C21       -0.7180   25.8930   59.3650 C.ar    0  <0>0        0.0000
     16  C20       -1.7200   26.7760   59.0050 C.ar    0  <0>0        0.0001
     17  C19       -1.4220   28.1040   58.7740 C.ar    0  <0>0        0.0045
     18  C5        -1.9720   29.7910   53.9450 C.3     0  <0>0        0.0941
     19  C6        -2.9460   30.5990   53.0850 C.3     0  <0>0        0.0262
     20  C7        -1.5080   28.5810   53.1760 C.ar    0  <0>0       -0.0045
     21  C12       -0.7800   27.5690   53.8240 C.ar    0  <0>0       -0.0024
     22  C11       -0.3500   26.4390   53.0840 C.ar    0  <0>0       -0.0003
     23  C13       -0.4700   27.6540   55.1930 C.ar    0  <0>0       -0.0003
     24  C10       -0.6600   26.3540   51.7170 C.ar    0  <0>0       -0.0000
     25  C16        0.3730   25.4250   53.7340 C.ar    0  <0>0       -0.0000
     26  C9        -1.3670   27.3530   51.1220 C.ar    0  <0>0       -0.0003
     27  C8        -1.7890   28.4640   51.8500 C.ar    0  <0>0       -0.0027
     28  C15        0.6590   25.5440   55.0590 C.ar    0  <0>0       -0.0000
     29  C14        0.2360   26.6550   55.7870 C.ar    0  <0>0       -0.0000
@<TRIPOS>BOND
     1    26    24   ar
     2    26    27   ar
     3    24    22   ar
     4    27    20   ar
     5    22    25   ar
     6    22    21   ar
     7    19    18    1
     8    20    21   ar
     9    20    18    1
    10     4     3    1
    11    25    28   ar
    12    21    23   ar
    13    18     3    1
    14     3     1   am
    15    28    29   ar
    16    23    29   ar
    17     1     5    1
    18     1     2    2
    19     5     6    1
    20    11     8    1
    21     6     7    1
    22     6     8    1
    23     8     9   am
    24     9    12    1
    25     9    10    2
    26    17    12   ar
    27    17    16   ar
    28    12    13   ar
    29    16    15   ar
    30    13    14   ar
    31    15    14   ar

@<TRIPOS>MOLECULE
CHEMBL240533_replica-1.pdb
 27 31 0 0 0
SMALL
GASTEIGER

@<TRIPOS>ATOM
      1  C7         3.7710   33.0130   57.3370 C.2     0  <0>0        0.2491
      2  O1         3.4210   32.4800   56.3030 O.2     0  <0>0       -0.2699
      3  N1         5.0770   33.0530   57.6670 N.am    0  <0>0       -0.2732
      4  C8         5.5130   33.6080   58.9570 C.3     0  <0>0        0.1111
      5  C9         6.6110   34.6440   58.6960 C.3     0  <0>0        0.0944
      6  N2         7.6760   34.0320   57.8910 N.3     0  <0>0       -0.2638
      7  C10        7.1790   33.6230   56.5710 C.3     0  <0>0        0.0944
      8  C11        6.1040   32.5390   56.7480 C.3     0  <0>0        0.1111
      9  C12        8.8260   34.9370   57.7640 C.3     0  <0>0        0.1031
     10  C20        9.4510   35.1780   59.1160 C.ar    0  <0>0       -0.0036
     11  C19        9.3660   36.5420   59.3800 C.ar    0  <0>0       -0.0026
     12  C21       10.0340   34.3260   60.0310 C.ar    0  <0>0       -0.0026
     13  C18        8.7020   37.2250   58.2430 C.ar    0  <0>0       -0.0026
     14  C24        9.8760   37.0400   60.5810 C.ar    0  <0>0       -0.0003
     15  C13        8.3720   36.2880   57.2680 C.ar    0  <0>0       -0.0036
     16  C17        8.3880   38.5690   58.0340 C.ar    0  <0>0       -0.0003
     17  C14        7.7410   36.6840   56.1070 C.ar    0  <0>0       -0.0026
     18  C15        7.4330   38.0180   55.9070 C.ar    0  <0>0       -0.0003
     19  C16        7.7570   38.9570   56.8700 C.ar    0  <0>0       -0.0000
     20  C23       10.4570   36.1810   61.4910 C.ar    0  <0>0       -0.0000
     21  C22       10.5370   34.8260   61.2190 C.ar    0  <0>0       -0.0003
     22  C4         2.7630   33.6180   58.2350 C.ar    0  <0>0        0.0536
     23  C3         2.4370   34.9700   58.1120 C.ar    0  <0>0        0.0045
     24  C2         1.4960   35.5280   58.9520 C.ar    0  <0>0        0.0001
     25  C1         0.8750   34.7510   59.9130 C.ar    0  <0>0        0.0000
     26  C6         1.1930   33.4100   60.0410 C.ar    0  <0>0        0.0001
     27  C5         2.1340   32.8400   59.2070 C.ar    0  <0>0        0.0045
@<TRIPOS>BOND
     1    18    17   ar
     2    18    19   ar
     3    17    15   ar
     4     2     1    2
     5     7     8    1
     6     7     6    1
     7     8     3    1
     8    19    16   ar
     9    15     9    1
    10    15    13   ar
    11     1     3   am
    12     1    22    1
    13     3     4    1
    14     9     6    1
    15     9    10    1
    16     6     5    1
    17    16    13   ar
    18    23    22   ar
    19    23    24   ar
    20    22    27   ar
    21    13    11    1
    22     5     4    1
    23    24    25   ar
    24    10    11   ar
    25    10    12   ar
    26    27    26   ar
    27    11    14   ar
    28    25    26   ar
    29    12    21   ar
    30    14    20   ar
    31    21    20   ar

@<TRIPOS>MOLECULE
ZINC04715823_replica-1.pdb
 28 32 0 0 0
SMALL
GASTEIGER

@<TRIPOS>ATOM
      1  C2        -0.8780   25.8280   57.5820 C.ar    0  <0>0        0.1722
      2  C3        -1.9650   25.7820   58.4360 C.ar    0  <0>0        0.0400
      3  C4        -2.7930   26.8810   58.5650 C.ar    0  <0>0        0.0030
      4  C5        -2.5440   28.0180   57.8200 C.ar    0  <0>0        0.0006
      5  C6        -1.4640   28.0680   56.9580 C.ar    0  <0>0        0.0348
      6  C7        -0.6100   26.9820   56.8380 C.ar    0  <0>0        0.1722
      7  O2         0.4980   26.9750   56.0530 O.3     0  <0>0       -0.4523
      8  C8         0.6790   27.9880   55.0570 C.3     0  <0>0        0.2836
      9  N1         0.1540   29.2320   55.6340 N.pl3   0  <0>0       -0.1912
     10  C9        -1.2390   29.3060   56.1300 C.3     0  <0>0        0.1263
     11  C10       -1.2250   30.5770   56.9920 C.3     0  <0>0        0.0740
     12  C11        0.0960   31.2310   56.6410 C.2     0  <0>0        0.0842
     13  N2         0.7820   30.4380   55.8790 N.2     0  <0>0       -0.1826
     14  C16       -0.0870   27.6290   53.8100 C.ar    0  <0>0        0.0411
     15  C21       -0.0040   26.3500   53.2920 C.ar    0  <0>0        0.0330
     16  C20       -0.7100   26.0190   52.1490 C.ar    0  <0>0        0.1672
     17  C19       -1.4930   26.9730   51.5190 C.ar    0  <0>0        0.1674
     18  F1        -0.6320   24.7670   51.6450 F       0  <0>0       -0.2018
     19  C18       -1.5710   28.2550   52.0370 C.ar    0  <0>0        0.0318
     20  F2        -2.1800   26.6520   50.4010 F       0  <0>0       -0.2018
     21  C17       -0.8670   28.5810   53.1800 C.ar    0  <0>0        0.0034
     22  O1        -0.0640   24.7460   57.4660 O.3     0  <0>0       -0.4684
     23  C1        -0.4220   23.5810   58.2110 C.3     0  <0>0        0.2526
     24  C12        0.5310   32.5580   57.0930 C.ar    0  <0>0        0.0446
     25  S1         2.0060   33.4670   56.6640 S.2     0  <0>0       -0.0852
     26  C15        1.7030   34.9250   57.6500 C.ar    0  <0>0        0.0355
     27  C14        0.5130   34.6340   58.2360 C.ar    0  <0>0        0.0075
     28  C13       -0.1000   33.4340   57.9590 C.ar    0  <0>0        0.0082
@<TRIPOS>BOND
     1    20    17    1
     2    17    19   ar
     3    17    16   ar
     4    18    16    1
     5    19    21   ar
     6    16    15   ar
     7    21    14   ar
     8    15    14   ar
     9    14     8    1
    10     8     9    1
    11     8     7    1
    12     9    13    1
    13     9    10    1
    14    13    12    2
    15     7     6    1
    16    10     5    1
    17    10    11    1
    18    12    11    1
    19    12    24    1
    20    25    24   ar
    21    25    26   ar
    22     6     5   ar
    23     6     1   ar
    24     5     4   ar
    25    24    28   ar
    26    22     1    1
    27    22    23    1
    28     1     2   ar
    29    26    27   ar
    30     4     3   ar
    31    28    27   ar
    32     2     3   ar

@<TRIPOS>MOLECULE
ZINC02396604_replica-1.pdb
 30 34 0 0 0
SMALL
GASTEIGER

@<TRIPOS>ATOM
      1  N1        -0.5620   29.1990   57.6520 N.am    0  <0>0       -0.2054
      2  C7         0.0510   29.8990   58.6360 C.2     0  <0>0        0.2552
      3  O1         0.1830   29.4330   59.7530 O.2     0  <0>0       -0.2726
      4  C8         0.5540   31.2360   58.3040 C.3     0  <0>0        0.2074
      5  C9         1.2020   32.0410   59.2380 C.2     0  <0>0       -0.0024
      6  C10        1.6410   33.2960   58.8390 C.2     0  <0>0        0.0014
      7  C11        1.4320   33.7120   57.5380 C.2     0  <0>0        0.1168
      8  N2         0.8090   32.9300   56.6660 N.2     0  <0>0       -0.3475
      9  C12        0.3640   31.7220   56.9890 C.1     0  <0>0        0.1271
     10  N3        -0.2660   30.9390   56.0920 N.2     0  <0>0       -0.3206
     11  C13       -0.7040   29.7440   56.4060 C.2     0  <0>0        0.2323
     12  C21        1.9020   35.0560   57.0390 C.3     0  <0>0        0.0596
     13  C22        2.1850   35.9940   58.2100 C.3     0  <0>0        0.0078
     14  C23        3.1150   35.2750   59.1950 C.3     0  <0>0        0.0052
     15  C24        2.3270   34.1540   59.8690 C.3     0  <0>0        0.0284
     16  S1        -1.5150   28.7940   55.1630 S.3     0  <0>0       -0.0606
     17  C14       -0.0950   28.3420   54.1370 C.3     0  <0>0        0.0930
     18  C15       -0.5360   27.3790   53.0650 C.ar    0  <0>0       -0.0003
     19  C20       -0.1980   26.0410   53.1550 C.ar    0  <0>0        0.0545
     20  C19       -0.6040   25.1570   52.1700 C.ar    0  <0>0        0.0111
     21 Cl          0.7350   25.4690   54.5020 Cl      0  <0>0       -0.0825
     22  C18       -1.3470   25.6130   51.0970 C.ar    0  <0>0        0.0008
     23  C17       -1.6850   26.9500   51.0090 C.ar    0  <0>0       -0.0002
     24  C16       -1.2840   27.8320   51.9940 C.ar    0  <0>0       -0.0026
     25  C4        -1.0570   27.9150   57.9120 C.ar    0  <0>0        0.0609
     26  C3        -2.3610   27.7490   58.3590 C.ar    0  <0>0        0.0153
     27  C2        -2.8450   26.4820   58.6160 C.ar    0  <0>0        0.0013
     28  C1        -2.0330   25.3780   58.4280 C.ar    0  <0>0        0.0001
     29  C6        -0.7350   25.5400   57.9820 C.ar    0  <0>0        0.0013
     30  C5        -0.2440   26.8050   57.7240 C.ar    0  <0>0        0.0153
@<TRIPOS>BOND
     1    23    22   ar
     2    23    24   ar
     3    22    20   ar
     4    24    18   ar
     5    20    19   ar
     6    18    19   ar
     7    18    17    1
     8    19    21    1
     9    17    16    1
    10    16    11    1
    11    10    11    2
    12    10     9    2
    13    11     1    1
    14     8     9    2
    15     8     7    2
    16     9     4    1
    17    12     7    1
    18    12    13    1
    19     7     6    1
    20     1    25    1
    21     1     2   am
    22    30    25   ar
    23    30    29   ar
    24    25    26   ar
    25    29    28   ar
    26    13    14    1
    27     4     2    1
    28     4     5    1
    29    26    27   ar
    30    28    27   ar
    31     2     3    2
    32     6     5    2
    33     6    15    1
    34    14    15    1

@<TRIPOS>MOLECULE
ZINC02918464_replica-1.pdb
 25 28 0 0 0
SMALL
GASTEIGER

@<TRIPOS>ATOM
      1  C7         3.9560   35.4610   55.0290 C.3     0  <0>0        0.0965
      2  C8         4.8740   36.5240   55.6450 C.3     0  <0>0        0.0532
      3  C9         5.5640   35.9520   56.8900 C.3     0  <0>0        0.1351
      4  N1         6.1380   34.6490   56.5550 N.ar    0  <0>0       -0.2184
      5  C10        5.7670   33.9030   55.4870 C.ar    0  <0>0        0.2158
      6  N2         6.4800   32.8090   55.4900 N.ar    0  <0>0       -0.1903
      7  C11        7.3120   32.8210   56.5370 C.ar    0  <0>0        0.2220
      8  N3         7.1340   33.9280   57.2140 N.ar    0  <0>0       -0.1440
      9  N4         4.7790   34.3160   54.5960 N.pl3   0  <0>0       -0.3010
     10  H10        4.6390   33.8790   53.7420 H       0  <0>0        0.1499
     11  C12        6.6570   36.8890   57.3360 C.ar    0  <0>0        0.0381
     12  C17        6.6960   37.3330   58.6450 C.ar    0  <0>0        0.0577
     13  C16        7.7030   38.1880   59.0560 C.ar    0  <0>0        0.0113
     14 Cl          5.4860   36.8110   59.7750 Cl      0  <0>0       -0.0824
     15  C15        8.6640   38.6100   58.1550 C.ar    0  <0>0        0.0032
     16  C14        8.6230   38.1710   56.8450 C.ar    0  <0>0        0.0294
     17  C13        7.6190   37.3100   56.4330 C.ar    0  <0>0        0.1388
     18  F1         7.5790   36.8820   55.1530 F       0  <0>0       -0.2044
     19  C3         2.9520   35.0040   56.0560 C.ar    0  <0>0       -0.0039
     20  C2         2.3660   35.9240   56.9060 C.ar    0  <0>0       -0.0027
     21  C1         1.4440   35.5050   57.8480 C.ar    0  <0>0        0.0002
     22  C6         1.1080   34.1670   57.9400 C.ar    0  <0>0        0.0067
     23  C5         1.6950   33.2470   57.0880 C.ar    0  <0>0        0.0343
     24  C4         2.6150   33.6660   56.1460 C.ar    0  <0>0        0.0040
     25 Br          1.2350   31.4170   57.2130 Br      0  <0>0       -0.0490
@<TRIPOS>BOND
     1    10     9    1
     2     9     1    1
     3     9     5    1
     4     1     2    1
     5     1    19    1
     6    18    17    1
     7     5     6   ar
     8     5     4   ar
     9     6     7   ar
    10     2     3    1
    11    19    24   ar
    12    19    20   ar
    13    24    23   ar
    14    17    16   ar
    15    17    11   ar
    16     7     8   ar
    17     4     3    1
    18     4     8   ar
    19    16    15   ar
    20     3    11    1
    21    20    21   ar
    22    23    25    1
    23    23    22   ar
    24    11    12   ar
    25    21    22   ar
    26    15    13   ar
    27    12    13   ar
    28    12    14    1

@<TRIPOS>MOLECULE
ZINC05867917_replica-1.pdb
 25 26 0 0 0
SMALL
GASTEIGER

@<TRIPOS>ATOM
      1  N1         8.1640   36.2700   57.8280 N.3     0  <0>0       -0.1292
      2  C2         8.6260   36.9310   58.8450 C.3     0  <0>0        0.1159
      3  C1         8.2150   38.3640   59.0620 C.3     0  <0>0        0.0256
      4  C10        9.5550   36.2790   59.7860 C.ar    0  <0>0       -0.0047
      5  C15        9.9400   36.9340   60.9590 C.ar    0  <0>0       -0.0032
      6  C14       10.8100   36.3180   61.8350 C.ar    0  <0>0       -0.0046
      7  C13       11.2990   35.0540   61.5560 C.ar    0  <0>0       -0.0228
      8  C12       10.9210   34.4000   60.3960 C.ar    0  <0>0       -0.0046
      9  C11       10.0490   35.0010   59.5150 C.ar    0  <0>0       -0.0032
     10  C16       12.2480   34.3890   62.5180 C.3     0  <0>0        0.0189
     11  C17       11.7070   33.0080   62.8950 C.3     0  <0>0        0.0044
     12  C18       13.6190   34.2350   61.8570 C.3     0  <0>0        0.0044
     13  C19       12.3830   35.2460   63.7780 C.3     0  <0>0        0.0044
     14  N2         6.9580   36.6590   57.2300 N.am    0  <0>0       -0.2440
     15  H4         6.9100   37.4900   56.7300 H       0  <0>0        0.1696
     16  C3         5.8650   35.8790   57.3460 C.2     0  <0>0        0.1459
     17  S1         5.4920   34.7390   56.1250 S.2     0  <0>0       -0.0176
     18  N3         5.0640   35.9980   58.4240 N.am    0  <0>0       -0.3168
     19  H5         5.2750   36.6440   59.1160 H       0  <0>0        0.1484
     20  C4         3.8720   35.1550   58.5470 C.3     0  <0>0        0.0706
     21  C9         3.9140   34.4060   59.8810 C.3     0  <0>0        0.0195
     22  C8         2.6690   33.5260   60.0100 C.3     0  <0>0        0.0017
     23  C7         1.4160   34.4030   59.9560 C.3     0  <0>0        0.0001
     24  C6         1.3750   35.1520   58.6230 C.3     0  <0>0        0.0017
     25  C5         2.6200   36.0320   58.4940 C.3     0  <0>0        0.0195
@<TRIPOS>BOND
     1    17    16    2
     2    15    14    1
     3    14    16    1
     4    14     1    1
     5    16    18    1
     6     1     2    1
     7    18    20    1
     8    18    19    1
     9    25    20    1
    10    25    24    1
    11    20    21    1
    12    24    23    1
    13     2     3    1
    14     2     4    1
    15     9     4   ar
    16     9     8   ar
    17     4     5   ar
    18    21    22    1
    19    23    22    1
    20     8     7   ar
    21     5     6   ar
    22     7     6   ar
    23     7    10    1
    24    12    10    1
    25    10    11    1
    26    10    13    1

@<TRIPOS>MOLECULE
ZINC00257192_replica-1.pdb
 24 26 0 0 0
SMALL
GASTEIGER

@<TRIPOS>ATOM
      1  N1         8.0480   35.5460   59.9190 N.am    0  <0>0       -0.2648
      2  C13        9.3300   35.8020   60.2480 C.2     0  <0>0        0.2497
      3  O2         9.7940   36.9130   60.0690 O.2     0  <0>0       -0.2699
      4  C7         7.2150   36.6030   59.3400 C.3     0  <0>0        0.1209
      5  C4         7.1540   36.4320   57.8440 C.ar    0  <0>0       -0.0023
      6  C3         8.3110   36.5070   57.0920 C.ar    0  <0>0       -0.0026
      7  C2         8.2540   36.3500   55.7190 C.ar    0  <0>0       -0.0003
      8  C1         7.0410   36.1180   55.1000 C.ar    0  <0>0       -0.0000
      9  C6         5.8840   36.0420   55.8520 C.ar    0  <0>0       -0.0003
     10  C5         5.9410   36.1940   57.2240 C.ar    0  <0>0       -0.0026
     11  C8         7.4900   34.2090   60.1350 C.3     0  <0>0        0.1587
     12  C9         7.5050   33.4430   58.8370 C.ar    0  <0>0        0.1431
     13  O1         8.5770   33.2480   58.0520 O.2     0  <0>0       -0.4530
     14  C12        8.2220   32.5190   56.9810 C.ar    0  <0>0        0.1792
     15  C11        6.9070   32.2490   57.0690 C.ar    0  <0>0        0.0435
     16  C10        6.4440   32.8450   58.2650 C.ar    0  <0>0        0.0379
     17  C14       10.1640   34.7440   60.8200 C.2     0  <0>0        0.0580
     18  C15       11.2240   35.0630   61.5900 C.2     0  <0>0        0.0047
     19  C16       12.0630   33.9990   62.1660 C.ar    0  <0>0        0.0001
     20  C21       13.4450   34.1780   62.2820 C.ar    0  <0>0        0.0000
     21  C20       14.2230   33.1780   62.8220 C.ar    0  <0>0        0.0000
     22  C19       13.6400   31.9970   63.2510 C.ar    0  <0>0        0.0000
     23  C18       12.2730   31.8120   63.1400 C.ar    0  <0>0        0.0000
     24  C17       11.4800   32.8060   62.6060 C.ar    0  <0>0        0.0000
@<TRIPOS>BOND
     1     8     7   ar
     2     8     9   ar
     3     7     6   ar
     4     9    10   ar
     5    14    15   ar
     6    14    13   ar
     7    15    16   ar
     8     6     5   ar
     9    10     5   ar
    10     5     4    1
    11    13    12   ar
    12    16    12   ar
    13    12    11    1
    14     4     1    1
    15     1    11    1
    16     1     2   am
    17     3     2    2
    18     2    17    1
    19    17    18    2
    20    18    19    1
    21    19    20   ar
    22    19    24   ar
    23    20    21   ar
    24    24    23   ar
    25    21    22   ar
    26    23    22   ar

@<TRIPOS>MOLECULE
ZINC06678041_replica-1.pdb
 29 33 0 0 0
SMALL
GASTEIGER

@<TRIPOS>ATOM
      1  C8         7.3950   33.8930   58.5620 C.3     0  <0>0        0.1867
      2  N1         7.6360   34.8750   57.4910 N.pl3   0  <0>0       -0.3144
      3  C9         7.9670   36.1990   57.8020 C.ar    0  <0>0        0.0435
      4  C10        7.9640   37.1340   56.7680 C.ar    0  <0>0        0.0141
      5  C11        8.3230   38.4430   57.0120 C.ar    0  <0>0        0.0012
      6  C12        8.6870   38.8350   58.2870 C.ar    0  <0>0       -0.0002
      7  C13        8.6840   37.9160   59.3180 C.ar    0  <0>0       -0.0014
      8  C14        8.3200   36.6030   59.0820 C.ar    0  <0>0        0.0108
      9  C15        8.3090   35.6250   60.2270 C.3     0  <0>0        0.1227
     10  N2         8.3080   34.2640   59.6530 N.pl3   0  <0>0       -0.2098
     11  N3         9.3030   33.5170   60.2610 N.2     0  <0>0       -0.1845
     12  C16       10.0770   34.2150   61.0260 C.2     0  <0>0        0.0782
     13  C17        9.6160   35.6780   61.0320 C.3     0  <0>0        0.0733
     14  H10        7.5650   34.6020   56.5640 H       0  <0>0        0.1486
     15  C5         5.9640   33.9720   59.0280 C.ar    0  <0>0        0.0161
     16  C4         5.5760   33.3180   60.1820 C.ar    0  <0>0        0.0021
     17  C3         4.2650   33.3880   60.6120 C.ar    0  <0>0        0.0367
     18  C2         3.3370   34.1180   59.8830 C.ar    0  <0>0        0.1387
     19  C7         3.7290   34.7750   58.7260 C.ar    0  <0>0        0.0367
     20  C6         5.0420   34.7060   58.3030 C.ar    0  <0>0        0.0021
     21  O1         2.0470   34.1900   60.3030 O.3     0  <0>0       -0.4714
     22  C1         1.1320   34.9080   59.4720 C.3     0  <0>0        0.2525
     23  C18       11.2320   33.6860   61.7760 C.ar    0  <0>0        0.0152
     24  C23       11.1440   32.4490   62.4190 C.ar    0  <0>0        0.0035
     25  C22       12.2280   31.9600   63.1180 C.ar    0  <0>0        0.0297
     26  C21       13.4020   32.6940   63.1830 C.ar    0  <0>0        0.1401
     27  C20       13.4950   33.9220   62.5470 C.ar    0  <0>0        0.0297
     28  F1        14.4600   32.2100   63.8700 F       0  <0>0       -0.2042
     29  C19       12.4200   34.4180   61.8410 C.ar    0  <0>0        0.0035
@<TRIPOS>BOND
     1    14     2    1
     2     4     5   ar
     3     4     3   ar
     4     5     6   ar
     5     2     3    1
     6     2     1    1
     7     3     8   ar
     8     6     7   ar
     9    20    19   ar
    10    20    15   ar
    11     1    15    1
    12     1    10    1
    13    19    18   ar
    14    15    16   ar
    15     8     7   ar
    16     8     9    1
    17    22    21    1
    18    10     9    1
    19    10    11    1
    20    18    21    1
    21    18    17   ar
    22    16    17   ar
    23     9    13    1
    24    11    12    2
    25    12    13    1
    26    12    23    1
    27    23    29   ar
    28    23    24   ar
    29    29    27   ar
    30    24    25   ar
    31    27    26   ar
    32    25    26   ar
    33    26    28    1

@<TRIPOS>MOLECULE
ZINC30398415_replica-1.pdb
 29 31 0 0 0
SMALL
GASTEIGER

@<TRIPOS>ATOM
      1  C4         1.5560   32.0560   56.6010 C.2     0  <0>0        0.2243
      2  O1         2.2660   31.4000   57.3340 O.2     0  <0>0       -0.2750
      3  N1         0.4570   31.5000   56.0540 N.am    0  <0>0       -0.3021
      4  H8        -0.1110   32.0250   55.4680 H       0  <0>0        0.1497
      5  C3         1.9030   33.4920   56.3030 C.3     0  <0>0        0.1045
      6  C2         1.5440   34.3640   57.5070 C.3     0  <0>0        0.0810
      7  C1         0.5800   35.4680   57.0680 C.3     0  <0>0        0.0218
      8  N2         0.9060   33.5390   58.5360 N.am    0  <0>0       -0.3020
      9  C17        1.3780   33.5500   59.7980 C.2     0  <0>0        0.2458
     10  O2         2.3340   34.2450   60.0830 O.2     0  <0>0       -0.2701
     11  H19        0.1430   32.9840   58.3080 H       0  <0>0        0.1497
     12  C18        0.7340   32.7160   60.8360 C.ar    0  <0>0        0.0534
     13  C23        0.5780   31.3440   60.6340 C.ar    0  <0>0        0.0045
     14  C22       -0.0190   30.5710   61.6090 C.ar    0  <0>0        0.0001
     15  C21       -0.4720   31.1550   62.7790 C.ar    0  <0>0        0.0000
     16  C20       -0.3250   32.5150   62.9820 C.ar    0  <0>0        0.0001
     17  C19        0.2760   33.2990   62.0180 C.ar    0  <0>0        0.0045
     18  C5         0.1190   30.1040   56.3430 C.3     0  <0>0        0.0941
     19  C6        -0.9950   30.0560   57.3900 C.3     0  <0>0        0.0262
     20  C7        -0.3470   29.4280   55.0800 C.ar    0  <0>0       -0.0045
     21  C16        0.0580   28.1560   54.8130 C.ar    0  <0>0       -0.0027
     22  C15       -0.3810   27.5200   53.6380 C.ar    0  <0>0       -0.0003
     23  C10       -1.2310   28.2190   52.7450 C.ar    0  <0>0       -0.0000
     24  C14        0.0110   26.2060   53.3310 C.ar    0  <0>0       -0.0000
     25  C9        -1.6230   29.5340   53.0530 C.ar    0  <0>0       -0.0003
     26  C11       -1.6640   27.5850   51.5680 C.ar    0  <0>0       -0.0000
     27  C8        -1.1830   30.1150   54.2020 C.ar    0  <0>0       -0.0027
     28  C12       -1.2630   26.3120   51.3030 C.ar    0  <0>0       -0.0000
     29  C13       -0.4290   25.6240   52.1810 C.ar    0  <0>0       -0.0000
@<TRIPOS>BOND
     1    28    26   ar
     2    28    29   ar
     3    26    23   ar
     4    29    24   ar
     5    23    25   ar
     6    23    22   ar
     7    25    27   ar
     8    24    22   ar
     9    22    21   ar
    10    27    20   ar
    11    21    20   ar
    12    20    18    1
    13     4     3    1
    14     3    18    1
    15     3     1   am
    16     5     1    1
    17     5     6    1
    18    18    19    1
    19     1     2    2
    20     7     6    1
    21     6     8    1
    22    11     8    1
    23     8     9   am
    24     9    10    2
    25     9    12    1
    26    13    12   ar
    27    13    14   ar
    28    12    17   ar
    29    14    15   ar
    30    17    16   ar
    31    15    16   ar

@<TRIPOS>MOLECULE
ZINC00105816_replica-1.pdb
 21 23 0 0 0
SMALL
GASTEIGER

@<TRIPOS>ATOM
      1  C1        -2.9440   28.9250   55.8990 C.3     0  <0>0        0.0197
      2  C2        -1.7070   29.7560   55.6770 C.3     0  <0>0        0.1077
      3  C3        -0.7330   29.6300   54.7260 C.2     0  <0>0        0.1212
      4  N1         0.2800   30.4920   54.7150 N.2     0  <0>0       -0.3843
      5  C4         0.3650   31.4590   55.6110 C.2     0  <0>0        0.2110
      6  S1        -1.1090   31.1770   56.5820 S.3     0  <0>0       -0.0607
      7  N2         1.3370   32.4360   55.7570 N.pl3   0  <0>0       -0.2813
      8  H4         1.8890   32.6890   55.0010 H       0  <0>0        0.1551
      9  C5         1.5270   33.0540   56.9980 C.ar    0  <0>0        0.0783
     10  C10        1.0980   34.3620   57.1990 C.ar    0  <0>0        0.1535
     11  C9         1.2830   34.9670   58.4280 C.ar    0  <0>0        0.0309
     12  F1         0.4970   35.0380   56.1960 F       0  <0>0       -0.2029
     13  C8         1.9030   34.2760   59.4530 C.ar    0  <0>0        0.0024
     14  C7         2.3340   32.9770   59.2550 C.ar    0  <0>0        0.0014
     15  C6         2.1480   32.3650   58.0310 C.ar    0  <0>0        0.0170
     16  C11       -0.8090   28.5490   53.7150 C.ar    0  <0>0        0.0263
     17  C16       -1.5140   28.7460   52.5300 C.ar    0  <0>0        0.0022
     18  C15       -1.5810   27.7360   51.5920 C.ar    0  <0>0        0.0001
     19  C14       -0.9460   26.5290   51.8250 C.ar    0  <0>0        0.0000
     20  C13       -0.2440   26.3270   53.0000 C.ar    0  <0>0        0.0001
     21  C12       -0.1670   27.3320   53.9420 C.ar    0  <0>0        0.0022
@<TRIPOS>BOND
     1    18    19   ar
     2    18    17   ar
     3    19    20   ar
     4    17    16   ar
     5    20    21   ar
     6    16    21   ar
     7    16     3    1
     8     4     3    2
     9     4     5    2
    10     3     2    1
    11     8     7    1
    12     5     7    1
    13     5     6    1
    14     2     1    1
    15     2     6    1
    16     7     9    1
    17    12    10    1
    18     9    10   ar
    19     9    15   ar
    20    10    11   ar
    21    15    14   ar
    22    11    13   ar
    23    14    13   ar

@<TRIPOS>MOLECULE
ZINC04184913_replica-1.pdb
 29 33 0 0 0
SMALL
GASTEIGER

@<TRIPOS>ATOM
      1  C1        11.4530   31.7810   63.2210 C.3     0  <0>0        0.0664
      2  C2        10.8200   32.7360   62.2430 C.2     0  <0>0        0.1087
      3  C3        10.0320   32.2280   61.2120 C.2     0  <0>0        0.0237
      4  C4         9.4500   33.0800   60.3170 C.2     0  <0>0       -0.0130
      5  C5         9.6710   34.4620   60.4740 C.3     0  <0>0        0.0944
      6  C6        10.4840   34.9110   61.5440 C.2     0  <0>0        0.1161
      7  N1        11.0250   34.0230   62.3860 N.2     0  <0>0       -0.4099
      8  C7        10.7110   36.2890   61.7040 C.2     0  <0>0        0.0294
      9  C8        10.1510   37.1740   60.8380 C.2     0  <0>0        0.0163
     10  C9         9.3430   36.7370   59.7800 C.2     0  <0>0        0.0414
     11  C10        9.0990   35.3950   59.5930 C.2     0  <0>0       -0.0126
     12  C11        8.2310   34.9240   58.4620 C.3     0  <0>0        0.0683
     13  C12        8.0740   35.9870   57.4050 C.2     0  <0>0        0.0293
     14  C13        8.3490   37.2830   57.6680 C.2     0  <0>0        0.0246
     15  N2         8.7850   37.6670   58.9040 N.pl3   0  <0>0       -0.3164
     16  C14        8.1890   38.3450   56.6080 C.3     0  <0>0        0.0414
     17  C15        7.0710   37.9440   55.6430 C.3     0  <0>0        0.0141
     18  C16        7.4240   36.5860   55.0280 C.3     0  <0>0        0.0693
     19  C17        7.6260   35.5870   56.1340 C.2     0  <0>0        0.1706
     20  O1         7.3990   34.4120   55.9250 O.2     0  <0>0       -0.2916
     21  H9         8.7030   38.5950   59.1760 H       0  <0>0        0.1519
     22  C18        6.8710   34.5660   59.0040 C.ar    0  <0>0       -0.0143
     23  C23        6.4070   33.2680   58.9030 C.ar    0  <0>0       -0.0005
     24  C22        5.1610   32.9370   59.3990 C.ar    0  <0>0        0.0366
     25  C21        4.3750   33.9080   60.0010 C.ar    0  <0>0        0.1387
     26  C20        4.8430   35.2100   60.1020 C.ar    0  <0>0        0.0366
     27  C19        6.0910   35.5350   59.6090 C.ar    0  <0>0       -0.0005
     28  O2         3.1490   33.5850   60.4890 O.3     0  <0>0       -0.4714
     29  C24        2.0210   34.2170   59.8800 C.3     0  <0>0        0.2525
@<TRIPOS>BOND
     1    18    17    1
     2    18    19    1
     3    17    16    1
     4    20    19    2
     5    19    13    1
     6    16    14    1
     7    13    14    2
     8    13    12    1
     9    14    15    1
    10    12    22    1
    11    12    11    1
    12    23    22   ar
    13    23    24   ar
    14    15    21    1
    15    15    10    1
    16    22    27   ar
    17    24    25   ar
    18    11    10    2
    19    11     5    1
    20    27    26   ar
    21    10     9    1
    22    29    28    1
    23    25    26   ar
    24    25    28    1
    25     4     5    1
    26     4     3    2
    27     5     6    1
    28     9     8    2
    29     3     2    1
    30     6     8    1
    31     6     7    2
    32     2     7    2
    33     2     1    1

@<TRIPOS>MOLECULE
ZINC06057591_replica-1.pdb
 29 31 0 0 0
SMALL
GASTEIGER

@<TRIPOS>ATOM
      1  S2         2.7820   32.0590   57.2020 S.3     0  <0>0       -0.0768
      2  C9         4.1370   33.0040   56.5900 C.ar    0  <0>0        0.1611
      3  N3         4.2330   33.7050   55.4760 N.ar    0  <0>0       -0.1331
      4  N2         5.3970   34.3820   55.1910 N.ar    0  <0>0       -0.1249
      5  C8         6.4140   34.3180   56.0280 C.ar    0  <0>0        0.1865
      6  S1         5.7490   33.2710   57.3120 S.2     0  <0>0       -0.0242
      7  N1         7.6680   34.9120   55.9370 N.pl3   0  <0>0       -0.2913
      8  H9         8.3610   34.5030   55.3960 H       0  <0>0        0.1541
      9  C6         7.9310   36.0980   56.6270 C.ar    0  <0>0        0.0494
     10  C5         7.7510   37.3240   55.9990 C.ar    0  <0>0        0.0146
     11  C4         8.0120   38.4940   56.6850 C.ar    0  <0>0        0.0009
     12  C3         8.4510   38.4460   57.9950 C.ar    0  <0>0       -0.0042
     13  C2         8.6350   37.2280   58.6220 C.ar    0  <0>0       -0.0206
     14  C1         9.1180   37.1810   60.0490 C.3     0  <0>0        0.0311
     15  C7         8.3720   36.0540   57.9440 C.ar    0  <0>0        0.0104
     16  C10        1.3860   32.5710   56.1620 C.3     0  <0>0        0.1488
     17  C11        0.4500   31.4050   55.9690 C.2     0  <0>0        0.2339
     18  O1        -0.6030   31.3670   56.5680 O.2     0  <0>0       -0.2741
     19  N4         0.7860   30.4040   55.1310 N.am    0  <0>0       -0.3033
     20  H12        1.6280   30.4340   54.6520 H       0  <0>0        0.1495
     21  C12       -0.1230   29.2700   54.9440 C.3     0  <0>0        0.0937
     22  C13       -0.8520   29.4160   53.6060 C.3     0  <0>0        0.0419
     23  C14       -2.2800   29.9090   53.8550 C.3     0  <0>0        0.0064
     24  C15       -0.8960   28.0810   52.9100 C.ar    0  <0>0       -0.0208
     25  C20       -0.2290   26.9970   53.4500 C.ar    0  <0>0       -0.0042
     26  C19       -0.2680   25.7720   52.8110 C.ar    0  <0>0       -0.0003
     27  C18       -0.9760   25.6300   51.6320 C.ar    0  <0>0       -0.0000
     28  C17       -1.6450   26.7140   51.0930 C.ar    0  <0>0       -0.0003
     29  C16       -1.6080   27.9370   51.7340 C.ar    0  <0>0       -0.0042
@<TRIPOS>BOND
     1    28    27   ar
     2    28    29   ar
     3    27    26   ar
     4    29    24   ar
     5    26    25   ar
     6    24    25   ar
     7    24    22    1
     8    22    23    1
     9    22    21    1
    10    20    19    1
    11    21    19    1
    12    19    17   am
    13     4     3   ar
    14     4     5   ar
    15     8     7    1
    16     3     2   ar
    17     7     5    1
    18     7     9    1
    19    17    16    1
    20    17    18    2
    21    10     9   ar
    22    10    11   ar
    23     5     6   ar
    24    16     1    1
    25     2     1    1
    26     2     6   ar
    27     9    15   ar
    28    11    12   ar
    29    15    13   ar
    30    12    13   ar
    31    13    14    1

@<TRIPOS>MOLECULE
ZINC20303627_replica-1.pdb
 19 21 0 0 0
SMALL
GASTEIGER

@<TRIPOS>ATOM
      1  N2         0.5100   29.4430   56.0250 N.pl3   0  <0>0       -0.2821
      2  H5         1.2360   30.2510   55.8480 H       0  <0>0        0.1551
      3  C7         0.1610   28.5910   54.9980 C.2     0  <0>0        0.2152
      4  N1        -0.5790   28.8350   53.9390 N.2     0  <0>0       -0.3800
      5  C5        -0.8410   27.8970   53.0040 C.2     0  <0>0        0.1391
      6  C4        -0.2650   26.6270   53.2340 C.2     0  <0>0        0.0587
      7  C6        -1.6120   28.0290   51.8270 C.2     0  <0>0        0.0284
      8  C3        -0.4380   25.5690   52.3760 C.2     0  <0>0       -0.0123
      9  S1         0.6030   26.8750   54.7640 S.3     0  <0>0       -0.0377
     10  C2        -1.2020   25.7320   51.2350 C.3     0  <0>0        0.0527
     11  C1        -1.7830   26.9660   50.9790 C.2     0  <0>0       -0.0188
     12  C8        -0.0580   29.2800   57.2940 C.ar    0  <0>0        0.0613
     13  C13        0.4910   29.9300   58.3930 C.ar    0  <0>0        0.0733
     14  C12       -0.0730   29.7670   59.6430 C.ar    0  <0>0        0.0423
     15 Cl          1.8850   30.9450   58.1930 Cl      0  <0>0       -0.0809
     16  C11       -1.1840   28.9580   59.8020 C.ar    0  <0>0        0.1411
     17  C10       -1.7340   28.3100   58.7090 C.ar    0  <0>0        0.0310
     18  F1        -1.7350   28.8010   61.0260 F       0  <0>0       -0.2041
     19  C9        -1.1760   28.4730   57.4560 C.ar    0  <0>0        0.0178
@<TRIPOS>BOND
     1    11    10    1
     2    11     7    2
     3    10     8    1
     4     7     5    1
     5     8     6    2
     6     5     6    1
     7     5     4    2
     8     6     9    1
     9     4     3    2
    10     9     3    1
    11     3     1    1
    12     2     1    1
    13     1    12    1
    14    12    19   ar
    15    12    13   ar
    16    19    17   ar
    17    15    13    1
    18    13    14   ar
    19    17    16   ar
    20    14    16   ar
    21    16    18    1

@<TRIPOS>MOLECULE
ZINC05556605_replica-1.pdb
 30 34 0 0 0
SMALL
GASTEIGER

@<TRIPOS>ATOM
      1  N1         1.8730   32.3870   57.1450 N.am    0  <0>0       -0.2506
      2  C9         2.0000   32.5280   58.4900 C.3     0  <0>0        0.2225
      3  N2         1.3170   31.7830   59.3160 N.2     0  <0>0       -0.2451
      4  C10        0.4800   30.8510   58.8660 C.2     0  <0>0        0.0973
      5  C11        0.2870   30.6270   57.4930 C.3     0  <0>0        0.1452
      6  C12        1.0470   31.4650   56.6150 C.2     0  <0>0        0.2372
      7  O2         0.9470   31.3460   55.4060 O.2     0  <0>0       -0.2740
      8  C13       -0.6620   29.5700   57.1660 C.2     0  <0>0       -0.0012
      9  C14       -1.2690   28.9030   58.1780 C.2     0  <0>0        0.0332
     10  S1        -0.5900   29.6660   59.6390 S.3     0  <0>0       -0.0717
     11  C8         2.6530   33.2480   56.2550 C.3     0  <0>0        0.1644
     12  C7         2.5670   34.6750   56.7320 C.2     0  <0>0        0.1931
     13  O1         1.5190   35.2810   56.6450 O.2     0  <0>0       -0.2895
     14  C6         3.7510   35.3320   57.3040 C.ar    0  <0>0        0.0366
     15  C1         4.8650   35.5960   56.5000 C.ar    0  <0>0        0.0052
     16  C2         5.9730   36.2080   57.0430 C.ar    0  <0>0        0.0297
     17  C3         5.9870   36.5610   58.3840 C.ar    0  <0>0        0.1401
     18  C4         4.8860   36.3020   59.1870 C.ar    0  <0>0        0.0297
     19  F1         7.0770   37.1600   58.9110 F       0  <0>0       -0.2042
     20  C5         3.7710   35.6910   58.6570 C.ar    0  <0>0        0.0052
     21  C15       -0.9590   29.2320   55.7540 C.ar    0  <0>0       -0.0030
     22  C20       -0.4000   28.0980   55.1710 C.ar    0  <0>0       -0.0049
     23  C19       -0.6780   27.7770   53.8510 C.ar    0  <0>0       -0.0261
     24  C18       -1.5140   28.5830   53.1110 C.ar    0  <0>0       -0.0261
     25  C21       -0.0330   26.5390   53.2830 C.3     0  <0>0        0.0260
     26  C17       -2.0710   29.7190   53.6890 C.ar    0  <0>0       -0.0046
     27  C24       -1.8640   28.2870   51.6760 C.3     0  <0>0        0.0260
     28  C16       -1.8070   30.0440   55.0000 C.ar    0  <0>0       -0.0006
     29  C23       -0.8670   27.3000   51.0730 C.3     0  <0>0        0.0050
     30  C22       -0.7530   26.0940   52.0130 C.3     0  <0>0        0.0050
@<TRIPOS>BOND
     1    29    27    1
     2    29    30    1
     3    27    24    1
     4    30    25    1
     5    24    26   ar
     6    24    23   ar
     7    25    23    1
     8    26    28   ar
     9    23    22   ar
    10    28    21   ar
    11    22    21   ar
    12     7     6    2
    13    21     8    1
    14    11    12    1
    15    11     1    1
    16    15    16   ar
    17    15    14   ar
    18     6     1   am
    19     6     5    1
    20    13    12    2
    21    12    14    1
    22    16    17   ar
    23     1     2    1
    24     8     5    1
    25     8     9    2
    26    14    20   ar
    27     5     4    1
    28     9    10    1
    29    17    19    1
    30    17    18   ar
    31     2     3    1
    32    20    18   ar
    33     4     3    2
    34     4    10    1

@<TRIPOS>MOLECULE
ZINC37408655_replica-1.pdb
 20 22 0 0 0
SMALL
GASTEIGER

@<TRIPOS>ATOM
      1  S1        -0.7000   29.6980   55.1320 S.O2    0  <0>0        0.0865
      2  O1         0.2330   30.5720   54.5120 O.2     0  <0>0       -0.1476
      3  O2        -2.1040   29.8280   54.9480 O.2     0  <0>0       -0.1476
      4  N1        -0.3000   28.1640   54.6570 N.ar    0  <0>0       -0.2077
      5  C4        -0.6620   27.5830   53.4400 C.ar    0  <0>0        0.0825
      6  C3        -1.4070   28.1220   52.3900 C.ar    0  <0>0        0.0190
      7  C5        -0.1800   26.2880   53.3280 C.ar    0  <0>0        0.0191
      8  C2        -1.6570   27.3730   51.2600 C.ar    0  <0>0        0.0015
      9  C1        -1.1710   26.0830   51.1580 C.ar    0  <0>0        0.0001
     10  C6        -0.4330   25.5420   52.1930 C.ar    0  <0>0        0.0015
     11  C7         0.5850   25.9500   54.5880 C.ar    0  <0>0        0.0220
     12  C8         0.4880   27.2170   55.4530 C.ar    0  <0>0        0.0999
     13  C9        -0.4090   29.8000   56.8670 C.ar    0  <0>0        0.1340
     14  C14       -1.2560   29.1550   57.7490 C.ar    0  <0>0        0.0558
     15  C13       -1.0250   29.2300   59.1110 C.ar    0  <0>0        0.0377
     16 Br         -2.7270   28.1630   57.0930 Br      0  <0>0       -0.0475
     17  C12        0.0490   29.9590   59.5900 C.ar    0  <0>0        0.1407
     18  C11        0.8940   30.6090   58.7060 C.ar    0  <0>0        0.0311
     19  F1         0.2740   30.0370   60.9200 F       0  <0>0       -0.2042
     20  C10        0.6640   30.5290   57.3460 C.ar    0  <0>0        0.0232
@<TRIPOS>BOND
     1     9     8   ar
     2     9    10   ar
     3     8     6   ar
     4    10     7   ar
     5     6     5   ar
     6     7     5   ar
     7     7    11   ar
     8     5     4   ar
     9     2     1    2
    10    11    12   ar
    11     4     1    1
    12     4    12   ar
    13     3     1    2
    14     1    13    1
    15    13    20   ar
    16    13    14   ar
    17    16    14    1
    18    20    18   ar
    19    14    15   ar
    20    18    17   ar
    21    15    17   ar
    22    17    19    1

@<TRIPOS>MOLECULE
ZINC09589280_replica-1.pdb
 24 27 0 0 0
SMALL
GASTEIGER

@<TRIPOS>ATOM
      1  C7        10.8980   34.3400   62.2130 C.3     0  <0>0        0.3129
      2  O1        11.6330   35.5690   62.2130 O.3     0  <0>0       -0.3121
      3  C8        10.8240   36.7050   61.8910 C.3     0  <0>0        0.1757
      4  C9        10.0160   36.4070   60.6540 C.ar    0  <0>0        0.0417
      5  C10        9.4230   37.4430   59.9590 C.ar    0  <0>0        0.0078
      6  C11        8.6770   37.1800   58.8240 C.ar    0  <0>0        0.0342
      7  C12        8.5230   35.8780   58.3820 C.ar    0  <0>0        0.0063
      8  C13        9.1160   34.8390   59.0730 C.ar    0  <0>0        0.0234
      9  C14        9.8660   35.1020   60.2110 C.ar    0  <0>0        0.1368
     10  O2        10.4520   34.0730   60.8800 O.3     0  <0>0       -0.4497
     11 Br          7.8740   38.6020   57.8710 Br      0  <0>0       -0.0490
     12  C15        8.9490   33.4210   58.5910 C.3     0  <0>0        0.0934
     13  S1         7.2570   33.1820   57.9940 S.3     0  <0>0       -0.0817
     14  C16        7.0720   31.4550   58.2830 C.ar    0  <0>0        0.1598
     15  S2         6.7380   30.5700   59.8040 S.2     0  <0>0       -0.0372
     16  C17        6.7380   28.9350   59.0770 C.ar    0  <0>0        0.1597
     17  N2         6.9810   29.2430   57.8190 N.ar    0  <0>0       -0.1382
     18  N1         7.1350   30.4350   57.4360 N.ar    0  <0>0       -0.1343
     19  C4        11.7870   33.2190   62.6870 C.ar    0  <0>0        0.0472
     20  C3        13.1550   33.4020   62.7540 C.ar    0  <0>0        0.0018
     21  C2        13.9700   32.3730   63.1890 C.ar    0  <0>0       -0.0001
     22  C1        13.4160   31.1620   63.5570 C.ar    0  <0>0       -0.0000
     23  C6        12.0470   30.9790   63.4900 C.ar    0  <0>0       -0.0001
     24  C5        11.2330   32.0090   63.0600 C.ar    0  <0>0        0.0018
@<TRIPOS>BOND
     1    18    17   ar
     2    18    14   ar
     3    17    16   ar
     4    11     6    1
     5    13    14    1
     6    13    12    1
     7    14    15   ar
     8     7     6   ar
     9     7     8   ar
    10    12     8    1
    11     6     5   ar
    12     8     9   ar
    13    16    15   ar
    14     5     4   ar
    15     9     4   ar
    16     9    10    1
    17     4     3    1
    18    10     1    1
    19     3     2    1
    20     2     1    1
    21     1    19    1
    22    19    20   ar
    23    19    24   ar
    24    20    21   ar
    25    24    23   ar
    26    21    22   ar
    27    23    22   ar

@<TRIPOS>MOLECULE
ZINC67530286_replica-1.pdb
 26 27 0 0 0
SMALL
GASTEIGER

@<TRIPOS>ATOM
      1  C4         5.6850   35.7990   58.1630 C.3     0  <0>0        0.1351
      2  C5         4.7590   35.1240   59.1780 C.3     0  <0>0        0.0331
      3  C6         5.4810   34.9930   60.5210 C.3     0  <0>0        0.0241
      4  C7         6.7250   34.1170   60.3450 C.3     0  <0>0        0.0951
      5  N1         7.5520   34.6800   59.2690 N.am    0  <0>0       -0.2617
      6  C8         6.9330   34.9320   57.9600 C.3     0  <0>0        0.1243
      7  C9         8.8530   34.9600   59.4770 C.2     0  <0>0        0.3042
      8  O2         9.5490   35.3400   58.5560 O.2     0  <0>0       -0.2526
      9  N2         9.3830   34.8210   60.7080 N.am    0  <0>0       -0.2866
     10  H18        8.8490   34.4490   61.4280 H       0  <0>0        0.1512
     11  C10       10.7660   35.2310   60.9610 C.3     0  <0>0        0.0956
     12  C11       10.7740   36.5250   61.7770 C.3     0  <0>0        0.0262
     13  C12       11.4790   34.1480   61.7300 C.ar    0  <0>0       -0.0043
     14  C17       12.7900   34.3330   62.1290 C.ar    0  <0>0        0.0004
     15  C16       13.4430   33.3440   62.8390 C.ar    0  <0>0        0.0368
     16  C15       12.7860   32.1610   63.1420 C.ar    0  <0>0        0.1443
     17  C14       11.4730   31.9750   62.7360 C.ar    0  <0>0        0.0368
     18  C13       10.8230   32.9690   62.0310 C.ar    0  <0>0        0.0004
     19  O3        13.4280   31.1840   63.8360 O.3     0  <0>0       -0.4236
     20  C18       12.6360   30.0890   64.3000 C.3     0  <0>0        0.5087
     21  F1        12.8720   28.9700   63.4950 F       0  <0>0       -0.1550
     22  F2        12.9780   29.7930   65.6240 F       0  <0>0       -0.1550
     23  O1         5.0000   35.9490   56.9180 O.3     0  <0>0       -0.3545
     24  C3         5.0510   34.7910   56.0830 C.3     0  <0>0        0.1421
     25  C2         4.1010   34.9740   54.8980 C.3     0  <0>0        0.0321
     26  C1         4.8400   34.6560   53.5970 C.3     0  <0>0        0.0027
@<TRIPOS>BOND
     1    26    25    1
     2    25    24    1
     3    24    23    1
     4    23     1    1
     5     6     1    1
     6     6     5    1
     7     1     2    1
     8     8     7    2
     9     2     3    1
    10     5     7   am
    11     5     4    1
    12     7     9   am
    13     4     3    1
    14     9    11    1
    15     9    10    1
    16    11    13    1
    17    11    12    1
    18    13    18   ar
    19    13    14   ar
    20    18    17   ar
    21    14    15   ar
    22    17    16   ar
    23    15    16   ar
    24    16    19    1
    25    21    20    1
    26    19    20    1
    27    20    22    1

@<TRIPOS>MOLECULE
ZINC38737920_replica-1.pdb
 29 30 0 0 0
SMALL
GASTEIGER

@<TRIPOS>ATOM
      1  C8         6.9740   32.5290   58.0600 C.3     0  <0>0        0.0210
      2  C9         5.5680   32.0900   58.4750 C.3     0  <0>0       -0.0120
      3  C10        5.6570   31.2560   59.7560 C.3     0  <0>0       -0.0038
      4  C11        6.3530   32.0820   60.8430 C.3     0  <0>0       -0.0228
      5  C12        7.7300   32.5210   60.3390 C.3     0  <0>0       -0.0761
      6  N2         7.5740   33.3350   59.1290 N.4     0  <0>0        0.3966
      7  H39        6.9780   34.1240   59.3290 H       0  <0>0       -0.0784
      8  C13        8.8920   33.8200   58.6940 C.3     0  <0>0       -0.0461
      9  C14        9.3980   34.8450   59.6760 C.ar    0  <0>0       -0.0095
     10  C19        8.7800   36.0830   59.7670 C.ar    0  <0>0        0.1327
     11  C18        9.2460   37.0220   60.6760 C.ar    0  <0>0        0.0362
     12  C17       10.3300   36.7270   61.4790 C.ar    0  <0>0       -0.0012
     13  C16       10.9490   35.4940   61.3810 C.ar    0  <0>0       -0.0227
     14  C15       10.4840   34.5540   60.4800 C.ar    0  <0>0       -0.0076
     15  O2         7.7160   36.3730   58.9730 O.3     0  <0>0       -0.4718
     16  C20        7.3780   37.7520   58.8210 C.3     0  <0>0        0.2524
     17  C21       12.1320   35.1740   62.2580 C.3     0  <0>0        0.0223
     18  C22       12.0930   36.0570   63.5070 C.3     0  <0>0        0.0047
     19  C23       12.0780   33.7020   62.6720 C.3     0  <0>0        0.0047
     20  C7         6.8910   33.3500   56.7980 C.2     0  <0>0        0.2029
     21  N1         6.5250   34.6450   56.8600 N.am    0  <0>0       -0.3076
     22  H15        6.3140   35.0490   57.7160 H       0  <0>0        0.1493
     23  O1         7.1540   32.8440   55.7280 O.2     0  <0>0       -0.2773
     24  C2         6.4440   35.4430   55.6340 C.3     0  <0>0        0.0715
     25  C1         7.7500   36.2170   55.4430 C.3     0  <0>0        0.0213
     26  C3         5.2780   36.4280   55.7420 C.3     0  <0>0        0.0196
     27  C4         4.0410   35.8300   55.0690 C.3     0  <0>0        0.0016
     28  C5         4.4620   34.6700   54.1660 C.3     0  <0>0        0.0001
     29  C6         3.0760   35.3170   56.1410 C.3     0  <0>0        0.0001
@<TRIPOS>BOND
     1    28    27    1
     2    27    26    1
     3    27    29    1
     4    25    24    1
     5    24    26    1
     6    24    21    1
     7    23    20    2
     8    20    21   am
     9    20     1    1
    10    21    22    1
    11     1     2    1
    12     1     6    1
    13     2     3    1
    14     8     6    1
    15     8     9    1
    16    16    15    1
    17    15    10    1
    18     6     7    1
    19     6     5    1
    20     9    10   ar
    21     9    14   ar
    22     3     4    1
    23    10    11   ar
    24     5     4    1
    25    14    13   ar
    26    11    12   ar
    27    13    12   ar
    28    13    17    1
    29    17    19    1
    30    17    18    1

@<TRIPOS>MOLECULE
ZINC43756785_replica-1.pdb
 31 35 0 0 0
SMALL
GASTEIGER

@<TRIPOS>ATOM
      1  C8         4.4180   34.2290   56.7130 C.3     0  <0>0        0.1511
      2  C9         4.6320   32.7240   56.9900 C.3     0  <0>0        0.0964
      3  C10        6.0820   32.4190   56.6620 C.2     0  <0>0        0.1528
      4  O4         6.6190   31.3400   56.7150 O.2     0  <0>0       -0.2960
      5  C11        6.7320   33.7410   56.2530 C.3     0  <0>0        0.0600
      6  C12        5.5440   34.5680   55.7190 C.3     0  <0>0        0.0343
      7  C13        5.8220   36.0490   55.6370 C.3     0  <0>0        0.0028
      8  C14        6.3440   36.5920   56.9670 C.3     0  <0>0        0.0001
      9  C15        7.6360   35.8430   57.3190 C.3     0  <0>0        0.0004
     10  C16        7.3220   34.3490   57.5300 C.3     0  <0>0        0.0070
     11  C17        8.5850   33.5720   57.9120 C.3     0  <0>0        0.0004
     12  C18        9.1730   34.1490   59.2010 C.3     0  <0>0        0.0000
     13  C19        9.5300   35.6220   58.9790 C.3     0  <0>0        0.0000
     14  C20        8.2240   36.4430   58.5990 C.3     0  <0>0        0.0000
     15  C21        7.1960   36.3370   59.7280 C.3     0  <0>0        0.0000
     16  C22        7.7820   36.9400   61.0080 C.3     0  <0>0        0.0000
     17  C23        9.0490   36.1770   61.3970 C.3     0  <0>0        0.0000
     18  C24       10.1300   36.1980   60.2630 C.3     0  <0>0        0.0000
     19  C25        8.5670   37.9150   58.3600 C.3     0  <0>0        0.0000
     20  C26        5.1610   34.0590   54.3280 C.3     0  <0>0        0.0029
     21  O3         4.5580   34.9900   57.9150 O.3     0  <0>0       -0.2407
     22  S1         3.2790   35.6790   58.3650 S.3     0  <0>0        0.0129
     23  O1         2.4720   35.8360   57.2060 O.3     0  <0>0       -0.0673
     24  O2         3.6720   36.7800   59.1730 O.3     0  <0>0       -0.0673
     25  C5         2.4260   34.5570   59.4230 C.ar    0  <0>0        0.1096
     26  C4         3.1380   33.6740   60.2110 C.ar    0  <0>0        0.0185
     27  C3         2.4700   32.7940   61.0420 C.ar    0  <0>0       -0.0029
     28  C2         1.0880   32.7980   61.0830 C.ar    0  <0>0       -0.0218
     29  C1         0.3590   31.8380   61.9880 C.3     0  <0>0        0.0310
     30  C7         0.3760   33.6770   60.2900 C.ar    0  <0>0       -0.0029
     31  C6         1.0440   34.5600   59.4630 C.ar    0  <0>0        0.0185
@<TRIPOS>BOND
     1    20     6    1
     2     7     6    1
     3     7     8    1
     4     6     5    1
     5     6     1    1
     6     5     3    1
     7     5    10    1
     8     3     4    2
     9     3     2    1
    10     1     2    1
    11     1    21    1
    12     8     9    1
    13    23    22    1
    14     9    10    1
    15     9    14    1
    16    10    11    1
    17    11    12    1
    18    21    22    1
    19    19    14    1
    20    22    24    1
    21    22    25    1
    22    14    13    1
    23    14    15    1
    24    13    12    1
    25    13    18    1
    26    25    31   ar
    27    25    26   ar
    28    31    30   ar
    29    15    16    1
    30    26    27   ar
    31    18    17    1
    32    30    28   ar
    33    16    17    1
    34    27    28   ar
    35    28    29    1

@<TRIPOS>MOLECULE
ZINC41706053_replica-1.pdb
 20 22 0 0 0
SMALL
GASTEIGER

@<TRIPOS>ATOM
      1  C1         8.8440   38.6000   56.9160 C.3     0  <0>0        0.0504
      2  C2         7.7330   37.5880   57.0130 C.ar    0  <0>0        0.0429
      3  C3         6.6730   37.5100   56.1830 C.ar    0  <0>0        0.0171
      4  C4         5.8740   36.3940   56.6560 C.ar    0  <0>0        0.0478
      5  C5         6.5300   35.8720   57.7650 C.ar    0  <0>0        0.0451
      6  N1         7.6410   36.5950   57.9560 N.ar    0  <0>0       -0.2990
      7  C11        6.0030   34.6950   58.5460 C.3     0  <0>0        0.0447
      8  C12        4.5050   34.5370   58.2730 C.3     0  <0>0        0.0128
      9  C13        4.2310   34.4830   56.7660 C.3     0  <0>0        0.0695
     10  C14        4.6170   35.8250   56.1600 C.2     0  <0>0        0.1742
     11  O1         3.9330   36.3820   55.3260 O.2     0  <0>0       -0.2913
     12  C15        4.0080   33.2450   58.9220 C.3     0  <0>0        0.0008
     13  C16        3.7540   35.7250   58.8780 C.3     0  <0>0        0.0008
     14  C6         8.5740   36.3740   58.9740 C.ar    0  <0>0        0.1472
     15  N2         8.5730   37.1530   60.0430 N.ar    0  <0>0       -0.2259
     16  C10        9.4320   36.9760   61.0280 C.ar    0  <0>0        0.1072
     17  C9        10.3750   35.9680   60.9730 C.ar    0  <0>0        0.0538
     18  C8        10.4110   35.1300   59.8660 C.ar    0  <0>0        0.0114
     19 Br         11.6040   35.7290   62.3910 Br      0  <0>0       -0.0474
     20  C7         9.4930   35.3390   58.8510 C.ar    0  <0>0        0.0379
@<TRIPOS>BOND
     1    11    10    2
     2    10     4    1
     3    10     9    1
     4     3     4   ar
     5     3     2   ar
     6     4     5   ar
     7     9     8    1
     8     1     2    1
     9     2     6   ar
    10     5     6   ar
    11     5     7    1
    12     6    14    1
    13     8     7    1
    14     8    13    1
    15     8    12    1
    16    20    14   ar
    17    20    18   ar
    18    14    15   ar
    19    18    17   ar
    20    15    16   ar
    21    17    16   ar
    22    17    19    1

@<TRIPOS>MOLECULE
ZINC41661057_replica-1.pdb
 30 34 0 0 0
SMALL
GASTEIGER

@<TRIPOS>ATOM
      1  C6         2.9560   32.8770   58.8700 C.2     0  <0>0        0.0470
      2  C7         1.9900   31.9190   58.9630 C.2     0  <0>0        0.1845
      3  C8         1.7250   31.1160   60.1040 C.2     0  <0>0        0.2327
      4  O1         2.3030   31.1410   61.1790 O.2     0  <0>0       -0.2832
      5  C9         0.6020   30.2470   59.7120 C.ar    0  <0>0        0.0765
      6  C10       -0.1180   29.2500   60.3700 C.ar    0  <0>0        0.0094
      7  C11       -1.1320   28.6060   59.7230 C.ar    0  <0>0        0.0370
      8  C12       -1.4550   28.9380   58.4060 C.ar    0  <0>0        0.1407
      9  C13       -0.7500   29.9280   57.7430 C.ar    0  <0>0        0.0626
     10  C14        0.2860   30.5920   58.3880 C.ar    0  <0>0        0.1487
     11  O2         1.1180   31.5770   57.9850 O.3     0  <0>0       -0.4503
     12  C15       -1.0940   30.3030   56.3240 C.3     0  <0>0        0.1082
     13  N1        -1.9030   29.2380   55.7150 N.3     0  <0>0       -0.2312
     14  C16       -3.0130   28.8700   56.6090 C.3     0  <0>0        0.2848
     15  O3        -2.4690   28.2760   57.7900 O.3     0  <0>0       -0.4583
     16  C17       -2.4030   29.6460   54.3960 C.3     0  <0>0        0.0804
     17  C18       -1.2540   29.6250   53.3840 C.3     0  <0>0        0.0438
     18  C19       -1.0440   28.2150   52.8930 C.ar    0  <0>0       -0.0207
     19  C24       -1.6290   27.8010   51.7120 C.ar    0  <0>0       -0.0034
     20  C23       -1.4310   26.5110   51.2570 C.ar    0  <0>0        0.0111
     21  C22       -0.6560   25.6310   51.9920 C.ar    0  <0>0        0.0577
     22  C21       -0.0750   26.0450   53.1780 C.ar    0  <0>0        0.0111
     23 Cl         -0.4130   24.0070   51.4260 Cl      0  <0>0       -0.0822
     24  C20       -0.2690   27.3360   53.6280 C.ar    0  <0>0       -0.0034
     25  C5         3.1100   33.6120   57.6720 C.ar    0  <0>0        0.0287
     26  C2         2.5920   34.8590   57.3350 C.ar    0  <0>0       -0.0152
     27  C1         1.7280   35.6530   58.2810 C.3     0  <0>0        0.0316
     28  C3         2.9250   35.3220   56.0860 C.ar    0  <0>0        0.0032
     29  C4         3.7070   34.5560   55.2840 C.ar    0  <0>0        0.0351
     30  S1         4.0180   33.1820   56.2000 S.2     0  <0>0       -0.0867
@<TRIPOS>BOND
     1    20    19   ar
     2    20    21   ar
     3    23    21    1
     4    19    18   ar
     5    21    22   ar
     6    18    17    1
     7    18    24   ar
     8    22    24   ar
     9    17    16    1
    10    16    13    1
    11    29    28   ar
    12    29    30   ar
    13    13    12    1
    14    13    14    1
    15    28    26   ar
    16    30    25   ar
    17    12     9    1
    18    14    15    1
    19    26    25   ar
    20    26    27    1
    21    25     1    1
    22     9    10   ar
    23     9     8   ar
    24    15     8    1
    25    11    10    1
    26    11     2    1
    27    10     5   ar
    28     8     7   ar
    29     1     2    2
    30     2     3    1
    31     5     3    1
    32     5     6   ar
    33     7     6   ar
    34     3     4    2

@<TRIPOS>MOLECULE
ZINC10157172_replica-1.pdb
 25 28 0 0 0
SMALL
GASTEIGER

@<TRIPOS>ATOM
      1  C8         8.0130   36.1250   57.3900 C.ar    0  <0>0        0.0092
      2  C9         8.5660   36.4260   56.1410 C.ar    0  <0>0        0.0209
      3  C10        7.7540   36.4120   55.0240 C.ar    0  <0>0        0.1006
      4  N1         6.4690   36.1190   55.1060 N.ar    0  <0>0       -0.2255
      5  C11        5.8880   35.8250   56.2590 C.ar    0  <0>0        0.1596
      6  C12        6.6430   35.8190   57.4450 C.ar    0  <0>0        0.0930
      7  C13        5.7220   35.4610   58.5320 C.ar    0  <0>0        0.2816
      8  O1         6.0030   35.3520   59.7110 O.2     0  <0>0       -0.2651
      9  N2         4.5070   35.2770   57.9770 N.ar    0  <0>0       -0.2162
     10  N3         4.5910   35.4940   56.5980 N.ar    0  <0>0       -0.2729
     11  H1         3.8510   35.4230   55.9750 H       0  <0>0        0.1890
     12  C5         8.8460   36.1290   58.6150 C.ar    0  <0>0        0.0003
     13  C4         9.6370   35.0250   58.9280 C.ar    0  <0>0       -0.0003
     14  C3        10.4110   35.0350   60.0700 C.ar    0  <0>0       -0.0043
     15  C2        10.4020   36.1390   60.9050 C.ar    0  <0>0       -0.0218
     16  C1        11.2510   36.1440   62.1500 C.3     0  <0>0        0.0310
     17  C7         9.6190   37.2370   60.6000 C.ar    0  <0>0       -0.0043
     18  C6         8.8450   37.2400   59.4580 C.ar    0  <0>0       -0.0003
     19  C14        3.3460   34.9240   58.6710 C.ar    0  <0>0        0.0836
     20  C19        3.3030   33.7430   59.4010 C.ar    0  <0>0        0.0149
     21  C18        2.1530   33.3980   60.0850 C.ar    0  <0>0       -0.0204
     22  C17        1.0470   34.2260   60.0440 C.ar    0  <0>0       -0.0042
     23  C20        2.1050   32.1170   60.8780 C.3     0  <0>0        0.0311
     24  C16        1.0870   35.4020   59.3180 C.ar    0  <0>0        0.0012
     25  C15        2.2340   35.7560   58.6350 C.ar    0  <0>0        0.0192
@<TRIPOS>BOND
     1     3     4   ar
     2     3     2   ar
     3     4     5   ar
     4    11    10    1
     5     2     1   ar
     6     5    10   ar
     7     5     6   ar
     8    10     9   ar
     9     1     6   ar
    10     1    12    1
    11     6     7   ar
    12     9     7   ar
    13     9    19    1
    14     7     8    2
    15    12    13   ar
    16    12    18   ar
    17    25    19   ar
    18    25    24   ar
    19    19    20   ar
    20    13    14   ar
    21    24    22   ar
    22    20    21   ar
    23    18    17   ar
    24    22    21   ar
    25    14    15   ar
    26    21    23    1
    27    17    15   ar
    28    15    16    1

@<TRIPOS>MOLECULE
ZINC01076361_replica-1.pdb
 25 28 0 0 0
SMALL
GASTEIGER

@<TRIPOS>ATOM
      1  N1         2.7030   33.5760   57.9890 N.pl3   0  <0>0       -0.3023
      2  C7         1.8460   34.1880   56.9640 C.3     0  <0>0        0.1124
      3  C8         0.6970   33.2360   56.6270 C.3     0  <0>0        0.1150
      4  N2         1.2470   31.9570   56.1550 N.pl3   0  <0>0       -0.2752
      5  C9         2.1040   31.3440   57.1800 C.3     0  <0>0        0.1150
      6  C10        3.2530   32.2980   57.5170 C.3     0  <0>0        0.1124
      7  C11        0.2350   31.0920   55.7720 C.2     0  <0>0        0.2106
      8  S1        -1.4810   31.0690   56.2710 S.3     0  <0>0       -0.0594
      9  C13       -1.9800   29.6550   55.2980 C.3     0  <0>0        0.1247
     10  C12       -0.8010   29.3350   54.6880 C.2     0  <0>0        0.1225
     11  N3         0.2840   30.0630   54.9460 N.2     0  <0>0       -0.3843
     12  C14       -0.7270   28.1860   53.7530 C.ar    0  <0>0        0.0265
     13  C19       -1.3490   28.2580   52.5080 C.ar    0  <0>0        0.0045
     14  C18       -1.2780   27.1860   51.6410 C.ar    0  <0>0        0.0297
     15  C17       -0.5900   26.0400   52.0080 C.ar    0  <0>0        0.1401
     16  C16        0.0290   25.9650   53.2450 C.ar    0  <0>0        0.0297
     17  F1        -0.5240   24.9940   51.1560 F       0  <0>0       -0.2042
     18  C15       -0.0330   27.0330   54.1150 C.ar    0  <0>0        0.0045
     19  C5         3.7240   34.4490   58.3760 C.ar    0  <0>0        0.0758
     20  C4         4.0990   34.5360   59.7130 C.ar    0  <0>0        0.1533
     21  C3         5.1090   35.4000   60.0910 C.ar    0  <0>0        0.0309
     22  F2         3.4770   33.7740   60.6400 F       0  <0>0       -0.2029
     23  C2         5.7460   36.1780   59.1420 C.ar    0  <0>0        0.0024
     24  C1         5.3760   36.0940   57.8120 C.ar    0  <0>0        0.0014
     25  C6         4.3700   35.2300   57.4260 C.ar    0  <0>0        0.0168
@<TRIPOS>BOND
     1    17    15    1
     2    14    15   ar
     3    14    13   ar
     4    15    16   ar
     5    13    12   ar
     6    16    18   ar
     7    12    18   ar
     8    12    10    1
     9    10    11    2
    10    10     9    1
    11    11     7    2
    12     9     8    1
    13     7     4    1
    14     7     8    1
    15     4     3    1
    16     4     5    1
    17     3     2    1
    18     2     1    1
    19     5     6    1
    20    25    24   ar
    21    25    19   ar
    22     6     1    1
    23    24    23   ar
    24     1    19    1
    25    19    20   ar
    26    23    21   ar
    27    20    21   ar
    28    20    22    1

@<TRIPOS>MOLECULE
ZINC13774568_replica-1.pdb
 24 25 0 0 0
SMALL
GASTEIGER

@<TRIPOS>ATOM
      1  C3         8.5360   36.6930   59.0770 C.3     0  <0>0        0.0931
      2  C2         8.7050   38.2130   59.0130 C.3     0  <0>0        0.0241
      3  C1         7.3410   38.8850   59.1800 C.3     0  <0>0        0.0021
      4  C4         9.5590   36.1140   60.0200 C.ar    0  <0>0       -0.0046
      5  C9         9.9330   36.8160   61.1510 C.ar    0  <0>0       -0.0030
      6  C8        10.8680   36.2820   62.0180 C.ar    0  <0>0       -0.0045
      7  C7        11.4350   35.0510   61.7510 C.ar    0  <0>0       -0.0225
      8  C6        11.0650   34.3500   60.6170 C.ar    0  <0>0       -0.0045
      9  C5        10.1280   34.8830   59.7520 C.ar    0  <0>0       -0.0030
     10  C10       12.4570   34.4710   62.6940 C.3     0  <0>0        0.0224
     11  C11       12.0040   33.0800   63.1450 C.3     0  <0>0        0.0047
     12  C12       13.8050   34.3620   61.9790 C.3     0  <0>0        0.0047
     13  N1         8.7250   36.1230   57.7410 N.am    0  <0>0       -0.3140
     14  H30        9.5920   36.1780   57.3090 H       0  <0>0        0.1487
     15  C13        7.6820   35.5150   57.1040 C.2     0  <0>0        0.1315
     16  S1         7.7870   33.9130   56.6800 S.2     0  <0>0       -0.0189
     17  N2         6.5500   36.2240   56.8160 N.am    0  <0>0       -0.3177
     18  H18        6.6180   37.0990   56.4030 H       0  <0>0        0.1484
     19  C14        5.2330   35.6630   57.1290 C.3     0  <0>0        0.0706
     20  C19        4.8420   36.0460   58.5580 C.3     0  <0>0        0.0195
     21  C18        3.4670   35.4600   58.8850 C.3     0  <0>0        0.0017
     22  C17        2.4310   36.0140   57.9060 C.3     0  <0>0        0.0001
     23  C16        2.8220   35.6310   56.4770 C.3     0  <0>0        0.0017
     24  C15        4.1960   36.2170   56.1500 C.3     0  <0>0        0.0195
@<TRIPOS>BOND
     1    24    23    1
     2    24    19    1
     3    18    17    1
     4    23    22    1
     5    16    15    2
     6    17    15    1
     7    17    19    1
     8    15    13    1
     9    19    20    1
    10    14    13    1
    11    13     1    1
    12    22    21    1
    13    20    21    1
    14     2     1    1
    15     2     3    1
    16     1     4    1
    17     9     4   ar
    18     9     8   ar
    19     4     5   ar
    20     8     7   ar
    21     5     6   ar
    22     7     6   ar
    23     7    10    1
    24    12    10    1
    25    10    11    1

@<TRIPOS>MOLECULE
ZINC47205738_replica-1.pdb
 22 24 0 0 0
SMALL
GASTEIGER

@<TRIPOS>ATOM
      1  C7         9.4040   35.5320   60.5670 C.3     0  <0>0        0.1353
      2  C8         9.2800   34.1420   60.4280 C.2     0  <0>0        0.2028
      3  N1        10.1650   33.3680   61.0340 N.2     0  <0>0       -0.3921
      4  C9        11.1470   33.8720   61.7550 C.2     0  <0>0        0.1575
      5  S1        10.8590   35.6290   61.6030 S.3     0  <0>0       -0.0713
      6  C3         8.5710   36.6140   60.0100 C.ar    0  <0>0       -0.0030
      7  C2         7.3040   36.8670   60.5400 C.ar    0  <0>0       -0.0029
      8  C1         6.5280   37.8800   60.0150 C.ar    0  <0>0        0.0020
      9  C6         7.0020   38.6460   58.9640 C.ar    0  <0>0        0.0296
     10  C5         8.2580   38.4010   58.4320 C.ar    0  <0>0        0.1399
     11  C4         9.0460   37.3890   58.9490 C.ar    0  <0>0        0.0266
     12  F1         8.7150   39.1520   57.4060 F       0  <0>0       -0.2042
     13  C16        8.1950   33.5610   59.6310 C.2     0  <0>0        0.4139
     14  O1         7.1220   33.2980   60.1590 O.co2   0  <0>0       -0.2380
     15  O2         8.3620   33.3390   58.4380 O.co2   0  <0>0       -0.2380
     16  C10       12.2160   33.1650   62.4930 C.ar    0  <0>0        0.0378
     17  C15       11.9550   31.9350   63.0970 C.ar    0  <0>0        0.0327
     18  C14       12.9590   31.2780   63.7820 C.ar    0  <0>0        0.1402
     19  C13       14.2200   31.8440   63.8770 C.ar    0  <0>0        0.0296
     20  F2        12.7110   30.0830   64.3620 F       0  <0>0       -0.2042
     21  C12       14.4820   33.0660   63.2850 C.ar    0  <0>0        0.0024
     22  C11       13.4880   33.7290   62.5950 C.ar    0  <0>0        0.0032
@<TRIPOS>BOND
     1    12    10    1
     2    10    11   ar
     3    10     9   ar
     4    15    13   ar
     5    11     6   ar
     6     9     8   ar
     7    13    14   ar
     8    13     2    1
     9     6     7   ar
    10     6     1    1
    11     8     7   ar
    12     2     1    1
    13     2     3    2
    14     1     5    1
    15     3     4    2
    16     5     4    1
    17     4    16    1
    18    16    22   ar
    19    16    17   ar
    20    22    21   ar
    21    17    18   ar
    22    21    19   ar
    23    18    19   ar
    24    18    20    1

@<TRIPOS>MOLECULE
ZINC04979875_replica-1.pdb
 28 31 0 0 0
SMALL
GASTEIGER

@<TRIPOS>ATOM
      1  C1         7.3000   36.1510   61.2220 C.3     0  <0>0        0.0535
      2  C2         7.0030   36.3460   59.7580 C.2     0  <0>0        0.0757
      3  C3         5.8740   35.8920   59.0900 C.2     0  <0>0        0.0311
      4  C4         5.9790   36.2730   57.7780 C.3     0  <0>0        0.1872
      5  N1         7.1400   36.9390   57.6380 N.pl3   0  <0>0       -0.2159
      6  N2         7.7630   36.9790   58.8960 N.2     0  <0>0       -0.1851
      7  N3         4.9890   35.9660   56.8530 N.pl3   0  <0>0       -0.3174
      8  C9         3.7700   35.5380   57.3150 C.2     0  <0>0        0.0257
      9  C10        3.5780   35.1420   58.5920 C.2     0  <0>0        0.0436
     10  C11        4.6970   35.1160   59.6110 C.2     0  <0>0        0.0040
     11  C19        2.3080   34.7330   59.0370 C.2     0  <0>0        0.1739
     12  O1         2.1710   34.3770   60.1910 O.2     0  <0>0       -0.2913
     13  C20        1.1170   34.7270   58.1210 C.3     0  <0>0        0.0696
     14  C21        1.3120   35.8010   57.0450 C.3     0  <0>0        0.0141
     15  C22        2.6300   35.5220   56.3210 C.3     0  <0>0        0.0414
     16  H14        5.1560   36.0530   55.9020 H       0  <0>0        0.1483
     17  C12        5.1100   33.6890   59.8660 C.ar    0  <0>0       -0.0000
     18  C17        5.1920   33.2170   61.1630 C.ar    0  <0>0        0.0005
     19  C16        5.5650   31.9080   61.4000 C.ar    0  <0>0        0.0061
     20  C15        5.8670   31.0690   60.3350 C.ar    0  <0>0        0.0252
     21  C14        5.7880   31.5500   59.0330 C.ar    0  <0>0        0.0061
     22  C13        5.4100   32.8580   58.8030 C.ar    0  <0>0        0.0005
     23  S1         6.3490   29.4000   60.6330 S.3     0  <0>0       -0.1127
     24  C18        6.4630   28.6740   58.9750 C.3     0  <0>0        0.0742
     25  C5         7.6570   37.5230   56.3980 C.3     0  <0>0        0.0771
     26  C6         8.2120   36.4140   55.5030 C.3     0  <0>0        0.0215
     27  C7         6.5260   38.2500   55.6670 C.3     0  <0>0        0.0215
     28  C8         8.7720   38.5180   56.7280 C.3     0  <0>0        0.0215
@<TRIPOS>BOND
     1    26    25    1
     2    27    25    1
     3    16     7    1
     4    15    14    1
     5    15     8    1
     6    25    28    1
     7    25     5    1
     8     7     8    1
     9     7     4    1
    10    14    13    1
    11     8     9    2
    12     5     4    1
    13     5     6    1
    14     4     3    1
    15    13    11    1
    16     9    11    1
    17     9    10    1
    18    22    21   ar
    19    22    17   ar
    20     6     2    2
    21    24    23    1
    22    21    20   ar
    23    11    12    2
    24     3    10    2
    25     3     2    1
    26    10    17    1
    27     2     1    1
    28    17    18   ar
    29    20    23    1
    30    20    19   ar
    31    18    19   ar

@<TRIPOS>MOLECULE
ZINC39971304_replica-1.pdb
 30 33 0 0 0
SMALL
GASTEIGER

@<TRIPOS>ATOM
      1  N1         1.8830   33.3680   57.6570 N.3     0  <0>0       -0.2664
      2  C8         0.6790   33.6560   56.8670 C.3     0  <0>0        0.0918
      3  C9         0.3230   32.4300   56.0180 C.3     0  <0>0        0.1131
      4  N2         0.2190   31.2620   56.9060 N.3     0  <0>0       -0.1527
      5  C10        1.3330   30.9880   57.8280 C.3     0  <0>0        0.1131
      6  C11        1.6490   32.2710   58.6050 C.3     0  <0>0        0.0918
      7  S1        -1.1140   30.2820   56.8680 S.O2    0  <0>0        0.0634
      8  O1        -1.1650   29.6160   58.1220 O.2     0  <0>0       -0.1528
      9  O2        -2.1880   31.0760   56.3820 O.2     0  <0>0       -0.1528
     10  C12       -0.8150   29.0420   55.6510 C.ar    0  <0>0        0.1219
     11  C17       -1.3740   29.1560   54.3960 C.ar    0  <0>0        0.0153
     12  C16       -1.1410   28.1860   53.4290 C.ar    0  <0>0       -0.0248
     13  C15       -0.3480   27.1010   53.7280 C.ar    0  <0>0       -0.0261
     14  C18       -1.7900   28.3690   52.0820 C.3     0  <0>0        0.0261
     15  C14        0.2080   26.9860   54.9960 C.ar    0  <0>0       -0.0032
     16  C21       -0.0480   26.0160   52.7280 C.3     0  <0>0        0.0260
     17  C13       -0.0230   27.9500   55.9540 C.ar    0  <0>0        0.0196
     18  C20       -1.0510   26.0530   51.5780 C.3     0  <0>0        0.0050
     19  C19       -1.1130   27.4850   51.0350 C.3     0  <0>0        0.0050
     20  C7         2.3570   34.5720   58.3530 C.3     0  <0>0        0.0992
     21  C6         3.5620   35.1240   57.6370 C.ar    0  <0>0       -0.0062
     22  C1         3.4010   35.8380   56.4640 C.ar    0  <0>0       -0.0030
     23  C2         4.5070   36.3460   55.8060 C.ar    0  <0>0        0.0036
     24  C3         5.7720   36.1400   56.3220 C.ar    0  <0>0        0.0714
     25  C4         5.9330   35.4260   57.4950 C.ar    0  <0>0        0.0036
     26  C5         4.8280   34.9190   58.1530 C.ar    0  <0>0       -0.0030
     27  C22        6.9780   36.6920   55.6050 C.3     0  <0>0        0.4186
     28  F1         6.8250   38.0720   55.4310 F       0  <0>0       -0.1659
     29  F2         8.1270   36.4430   56.3650 F       0  <0>0       -0.1659
     30  F3         7.1010   36.0740   54.3560 F       0  <0>0       -0.1659
@<TRIPOS>BOND
     1    19    18    1
     2    19    14    1
     3    18    16    1
     4    14    12    1
     5    16    13    1
     6    12    13   ar
     7    12    11   ar
     8    13    15   ar
     9    30    27    1
    10    11    10   ar
    11    15    17   ar
    12    28    27    1
    13    27    24    1
    14    27    29    1
    15    10    17   ar
    16    10     7    1
    17    23    24   ar
    18    23    22   ar
    19     3     2    1
    20     3     4    1
    21    24    25   ar
    22     9     7    2
    23    22    21   ar
    24     2     1    1
    25     7     4    1
    26     7     8    2
    27     4     5    1
    28    25    26   ar
    29    21    26   ar
    30    21    20    1
    31     1    20    1
    32     1     6    1
    33     5     6    1

@<TRIPOS>MOLECULE
ZINC66057786_replica-1.pdb
 26 29 0 0 0
SMALL
GASTEIGER

@<TRIPOS>ATOM
      1  C1        -1.1890   27.2970   51.7130 C.ar    0  <0>0       -0.0003
      2  C2        -0.4380   26.4640   52.5220 C.ar    0  <0>0       -0.0003
      3  C3        -0.1140   26.8630   53.8020 C.ar    0  <0>0       -0.0045
      4  C4        -0.5350   28.0950   54.2860 C.ar    0  <0>0       -0.0240
      5  C5        -1.2780   28.9280   53.4790 C.ar    0  <0>0       -0.0260
      6  C6        -1.6060   28.5220   52.1910 C.ar    0  <0>0       -0.0046
      7  C7        -1.7550   30.2840   53.9270 C.3     0  <0>0        0.0282
      8  C8        -1.7150   30.3910   55.4510 C.3     0  <0>0        0.0319
      9  C9        -0.3330   29.9550   55.9310 C.3     0  <0>0        0.1317
     10  C10       -0.1530   28.4620   55.6960 C.3     0  <0>0        0.0529
     11  C11       -0.1500   30.2940   57.3920 C.2     0  <0>0        0.2490
     12  O1        -0.8000   29.8820   58.3290 O.2     0  <0>0       -0.2727
     13  N1         0.8900   31.1530   57.4320 N.am    0  <0>0       -0.2086
     14  C12        1.3790   31.3950   56.2090 C.2     0  <0>0        0.3103
     15  O2         2.3160   32.1370   55.9910 O.2     0  <0>0       -0.2522
     16  N2         0.7150   30.7230   55.2500 N.am    0  <0>0       -0.2834
     17  H11        0.8940   30.7420   54.2970 H       0  <0>0        0.1513
     18  C13        1.4180   31.7490   58.6630 C.3     0  <0>0        0.1321
     19  C14        1.6190   33.2270   58.4600 C.ar    0  <0>0        0.0362
     20  C19        2.8790   33.7800   58.5990 C.ar    0  <0>0        0.0575
     21  C18        3.0650   35.1380   58.4070 C.ar    0  <0>0        0.0113
     22 Cl          4.2300   32.7690   59.0070 Cl      0  <0>0       -0.0824
     23  C17        1.9890   35.9450   58.0870 C.ar    0  <0>0        0.0032
     24  C16        0.7280   35.3950   57.9540 C.ar    0  <0>0        0.0294
     25  C15        0.5410   34.0360   58.1400 C.ar    0  <0>0        0.1386
     26  F1        -0.6910   33.4990   58.0100 F       0  <0>0       -0.2044
@<TRIPOS>BOND
     1     1     6   ar
     2     1     2   ar
     3     6     5   ar
     4     2     3   ar
     5     5     7    1
     6     5     4   ar
     7     3     4   ar
     8     7     8    1
     9     4    10    1
    10    17    16    1
    11    16     9    1
    12    16    14   am
    13     8     9    1
    14    10     9    1
    15     9    11    1
    16    15    14    2
    17    14    13   am
    18    11    13   am
    19    11    12    2
    20    13    18    1
    21    24    23   ar
    22    24    25   ar
    23    26    25    1
    24    23    21   ar
    25    25    19   ar
    26    21    20   ar
    27    19    20   ar
    28    19    18    1
    29    20    22    1

@<TRIPOS>MOLECULE
ZINC40373321_replica-1.pdb
 29 30 0 0 0
SMALL
GASTEIGER

@<TRIPOS>ATOM
      1  C13        5.1400   34.7850   58.6060 C.3     0  <0>0        0.1195
      2  C12        5.1090   34.2110   60.0240 C.3     0  <0>0        0.1691
      3  O2         6.4310   33.8450   60.4200 O.3     0  <0>0       -0.3473
      4  C11        6.6440   32.4340   60.4990 C.3     0  <0>0        0.1894
      5  C10        8.1470   32.1450   60.4880 C.3     0  <0>0        0.2373
      6  O1         8.8710   33.3740   60.5540 O.3     0  <0>0       -0.4727
      7  C7        10.0410   33.3660   61.2440 C.ar    0  <0>0        0.1387
      8  C6        10.3550   32.2920   62.0650 C.ar    0  <0>0        0.0366
      9  C5        11.5460   32.2860   62.7660 C.ar    0  <0>0       -0.0012
     10  C4        12.4230   33.3480   62.6500 C.ar    0  <0>0       -0.0223
     11  C9        12.1100   34.4210   61.8370 C.ar    0  <0>0       -0.0012
     12  C8        10.9230   34.4300   61.1300 C.ar    0  <0>0        0.0366
     13  C2        13.7220   33.3370   63.4150 C.3     0  <0>0        0.0224
     14  C1        14.0440   31.9060   63.8530 C.3     0  <0>0        0.0047
     15  C3        14.8450   33.8630   62.5210 C.3     0  <0>0        0.0047
     16  C14        6.5720   35.1920   58.2510 C.3     0  <0>0       -0.0445
     17  N1         6.5920   36.6100   57.8330 N.4     0  <0>0        0.3937
     18  C19        7.3480   37.3750   58.8120 C.3     0  <0>0       -0.0422
     19  C18        7.7010   38.7820   58.3420 C.3     0  <0>0       -0.0190
     20  C20        6.4660   37.5170   60.0740 C.3     0  <0>0       -0.0210
     21  C21        8.6210   36.6350   59.2360 C.3     0  <0>0       -0.0210
     22  C17        8.3340   38.7430   56.9520 C.3     0  <0>0       -0.0040
     23  C16        7.3310   38.1030   55.9910 C.3     0  <0>0       -0.0190
     24  C15        7.0100   36.6800   56.4410 C.3     0  <0>0       -0.0422
     25  C22        8.2030   35.7630   56.1640 C.3     0  <0>0       -0.0210
     26  C23        5.8350   36.1760   55.5730 C.3     0  <0>0       -0.0210
     27  H40        5.6160   36.9340   57.8770 H       0  <0>0       -0.0792
     28  O3         4.6820   33.7960   57.6820 O.3     0  <0>0       -0.3841
     29  H39        3.7310   33.6230   57.7320 H       0  <0>0        0.2103
@<TRIPOS>BOND
     1    26    24    1
     2    23    24    1
     3    23    22    1
     4    25    24    1
     5    24    17    1
     6    22    19    1
     7    28    29    1
     8    28     1    1
     9    17    27    1
    10    17    16    1
    11    17    18    1
    12    16     1    1
    13    19    18    1
    14     1     2    1
    15    18    21    1
    16    18    20    1
    17     2     3    1
    18     3     4    1
    19     5     4    1
    20     5     6    1
    21     6     7    1
    22    12     7   ar
    23    12    11   ar
    24     7     8   ar
    25    11    10   ar
    26     8     9   ar
    27    15    13    1
    28    10     9   ar
    29    10    13    1
    30    13    14    1

@<TRIPOS>MOLECULE
ZINC66541637_replica-1.pdb
 24 25 0 0 0
SMALL
GASTEIGER

@<TRIPOS>ATOM
      1  C4        12.0120   33.8500   62.2820 C.3     0  <0>0        0.0750
      2  C5        10.7620   33.6820   61.4170 C.3     0  <0>0        0.0234
      3  C6        10.5400   34.9510   60.5910 C.3     0  <0>0        0.0453
      4  C7        10.3560   36.1450   61.5270 C.3     0  <0>0        0.1690
      5  C8        11.6060   36.3130   62.3940 C.3     0  <0>0        0.0453
      6  C9        11.8280   35.0440   63.2200 C.3     0  <0>0        0.0234
      7  O3        10.1490   37.3300   60.7560 O.3     0  <0>0       -0.4520
      8  C10        8.9070   37.5490   60.2950 C.2     0  <0>0        0.3214
      9  O4         7.9520   37.1780   60.9340 O.2     0  <0>0       -0.2497
     10  C11        8.7060   38.2580   58.9810 C.3     0  <0>0        0.1359
     11  C12        8.1970   37.2790   57.9550 C.ar    0  <0>0       -0.0110
     12  C17        7.1970   37.6540   57.0770 C.ar    0  <0>0       -0.0014
     13  C16        6.7340   36.7590   56.1320 C.ar    0  <0>0        0.0293
     14  C15        7.2640   35.4810   56.0730 C.ar    0  <0>0        0.1401
     15  C14        8.2610   35.1040   56.9550 C.ar    0  <0>0        0.0293
     16  F1         6.8080   34.6030   55.1530 F       0  <0>0       -0.2042
     17  C13        8.7270   36.0030   57.8960 C.ar    0  <0>0       -0.0014
     18  N1        12.2240   32.6350   63.0740 N.am    0  <0>0       -0.2723
     19  C3        13.4720   32.1650   63.2650 C.2     0  <0>0        0.4016
     20  O2        14.4220   32.7470   62.7800 O.2     0  <0>0       -0.2264
     21  H6        11.4650   32.1710   63.4610 H       0  <0>0        0.1527
     22  O1        13.6670   31.0490   63.9930 O.3     0  <0>0       -0.4347
     23  C2        12.8880   29.9030   63.6440 C.3     0  <0>0        0.2102
     24  C1        12.2790   29.2940   64.9090 C.3     0  <0>0        0.0513
@<TRIPOS>BOND
     1    16    14    1
     2    14    13   ar
     3    14    15   ar
     4    13    12   ar
     5    15    17   ar
     6    12    11   ar
     7    17    11   ar
     8    11    10    1
     9    10     8    1
    10     8     7    1
    11     8     9    2
    12     3     2    1
    13     3     4    1
    14     7     4    1
    15     2     1    1
    16     4     5    1
    17     1    18    1
    18     1     6    1
    19     5     6    1
    20    20    19    2
    21    18    19   am
    22    18    21    1
    23    19    22    1
    24    23    22    1
    25    23    24    1

@<TRIPOS>MOLECULE
ZINC01939644_replica-1.pdb
 21 23 0 0 0
SMALL
GASTEIGER

@<TRIPOS>ATOM
      1  N1         4.5450   35.3120   58.4090 N.am    0  <0>0       -0.2582
      2  C5         3.9470   35.5890   57.2220 C.3     0  <0>0        0.2222
      3  N2         4.6160   36.1260   56.2380 N.2     0  <0>0       -0.2451
      4  C6         5.9070   36.4200   56.3660 C.2     0  <0>0        0.0973
      5  C7         6.6100   36.1700   57.5560 C.3     0  <0>0        0.1452
      6  C8         5.8480   35.5810   58.6150 C.2     0  <0>0        0.2369
      7  O1         6.3710   35.3260   59.6860 O.2     0  <0>0       -0.2740
      8  C9         8.0180   36.5510   57.5340 C.2     0  <0>0       -0.0012
      9  C10        8.5250   37.1050   56.4060 C.2     0  <0>0        0.0332
     10  S1         7.1290   37.1350   55.2980 S.3     0  <0>0       -0.0717
     11  C11        8.8750   36.3420   58.7240 C.ar    0  <0>0       -0.0026
     12  C16        9.5950   35.1560   58.8680 C.ar    0  <0>0        0.0006
     13  C15       10.3960   34.9690   59.9760 C.ar    0  <0>0        0.0114
     14  C14       10.4870   35.9550   60.9430 C.ar    0  <0>0        0.0577
     15  C13        9.7750   37.1350   60.8050 C.ar    0  <0>0        0.0114
     16 Cl         11.4960   35.7130   62.3340 Cl      0  <0>0       -0.0822
     17  C12        8.9700   37.3320   59.7010 C.ar    0  <0>0        0.0006
     18  C4         3.7580   34.7090   59.4870 C.3     0  <0>0        0.0952
     19  C2         2.4580   34.1410   58.9130 C.3     0  <0>0        0.0199
     20  C1         2.4030   32.6340   59.1690 C.3     0  <0>0        0.0018
     21  C3         1.2640   34.8180   59.5900 C.3     0  <0>0        0.0018
@<TRIPOS>BOND
     1    10     4    1
     2    10     9    1
     3     3     4    2
     4     3     2    1
     5     4     5    1
     6     9     8    2
     7     2     1    1
     8     8     5    1
     9     8    11    1
    10     5     6    1
    11     1     6   am
    12     1    18    1
    13     6     7    2
    14    11    12   ar
    15    11    17   ar
    16    12    13   ar
    17    19    20    1
    18    19    18    1
    19    19    21    1
    20    17    15   ar
    21    13    14   ar
    22    15    14   ar
    23    14    16    1

@<TRIPOS>MOLECULE
ZINC04698214_replica-1.pdb
 30 33 0 0 0
SMALL
GASTEIGER

@<TRIPOS>ATOM
      1  C13        6.4700   36.5950   59.3540 C.2     0  <0>0        0.2229
      2  O2         5.6690   37.3460   59.8690 O.2     0  <0>0       -0.2751
      3  N1         6.2030   35.2760   59.2750 N.am    0  <0>0       -0.3043
      4  H15        6.8100   34.6860   58.8020 H       0  <0>0        0.1494
      5  C9         7.7610   37.1370   58.7980 C.3     0  <0>0        0.0915
      6  C8         8.7290   35.9820   58.5340 C.3     0  <0>0        0.0360
      7  C5         9.6440   35.8130   59.7190 C.ar    0  <0>0       -0.0217
      8  C4         9.7700   36.8310   60.6460 C.ar    0  <0>0       -0.0046
      9  C3        10.6090   36.6760   61.7330 C.ar    0  <0>0       -0.0046
     10  C2        11.3230   35.5020   61.8940 C.ar    0  <0>0       -0.0219
     11  C1        12.2380   35.3340   63.0790 C.3     0  <0>0        0.0310
     12  C7        11.1960   34.4840   60.9680 C.ar    0  <0>0       -0.0046
     13  C6        10.3540   34.6380   59.8830 C.ar    0  <0>0       -0.0046
     14  C10        7.4800   37.8770   57.4880 C.3     0  <0>0        0.1123
     15  C11        8.6670   38.7840   57.1510 C.3     0  <0>0        0.0123
     16  C12        7.2820   36.8770   56.3780 C.2     0  <0>0        0.3648
     17  O1         8.1490   36.7090   55.5530 O.co2   0  <0>0       -0.2457
     18  O3         6.1410   36.1730   56.3060 O.co2   0  <0>0       -0.2457
     19  C14        4.9930   34.7350   59.9000 C.3     0  <0>0        0.0894
     20  C15        4.4380   33.5990   59.0380 C.3     0  <0>0        0.0212
     21  C16        2.9320   33.4720   59.2720 C.3     0  <0>0        0.0016
     22  C21        2.6700   33.1250   60.7390 C.3     0  <0>0        0.0001
     23  C20        1.1640   32.9960   60.9720 C.3     0  <0>0        0.0000
     24  C19        0.4810   34.3230   60.6320 C.3     0  <0>0        0.0000
     25  C22        0.6020   31.8890   60.0780 C.3     0  <0>0        0.0000
     26  C18        0.7420   34.6690   59.1650 C.3     0  <0>0        0.0000
     27  C17        2.2480   34.7970   58.9320 C.3     0  <0>0        0.0001
     28  C24        0.1800   33.5630   58.2710 C.3     0  <0>0        0.0000
     29  C23        0.8630   32.2360   58.6110 C.3     0  <0>0        0.0000
     30  C25        2.3690   32.3650   58.3780 C.3     0  <0>0        0.0001
@<TRIPOS>BOND
     1    17    16   ar
     2    18    16   ar
     3    16    14    1
     4    15    14    1
     5    14     5    1
     6    28    29    1
     7    28    26    1
     8    30    29    1
     9    30    21    1
    10     6     5    1
    11     6     7    1
    12    29    25    1
    13     5     1    1
    14     4     3    1
    15    27    26    1
    16    27    21    1
    17    20    21    1
    18    20    19    1
    19    26    24    1
    20    21    22    1
    21     3     1   am
    22     3    19    1
    23     1     2    2
    24     7    13   ar
    25     7     8   ar
    26    13    12   ar
    27    25    23    1
    28    24    23    1
    29     8     9   ar
    30    22    23    1
    31    12    10   ar
    32     9    10   ar
    33    10    11    1

@<TRIPOS>MOLECULE
ZINC41795677_replica-1.pdb
 22 22 0 0 0
SMALL
GASTEIGER

@<TRIPOS>ATOM
      1  C7        -0.5390   29.6160   55.2630 C.3     0  <0>0        0.0703
      2  C8        -0.4220   30.9130   54.4620 C.3     0  <0>0       -0.0061
      3  N1         0.5920   29.5120   56.1950 N.4     0  <0>0        0.3967
      4  H14        1.4170   29.9050   55.7680 H       0  <0>0       -0.0830
      5  H21        0.7570   28.5420   56.4170 H       0  <0>0       -0.0830
      6  C2         0.2790   30.2490   57.4270 C.3     0  <0>0       -0.0606
      7  C1         1.2130   31.4550   57.5520 C.3     0  <0>0       -0.0234
      8  C3         0.4690   29.3300   58.6350 C.3     0  <0>0       -0.0213
      9  C4         1.2400   28.0800   58.2090 C.3     0  <0>0       -0.0020
     10  C5         2.5750   28.0270   58.9560 C.3     0  <0>0       -0.0001
     11  C6         0.4190   26.8340   58.5450 C.3     0  <0>0       -0.0001
     12  C9        -0.5210   28.4400   54.3210 C.ar    0  <0>0       -0.0295
     13  C14       -1.1870   28.5130   53.1120 C.ar    0  <0>0        0.0065
     14  C13       -1.1660   27.4360   52.2440 C.ar    0  <0>0        0.0678
     15  C12       -0.4850   26.2820   52.5910 C.ar    0  <0>0        0.0682
     16 Cl         -1.9960   27.5310   50.7220 Cl      0  <0>0       -0.0814
     17  C11        0.1760   26.2070   53.8030 C.ar    0  <0>0        0.0119
     18 Cl         -0.4630   24.9270   51.5040 Cl      0  <0>0       -0.0814
     19  C10        0.1580   27.2870   54.6680 C.ar    0  <0>0       -0.0048
     20  C15       -1.8310   29.6170   56.0390 C.2     0  <0>0        0.3503
     21  O1        -2.4820   30.6430   56.1380 O.co2   0  <0>0       -0.2476
     22  O2        -2.2250   28.5920   56.5690 O.co2   0  <0>0       -0.2476
@<TRIPOS>BOND
     1    16    14    1
     2    18    15    1
     3    14    15   ar
     4    14    13   ar
     5    15    17   ar
     6    13    12   ar
     7    17    19   ar
     8    12    19   ar
     9    12     1    1
    10     2     1    1
    11     1    20    1
    12     1     3    1
    13     4     3    1
    14    20    21   ar
    15    20    22   ar
    16     3     5    1
    17     3     6    1
    18     6     7    1
    19     6     8    1
    20     9    11    1
    21     9     8    1
    22     9    10    1

@<TRIPOS>MOLECULE
ZINC36618878_replica-1.pdb
 29 33 0 0 0
SMALL
GASTEIGER

@<TRIPOS>ATOM
      1  C3         5.3480   32.5870   58.2340 C.2     0  <0>0        0.2204
      2  N1         5.8960   31.9270   59.2460 N.2     0  <0>0       -0.3773
      3  C4         7.0540   32.3730   59.7080 C.2     0  <0>0        0.1527
      4  C5         7.7340   33.5060   59.1900 C.3     0  <0>0        0.1547
      5  C6         8.9540   33.8420   59.7970 C.2     0  <0>0       -0.0224
      6  C7         9.3700   33.0530   60.8410 C.2     0  <0>0        0.0242
      7  S2         8.1160   31.8180   61.0070 S.3     0  <0>0       -0.0596
      8  C8        10.5980   33.2840   61.5970 C.ar    0  <0>0        0.0015
      9  C9        11.1550   32.3350   62.4460 C.ar    0  <0>0        0.0002
     10  C10       12.3370   32.6160   63.1040 C.ar    0  <0>0       -0.0000
     11  C11       12.9610   33.8360   62.9150 C.ar    0  <0>0       -0.0003
     12  C12       12.4050   34.7890   62.0810 C.ar    0  <0>0       -0.0042
     13  C13       11.2180   34.5320   61.4290 C.ar    0  <0>0       -0.0214
     14  C14       10.5630   35.5850   60.5780 C.3     0  <0>0        0.0307
     15  C15        9.8450   35.0020   59.3670 C.3     0  <0>0        0.0281
     16  C16        7.1080   34.1930   58.0950 C.2     0  <0>0        0.2460
     17  O1         7.6100   35.1770   57.5780 O.2     0  <0>0       -0.2733
     18  N2         5.9310   33.6810   57.6690 N.am    0  <0>0       -0.2037
     19  C17        5.2780   34.3090   56.5970 C.ar    0  <0>0        0.0947
     20  C22        4.4160   35.3760   56.8350 C.ar    0  <0>0        0.1527
     21  C21        3.7770   35.9950   55.7720 C.ar    0  <0>0        0.0382
     22  C20        3.9890   35.5470   54.4820 C.ar    0  <0>0        0.0032
     23  C19        4.8410   34.4840   54.2460 C.ar    0  <0>0        0.0015
     24  C18        5.4860   33.8640   55.3000 C.ar    0  <0>0        0.0184
     25  O2         4.2040   35.8120   58.1050 O.3     0  <0>0       -0.4702
     26  C23        2.8450   35.9600   58.5220 C.3     0  <0>0        0.2525
     27  S1         3.8070   32.0220   57.5920 S.3     0  <0>0       -0.0664
     28  C2         2.6390   32.2900   58.9530 C.3     0  <0>0        0.0660
     29  C1         1.2440   32.5570   58.3830 C.3     0  <0>0        0.0130
@<TRIPOS>BOND
     1    23    22   ar
     2    23    24   ar
     3    22    21   ar
     4    24    19   ar
     5    21    20   ar
     6    19    20   ar
     7    19    18    1
     8    20    25    1
     9    17    16    2
    10    27     1    1
    11    27    28    1
    12    18    16   am
    13    18     1    1
    14    16     4    1
    15    25    26    1
    16     1     2    2
    17    29    28    1
    18     4     3    1
    19     4     5    1
    20     2     3    2
    21    15     5    1
    22    15    14    1
    23     3     7    1
    24     5     6    2
    25    14    13    1
    26     6     7    1
    27     6     8    1
    28    13     8   ar
    29    13    12   ar
    30     8     9   ar
    31    12    11   ar
    32     9    10   ar
    33    11    10   ar

@<TRIPOS>MOLECULE
ZINC00206926_replica-1.pdb
 25 28 0 0 0
SMALL
GASTEIGER

@<TRIPOS>ATOM
      1  C8         9.3060   35.3990   59.7680 C.2     0  <0>0        0.1857
      2  C9         8.4460   34.2230   60.0050 C.2     0  <0>0        0.2826
      3  O1         7.3340   34.1640   59.5160 O.2     0  <0>0       -0.2668
      4  N2         8.9090   33.2130   60.7730 N.am    0  <0>0       -0.2493
      5  C10       10.1820   33.3070   61.3190 C.2     0  <0>0        0.0800
      6  C11       10.6540   32.2740   62.1030 C.2     0  <0>0        0.0169
      7  C12       11.9350   32.3510   62.6630 C.ar    0  <0>0       -0.0022
      8  C13       12.4550   31.3230   63.4690 C.ar    0  <0>0       -0.0003
      9  C14       13.7060   31.4470   63.9890 C.ar    0  <0>0       -0.0000
     10  C15       14.4930   32.5700   63.7440 C.ar    0  <0>0       -0.0003
     11  C16       14.0490   33.5990   62.9740 C.ar    0  <0>0       -0.0038
     12  C17       12.7610   33.5340   62.4060 C.ar    0  <0>0       -0.0150
     13  C18       12.2560   34.5620   61.6080 C.3     0  <0>0        0.0865
     14  C19       10.9760   34.4510   61.0670 C.2     0  <0>0        0.1271
     15  N3        10.5050   35.4530   60.2940 N.2     0  <0>0       -0.4000
     16  C20        8.0780   32.0340   61.0270 C.3     0  <0>0        0.1205
     17  C7         8.8170   36.5130   58.9300 C.ar    0  <0>0        0.0472
     18  C2         8.6740   36.3440   57.5450 C.ar    0  <0>0        0.0473
     19  C3         8.2140   37.3980   56.7680 C.ar    0  <0>0        0.0144
     20  C4         7.8950   38.6050   57.3590 C.ar    0  <0>0        0.0013
     21  C5         8.0390   38.7760   58.7260 C.ar    0  <0>0        0.0002
     22  C6         8.4950   37.7400   59.5120 C.ar    0  <0>0        0.0039
     23  N1         8.9920   35.1250   56.9520 N.pl3   0  <0>0       -0.3312
     24  C1         7.9540   34.3510   56.2670 C.3     0  <0>0        0.1085
     25  H4         9.9010   34.7880   56.9940 H       0  <0>0        0.1469
@<TRIPOS>BOND
     1    24    23    1
     2    19    20   ar
     3    19    18   ar
     4    23    25    1
     5    23    18    1
     6    20    21   ar
     7    18    17   ar
     8    21    22   ar
     9    17    22   ar
    10    17     1    1
    11     3     2    2
    12     1     2    1
    13     1    15    2
    14     2     4   am
    15    15    14    2
    16     4    16    1
    17     4     5    1
    18    14     5    1
    19    14    13    1
    20     5     6    2
    21    13    12    1
    22     6     7    1
    23    12     7   ar
    24    12    11   ar
    25     7     8   ar
    26    11    10   ar
    27     8     9   ar
    28    10     9   ar

@<TRIPOS>MOLECULE
ZINC38710968_replica-1.pdb
 22 25 0 0 0
SMALL
GASTEIGER

@<TRIPOS>ATOM
      1  C8         0.2920   30.2310   55.5610 C.2     0  <0>0        0.2110
      2  N2         0.2770   29.1280   54.8330 N.2     0  <0>0       -0.3843
      3  C9        -0.6520   28.9090   53.8990 C.2     0  <0>0        0.1209
      4  C10       -1.6120   29.8830   53.7350 C.3     0  <0>0        0.1080
      5  S1        -1.1390   31.1000   54.9250 S.3     0  <0>0       -0.0607
      6  C11       -2.7450   29.8290   52.7730 C.3     0  <0>0        0.0231
      7  C12       -2.3300   29.0260   51.5380 C.3     0  <0>0        0.0277
      8  C13       -1.5990   27.7650   51.9100 C.ar    0  <0>0       -0.0200
      9  C14       -0.7690   27.6980   53.0270 C.ar    0  <0>0        0.0224
     10  C15       -0.0730   26.5370   53.3310 C.ar    0  <0>0        0.0019
     11  C16       -0.2200   25.4240   52.5250 C.ar    0  <0>0        0.0001
     12  C17       -1.0600   25.4780   51.4270 C.ar    0  <0>0       -0.0003
     13  C18       -1.7440   26.6380   51.1190 C.ar    0  <0>0       -0.0042
     14  N1         1.1770   30.6110   56.5580 N.pl3   0  <0>0       -0.2833
     15  H8         1.9110   30.0260   56.8030 H       0  <0>0        0.1551
     16  C7         1.0120   31.8360   57.2090 C.ar    0  <0>0        0.0464
     17  C2         0.5630   31.8720   58.5230 C.ar    0  <0>0       -0.0084
     18  C1         0.2520   30.5880   59.2490 C.3     0  <0>0        0.0323
     19  C3         0.4080   33.0840   59.1660 C.ar    0  <0>0       -0.0030
     20  C4         0.6930   34.2620   58.5010 C.ar    0  <0>0       -0.0002
     21  C5         1.1350   34.2310   57.1920 C.ar    0  <0>0        0.0013
     22  C6         1.2930   33.0220   56.5420 C.ar    0  <0>0        0.0144
@<TRIPOS>BOND
     1    13    12   ar
     2    13     8   ar
     3    12    11   ar
     4     7     8    1
     5     7     6    1
     6     8     9   ar
     7    11    10   ar
     8     6     4    1
     9     9    10   ar
    10     9     3    1
    11     4     3    1
    12     4     5    1
    13     3     2    2
    14     2     1    2
    15     5     1    1
    16     1    14    1
    17    22    21   ar
    18    22    16   ar
    19    14    15    1
    20    14    16    1
    21    21    20   ar
    22    16    17   ar
    23    20    19   ar
    24    17    19   ar
    25    17    18    1

@<TRIPOS>MOLECULE
ZINC40018675_replica-1.pdb
 26 29 0 0 0
SMALL
GASTEIGER

@<TRIPOS>ATOM
      1  N1         6.9600   36.9960   58.0690 N.am    0  <0>0       -0.2398
      2  C9         6.0040   36.9140   58.9790 C.2     0  <0>0        0.2598
      3  O1         6.1290   37.4100   60.0840 O.2     0  <0>0       -0.2690
      4  C10        4.7760   36.1930   58.5870 C.2     0  <0>0        0.0849
      5  C11        3.6480   35.9550   59.3030 C.2     0  <0>0        0.0111
      6  S1         5.1860   35.7190   56.9140 S.3     0  <0>0       -0.0604
      7  C21        6.8140   36.4500   56.8440 C.2     0  <0>0        0.1215
      8  S2         7.9230   36.4540   55.5400 S.2     0  <0>0       -0.0272
      9  C12        2.6240   35.0430   58.7770 C.ar    0  <0>0        0.0005
     10  C17        2.7640   33.6580   58.9350 C.ar    0  <0>0       -0.0011
     11  C16        1.7990   32.8130   58.4450 C.ar    0  <0>0        0.0154
     12  C15        0.6870   33.3110   57.7720 C.ar    0  <0>0        0.1345
     13  C18        1.6570   31.3030   58.4800 C.3     0  <0>0        0.0729
     14  C14        0.5500   34.6910   57.6120 C.ar    0  <0>0        0.0366
     15  O2        -0.1250   32.3030   57.3540 O.3     0  <0>0       -0.4791
     16  C13        1.5040   35.5480   58.1070 C.ar    0  <0>0        0.0031
     17  C19        0.1680   31.1140   58.1060 C.3     0  <0>0        0.1704
     18  C20       -0.0190   29.8630   57.2450 C.3     0  <0>0        0.0476
     19  C8         8.2030   37.7000   58.3960 C.3     0  <0>0        0.1260
     20  C5         9.0710   36.8130   59.2510 C.ar    0  <0>0       -0.0020
     21  C4         9.4350   35.5590   58.7980 C.ar    0  <0>0       -0.0029
     22  C3        10.2330   34.7470   59.5820 C.ar    0  <0>0       -0.0045
     23  C2        10.6660   35.1880   60.8180 C.ar    0  <0>0       -0.0219
     24  C1        11.5350   34.3020   61.6720 C.3     0  <0>0        0.0310
     25  C7        10.2970   36.4400   61.2720 C.ar    0  <0>0       -0.0045
     26  C6         9.5040   37.2550   60.4870 C.ar    0  <0>0       -0.0029
@<TRIPOS>BOND
     1     8     7    2
     2     7     6    1
     3     7     1    1
     4     6     4    1
     5    18    17    1
     6    15    12    1
     7    15    17    1
     8    14    12   ar
     9    14    16   ar
    10    12    11   ar
    11     1    19    1
    12     1     2   am
    13    17    13    1
    14    16     9   ar
    15    19    20    1
    16    11    13    1
    17    11    10   ar
    18     4     2    1
    19     4     5    2
    20     9    10   ar
    21     9     5    1
    22    21    20   ar
    23    21    22   ar
    24     2     3    2
    25    20    26   ar
    26    22    23   ar
    27    26    25   ar
    28    23    25   ar
    29    23    24    1

@<TRIPOS>MOLECULE
ZINC02252229_replica-1.pdb
 29 32 0 0 0
SMALL
GASTEIGER

@<TRIPOS>ATOM
      1  N1         2.5340   33.9010   58.0490 N.am    0  <0>0       -0.2067
      2  C8         3.7010   34.5720   58.0650 C.2     0  <0>0        0.2459
      3  O1         4.1640   34.9810   59.1160 O.2     0  <0>0       -0.2733
      4  C9         4.3940   34.7930   56.8340 C.3     0  <0>0        0.1545
      5  C10        5.6630   35.4830   56.6160 C.2     0  <0>0       -0.0219
      6  C11        6.1090   35.5660   55.3440 C.2     0  <0>0        0.0319
      7  S1         4.8800   34.7410   54.3720 S.3     0  <0>0       -0.0615
      8  C12        3.7700   34.2850   55.6800 C.2     0  <0>0        0.1525
      9  N2         2.6130   33.6360   55.7300 N.2     0  <0>0       -0.3773
     10  C13        1.9970   33.4400   56.8790 C.2     0  <0>0        0.2206
     11  C18        7.3770   36.2220   54.8890 C.3     0  <0>0        0.1744
     12  O2         8.1880   36.4630   56.0500 O.3     0  <0>0       -0.3506
     13  C19        7.4780   37.0890   57.1220 C.3     0  <0>0        0.1197
     14  C20        6.4860   36.1020   57.7430 C.3     0  <0>0        0.0527
     15  C5         1.8540   33.6780   59.2530 C.ar    0  <0>0        0.0608
     16  C4         2.1480   32.5590   60.0200 C.ar    0  <0>0        0.0150
     17  C3         1.4760   32.3410   61.2070 C.ar    0  <0>0       -0.0030
     18  C2         0.5110   33.2350   61.6310 C.ar    0  <0>0       -0.0218
     19  C1        -0.2210   32.9940   62.9260 C.3     0  <0>0        0.0310
     20  C7         0.2150   34.3500   60.8690 C.ar    0  <0>0       -0.0030
     21  C6         0.8840   34.5740   59.6820 C.ar    0  <0>0        0.0150
     22  S2         0.4640   32.5730   56.9090 S.3     0  <0>0       -0.0619
     23  C14        0.7550   31.3760   55.5830 C.3     0  <0>0        0.0879
     24  C15       -0.5560   30.7640   55.1620 C.2     0  <0>0       -0.0327
     25  C16       -0.6150   30.0160   54.0890 C.2     0  <0>0       -0.0082
     26  C17       -1.7990   31.0110   55.9780 C.3     0  <0>0        0.0273
     27  C21        8.4730   37.5480   58.1900 C.3     0  <0>0        0.0276
     28  C22        7.7490   38.4160   59.2220 C.3     0  <0>0        0.0025
     29  C23        9.0770   36.3260   58.8840 C.3     0  <0>0        0.0025
@<TRIPOS>BOND
     1    25    24    2
     2     7     6    1
     3     7     8    1
     4    11     6    1
     5    11    12    1
     6    24    23    1
     7    24    26    1
     8     6     5    2
     9    23    22    1
    10     8     9    2
    11     8     4    1
    12     9    10    2
    13    12    13    1
    14     5     4    1
    15     5    14    1
    16     4     2    1
    17    10    22    1
    18    10     1    1
    19    13    14    1
    20    13    27    1
    21     1     2   am
    22     1    15    1
    23     2     3    2
    24    27    29    1
    25    27    28    1
    26    15    21   ar
    27    15    16   ar
    28    21    20   ar
    29    16    17   ar
    30    20    18   ar
    31    17    18   ar
    32    18    19    1

@<TRIPOS>MOLECULE
ZINC43220899_replica-1.pdb
 26 30 0 0 0
SMALL
GASTEIGER

@<TRIPOS>ATOM
      1  P1         4.4500   33.1010   57.9900 P.3     0  <0>0        0.3252
      2  O1         5.8730   32.3570   57.9190 O.3     0  <0>0       -0.4341
      3  C3         6.8900   32.8030   58.6820 C.ar    0  <0>0        0.1413
      4  C4         7.5490   31.7960   59.3810 C.ar    0  <0>0        0.0366
      5  C5         8.6140   32.0890   60.1830 C.ar    0  <0>0       -0.0015
      6  C6         9.0220   33.4080   60.3070 C.ar    0  <0>0       -0.0262
      7  C7         8.3720   34.4260   59.6350 C.ar    0  <0>0       -0.0268
      8  C8         7.2980   34.1380   58.7900 C.ar    0  <0>0        0.0140
      9  C9         6.5670   35.1830   57.9980 C.3     0  <0>0        0.0745
     10  C10        7.2120   36.5140   57.8590 C.ar    0  <0>0       -0.0199
     11  C11        7.1000   37.4370   58.8930 C.ar    0  <0>0       -0.0042
     12  C12        7.7630   38.6440   58.8370 C.ar    0  <0>0       -0.0003
     13  C13        8.4940   38.9880   57.7190 C.ar    0  <0>0       -0.0003
     14  C14        8.5080   38.1320   56.6320 C.ar    0  <0>0       -0.0046
     15  C15        7.8090   36.9410   56.6870 C.ar    0  <0>0       -0.0257
     16  C16        7.5760   36.1640   55.4180 C.3     0  <0>0        0.0286
     17  C17        6.1860   35.5450   55.4890 C.3     0  <0>0        0.0354
     18  C18        6.0530   34.6330   56.6790 C.3     0  <0>0        0.1318
     19  O2         4.6500   34.2960   56.8920 O.3     0  <0>0       -0.3002
     20  C19        8.7920   35.8540   59.8480 C.3     0  <0>0        0.0258
     21  C20        9.9510   36.0530   60.8160 C.3     0  <0>0        0.0050
     22  C21       10.9490   34.8980   60.7040 C.3     0  <0>0        0.0050
     23  C22       10.2160   33.6510   61.2020 C.3     0  <0>0        0.0260
     24  N1         3.3160   32.0460   57.3240 N.3     0  <0>0       -0.2024
     25  C1         2.5000   31.4200   58.3720 C.3     0  <0>0        0.0985
     26  C2         2.4700   32.7350   56.3400 C.3     0  <0>0        0.0985
@<TRIPOS>BOND
     1    16    17    1
     2    16    15    1
     3    17    18    1
     4    26    24    1
     5    14    15   ar
     6    14    13   ar
     7    18    19    1
     8    18     9    1
     9    15    10   ar
    10    19     1    1
    11    24     1    1
    12    24    25    1
    13    13    12   ar
    14    10     9    1
    15    10    11   ar
    16     2     1    1
    17     2     3    1
    18     9     8    1
    19     3     8   ar
    20     3     4   ar
    21     8     7   ar
    22    12    11   ar
    23     4     5   ar
    24     7    20    1
    25     7     6   ar
    26    20    21    1
    27     5     6   ar
    28     6    23    1
    29    22    21    1
    30    22    23    1

@<TRIPOS>MOLECULE
ZINC06628790_replica-1.pdb
 24 27 0 0 0
SMALL
GASTEIGER

@<TRIPOS>ATOM
      1  C8         6.8930   36.1580   58.4260 C.2     0  <0>0        0.2252
      2  N1         6.4630   35.5380   59.5640 N.am    0  <0>0       -0.2563
      3  H1         7.0960   35.4010   60.2860 H       0  <0>0        0.1573
      4  C9         5.1890   35.1040   59.7270 C.2     0  <0>0        0.2386
      5  O2         4.8130   34.5520   60.7450 O.2     0  <0>0       -0.2739
      6  C10        4.2840   35.3520   58.5760 C.3     0  <0>0        0.1537
      7  C11        2.9290   35.0040   58.4890 C.2     0  <0>0       -0.0268
      8  C12        2.2750   35.3200   57.3380 C.2     0  <0>0        0.0023
      9  S1         3.4990   36.1120   56.3250 S.3     0  <0>0       -0.0639
     10  C13        4.8540   36.0050   57.4520 C.2     0  <0>0        0.1519
     11  N2         6.1140   36.3930   57.3840 N.2     0  <0>0       -0.3806
     12  C14        0.8410   35.0550   57.0050 C.3     0  <0>0        0.0324
     13  C15        0.2900   34.0350   58.0120 C.3     0  <0>0        0.0055
     14  C16        0.6850   34.4800   59.4230 C.3     0  <0>0        0.0047
     15  C17        2.1890   34.2980   59.6230 C.3     0  <0>0        0.0231
     16  C7         8.3050   36.5890   58.3550 C.2     0  <0>0        0.2392
     17  O1         8.6870   37.2700   57.4230 O.2     0  <0>0       -0.2824
     18  C6         9.2540   36.1910   59.4140 C.ar    0  <0>0        0.0429
     19  C1         9.4840   37.0360   60.5030 C.ar    0  <0>0        0.0038
     20  C2        10.3660   36.6570   61.4920 C.ar    0  <0>0        0.0068
     21  C3        11.0330   35.4460   61.4020 C.ar    0  <0>0        0.0346
     22  C4        10.8140   34.6060   60.3230 C.ar    0  <0>0        0.0068
     23 Br         12.2470   34.9370   62.7590 Br      0  <0>0       -0.0490
     24  C5         9.9290   34.9700   59.3300 C.ar    0  <0>0        0.0038
@<TRIPOS>BOND
     1     9     8    1
     2     9    10    1
     3    12     8    1
     4    12    13    1
     5     8     7    2
     6    11    10    2
     7    11     1    2
     8    17    16    2
     9    10     6    1
    10    13    14    1
    11    16     1    1
    12    16    18    1
    13     1     2    1
    14     7     6    1
    15     7    15    1
    16     6     4    1
    17    24    18   ar
    18    24    22   ar
    19    18    19   ar
    20    14    15    1
    21     2     4   am
    22     2     3    1
    23     4     5    2
    24    22    21   ar
    25    19    20   ar
    26    21    20   ar
    27    21    23    1

@<TRIPOS>MOLECULE
ZINC05247887_replica-1.pdb
 22 23 0 0 0
SMALL
GASTEIGER

@<TRIPOS>ATOM
      1  C1         7.9500   32.4870   59.5170 C.3     0  <0>0        0.0328
      2  C2         9.0900   32.9610   60.3810 C.2     0  <0>0        0.0021
      3  C3         9.6090   32.1470   61.3200 C.2     0  <0>0        0.0390
      4  C4        10.7110   32.6080   62.1630 C.2     0  <0>0        0.1915
      5  O1        11.1760   31.8700   63.0160 O.2     0  <0>0       -0.2869
      6  C5        11.2590   33.9520   61.9860 C.2     0  <0>0        0.0180
      7  C6        10.7490   34.7710   61.0450 C.2     0  <0>0        0.0209
      8  C7         9.6410   34.3110   60.1960 C.2     0  <0>0        0.1160
      9  N1         9.1420   35.1050   59.2780 N.2     0  <0>0       -0.0735
     10  O2         9.5970   36.2260   59.1300 O.3     0  <0>0       -0.3113
     11  C8         8.7680   37.1600   58.6220 C.2     0  <0>0        0.3679
     12  O3         8.7660   38.2840   59.0810 O.2     0  <0>0       -0.2425
     13  C9         7.8650   36.8160   57.5060 C.ar    0  <0>0        0.0832
     14  C14        6.5240   36.5120   57.7570 C.ar    0  <0>0        0.0364
     15  C13        5.6850   36.1900   56.7090 C.ar    0  <0>0        0.0060
     16  I1         5.7900   36.5420   59.7190 I       0  <0>0       -0.0423
     17  C12        6.1670   36.1750   55.4130 C.ar    0  <0>0        0.0004
     18  C11        7.4950   36.4700   55.1580 C.ar    0  <0>0        0.0002
     19  C10        8.3450   36.7930   56.1950 C.ar    0  <0>0        0.0069
     20  C15       12.3960   34.4230   62.8570 C.3     0  <0>0        0.0255
     21  C16       13.7240   34.1700   62.1420 C.3     0  <0>0        0.0048
     22  C17       12.2410   35.9200   63.1300 C.3     0  <0>0        0.0048
@<TRIPOS>BOND
     1    18    17   ar
     2    18    19   ar
     3    17    15   ar
     4    19    13   ar
     5    15    14   ar
     6    13    14   ar
     7    13    11    1
     8    14    16    1
     9    11    12    2
    10    11    10    1
    11    10     9    1
    12     9     8    2
    13     1     2    1
    14     8     2    1
    15     8     7    1
    16     2     3    2
    17     7     6    2
    18     3     4    1
    19     6     4    1
    20     6    20    1
    21    21    20    1
    22     4     5    2
    23    20    22    1

@<TRIPOS>MOLECULE
ZINC41570392_replica-1.pdb
 25 26 0 0 0
SMALL
GASTEIGER

@<TRIPOS>ATOM
      1  C8         6.7470   34.0270   58.0270 C.2     0  <0>0        0.3269
      2  O2         7.2350   33.4770   57.0670 O.2     0  <0>0       -0.2492
      3  O1         7.2710   35.1760   58.4800 O.3     0  <0>0       -0.4517
      4  C6         8.5390   35.5660   57.9460 C.3     0  <0>0        0.1687
      5  C5         8.4680   37.0190   57.4730 C.3     0  <0>0        0.0402
      6  C4         8.1120   37.9240   58.6550 C.3     0  <0>0        0.0036
      7  C3         9.1820   37.7920   59.7390 C.3     0  <0>0        0.0002
      8  C2         9.2530   36.3380   60.2120 C.3     0  <0>0        0.0036
      9  C1         7.8970   35.9210   60.7830 C.3     0  <0>0        0.0001
     10  C7         9.6100   35.4340   59.0310 C.3     0  <0>0        0.0436
     11  C16        7.3960   37.1510   56.3890 C.3     0  <0>0        0.0035
     12  C17        7.2220   38.6260   56.0210 C.3     0  <0>0        0.0001
     13  C18        7.8250   36.3630   55.1500 C.3     0  <0>0        0.0001
     14  C9         5.5520   33.4200   58.7170 C.3     0  <0>0        0.1506
     15  C10        6.0150   32.2890   59.6370 C.3     0  <0>0        0.0239
     16  S1         4.7110   34.6920   59.6990 S.3     0  <0>0       -0.1017
     17  C11        3.3430   35.1690   58.6950 C.ar    0  <0>0        0.0450
     18  C15        2.0450   34.9060   59.1060 C.ar    0  <0>0        0.1064
     19  N1         1.0160   35.2640   58.3610 N.ar    0  <0>0       -0.2291
     20  C14        1.1780   35.8730   57.1980 C.ar    0  <0>0        0.1254
     21  C13        2.4510   36.1640   56.7190 C.ar    0  <0>0        0.0344
     22  C12        3.5530   35.8090   57.4740 C.ar    0  <0>0        0.0106
     23  N2         0.0610   36.2280   56.4440 N.pl3   0  <0>0       -0.3426
     24  H20       -0.4550   37.0150   56.6810 H       0  <0>0        0.1437
     25  H21       -0.2000   35.6880   55.6810 H       0  <0>0        0.1437
@<TRIPOS>BOND
     1    13    11    1
     2    25    23    1
     3    12    11    1
     4    11     5    1
     5    23    24    1
     6    23    20    1
     7    21    20   ar
     8    21    22   ar
     9     2     1    2
    10    20    19   ar
    11     5     4    1
    12     5     6    1
    13    22    17   ar
    14     4     3    1
    15     4    10    1
    16     1     3    1
    17     1    14    1
    18    19    18   ar
    19     6     7    1
    20    17    18   ar
    21    17    16    1
    22    14    15    1
    23    14    16    1
    24    10     8    1
    25     7     8    1
    26     8     9    1

@<TRIPOS>MOLECULE
ZINC63659177_replica-1.pdb
 31 34 0 0 0
SMALL
GASTEIGER

@<TRIPOS>ATOM
      1  N2         7.9630   33.0820   59.3730 N.am    0  <0>0       -0.2845
      2  C11        8.6640   33.8990   60.3680 C.3     0  <0>0        0.0932
      3  C10        9.8020   34.6620   59.6900 C.3     0  <0>0        0.0275
      4  C7         9.4040   36.1060   59.5150 C.3     0  <0>0        0.0431
      5  C6         9.5490   37.2170   60.5310 C.3     0  <0>0        0.0731
      6  N1         9.0200   38.4240   59.8850 N.pl3   0  <0>0       -0.3340
      7  C24        8.7370   36.8950   61.7880 C.3     0  <0>0        0.0215
      8  C5         8.6190   38.1090   58.6760 C.ar    0  <0>0        0.0406
      9  H32        8.9760   39.3070   60.2830 H       0  <0>0        0.1468
     10  C4         8.0360   38.8880   57.6390 C.ar    0  <0>0        0.0137
     11  C8         8.8470   36.6700   58.4200 C.ar    0  <0>0       -0.0081
     12  C3         7.7060   38.3180   56.4620 C.ar    0  <0>0       -0.0030
     13  C2         7.9110   36.9580   56.1950 C.ar    0  <0>0       -0.0221
     14  C1         7.5110   36.4050   54.8510 C.3     0  <0>0        0.0310
     15  C9         8.4530   36.1260   57.1140 C.ar    0  <0>0       -0.0073
     16  C12        8.6370   31.9330   58.7630 C.3     0  <0>0        0.1574
     17  C13        7.8060   30.6940   58.9720 C.ar    0  <0>0        0.1430
     18  O1         7.3910   30.2170   60.1580 O.2     0  <0>0       -0.4530
     19  C16        6.6700   29.1010   59.9640 C.ar    0  <0>0        0.1792
     20  C15        6.6260   28.8470   58.6440 C.ar    0  <0>0        0.0435
     21  C14        7.3580   29.8740   58.0050 C.ar    0  <0>0        0.0379
     22  C17        6.6990   33.3880   59.0200 C.2     0  <0>0        0.1349
     23  S1         5.4470   33.3360   60.1870 S.2     0  <0>0       -0.0186
     24  N3         6.4200   33.7350   57.7480 N.am    0  <0>0       -0.3176
     25  H17        7.1280   33.7640   57.0870 H       0  <0>0        0.1484
     26  C18        5.0450   34.0670   57.3640 C.3     0  <0>0        0.0706
     27  C23        4.8470   35.5820   57.4400 C.3     0  <0>0        0.0195
     28  C22        3.4120   35.9300   57.0390 C.3     0  <0>0        0.0017
     29  C21        3.1520   35.4520   55.6090 C.3     0  <0>0        0.0001
     30  C20        3.3490   33.9360   55.5340 C.3     0  <0>0        0.0017
     31  C19        4.7850   33.5890   55.9350 C.3     0  <0>0        0.0195
@<TRIPOS>BOND
     1    14    13    1
     2    30    29    1
     3    30    31    1
     4    29    28    1
     5    31    26    1
     6    13    12   ar
     7    13    15   ar
     8    12    10   ar
     9    28    27    1
    10    25    24    1
    11    15    11   ar
    12    26    27    1
    13    26    24    1
    14    10     8   ar
    15    24    22    1
    16    21    20   ar
    17    21    17   ar
    18    11     8   ar
    19    11     4    1
    20    20    19   ar
    21     8     6    1
    22    16    17    1
    23    16     1    1
    24    17    18   ar
    25    22     1    1
    26    22    23    2
    27     1     2    1
    28     4     3    1
    29     4     5    1
    30     3     2    1
    31     6     9    1
    32     6     5    1
    33    19    18   ar
    34     5     7    1

@<TRIPOS>MOLECULE
ZINC36978187_replica-1.pdb
 20 21 0 0 0
SMALL
GASTEIGER

@<TRIPOS>ATOM
      1  C8         9.5170   34.9090   59.2450 C.ar    0  <0>0        0.0643
      2  C9        10.4870   35.3100   60.1610 C.ar    0  <0>0        0.0207
      3  C10       10.8180   34.4450   61.1890 C.ar    0  <0>0        0.0590
      4  C11       10.1780   33.2170   61.2750 C.ar    0  <0>0        0.2250
      5  N2         9.2610   32.8690   60.3880 N.ar    0  <0>0       -0.2088
      6  C12        8.9150   33.6680   59.3960 C.ar    0  <0>0        0.1163
      7  N1         9.1500   35.7500   58.1880 N.pl3   0  <0>0       -0.3328
      8  H14        9.8250   36.0860   57.5780 H       0  <0>0        0.1468
      9  C7         7.7460   36.1240   58.0030 C.3     0  <0>0        0.0690
     10  C2         7.6090   36.9910   56.7490 C.3     0  <0>0        0.0179
     11  C1         8.0930   36.2040   55.5290 C.3     0  <0>0        0.0017
     12  C3         8.4560   38.2550   56.9100 C.3     0  <0>0        0.0016
     13  C4         7.9730   39.0420   58.1280 C.3     0  <0>0        0.0001
     14  C5         8.1090   38.1750   59.3820 C.3     0  <0>0        0.0017
     15  C6         7.2610   36.9110   59.2220 C.3     0  <0>0        0.0195
     16  O1        10.4950   32.3620   62.2810 O.3     0  <0>0       -0.4575
     17  C13       11.6800   32.6490   63.0270 C.3     0  <0>0        0.2390
     18  C14       12.5010   31.3680   63.1930 C.3     0  <0>0        0.1895
     19  O2        13.8750   31.7060   63.3900 O.3     0  <0>0       -0.3471
     20  C15       14.2000   33.0520   63.0370 C.3     0  <0>0        0.1743
@<TRIPOS>BOND
     1    11    10    1
     2    10    12    1
     3    10     9    1
     4    12    13    1
     5     8     7    1
     6     9     7    1
     7     9    15    1
     8    13    14    1
     9     7     1    1
    10    15    14    1
    11     1     6   ar
    12     1     2   ar
    13     6     5   ar
    14     2     3   ar
    15     5     4   ar
    16     3     4   ar
    17     4    16    1
    18    16    17    1
    19    17    18    1
    20    20    19    1
    21    18    19    1

@<TRIPOS>MOLECULE
ZINC33810345_replica-1.pdb
 32 35 0 0 0
SMALL
GASTEIGER

@<TRIPOS>ATOM
      1  C1         0.2540   27.6670   55.0280 C.3     0  <0>0        0.0008
      2  C2        -0.7450   28.6720   54.4510 C.3     0  <0>0        0.0125
      3  C3        -0.1020   30.0590   54.3910 C.3     0  <0>0        0.0414
      4  C4         0.2670   30.5070   55.7840 C.2     0  <0>0        0.0260
      5  C5        -0.4530   30.1110   56.8550 C.2     0  <0>0        0.0265
      6  C6        -0.0850   30.5610   58.2450 C.3     0  <0>0        0.0650
      7  C7         0.8250   31.7540   58.2100 C.3     0  <0>0        0.1516
      8  C8         1.5000   32.0840   57.0770 C.2     0  <0>0        0.1714
      9  N1         2.3280   33.1760   57.0830 N.2     0  <0>0       -0.3697
     10  C9         2.4680   33.9190   58.2160 C.2     0  <0>0        0.2145
     11  N2         1.8170   33.6110   59.3190 N.am    0  <0>0       -0.2540
     12  C10        0.9940   32.5520   59.3610 C.2     0  <0>0        0.2365
     13  O1         0.3960   32.2800   60.3920 O.2     0  <0>0       -0.2742
     14  N3         1.3490   31.3300   55.9360 N.pl3   0  <0>0       -0.2946
     15  C20       -1.5650   29.2630   56.7070 C.2     0  <0>0        0.1703
     16  O2        -2.2020   28.9390   57.6890 O.2     0  <0>0       -0.2916
     17  C21       -1.9790   28.7480   55.3560 C.3     0  <0>0        0.0692
     18  C22       -1.1630   28.2320   53.0470 C.3     0  <0>0        0.0008
     19  H12        2.1090   31.3930   55.1430 H       0  <0>0        0.1540
     20  H21        1.9450   34.2250   60.2220 H       0  <0>0        0.1577
     21  C14        0.6100   29.4320   58.9620 C.ar    0  <0>0       -0.0165
     22  C19        0.0740   28.9200   60.1270 C.ar    0  <0>0        0.0083
     23  C18        0.7100   27.8780   60.7810 C.ar    0  <0>0        0.0679
     24  C17        1.8870   27.3590   60.2730 C.ar    0  <0>0        0.0682
     25 Cl          0.0330   27.2300   62.2430 Cl      0  <0>0       -0.0814
     26  C16        2.4260   27.8770   59.1090 C.ar    0  <0>0        0.0119
     27 Cl          2.6890   26.0570   61.0960 Cl      0  <0>0       -0.0814
     28  C15        1.7870   28.9130   58.4530 C.ar    0  <0>0       -0.0030
     29  S1         3.5450   35.3150   58.2080 S.3     0  <0>0       -0.0621
     30  C11        2.9300   36.1770   56.7400 C.3     0  <0>0        0.0919
     31  C12        4.0110   36.2150   55.6910 C.2     0  <0>0       -0.0140
     32  C13        4.0100   35.3380   54.7180 C.2     0  <0>0       -0.0040
@<TRIPOS>BOND
     1    18     2    1
     2     3     2    1
     3     3     4    1
     4     2     1    1
     5     2    17    1
     6    32    31    2
     7    19    14    1
     8    17    15    1
     9    31    30    1
    10     4    14    1
    11     4     5    2
    12    14     8    1
    13    15     5    1
    14    15    16    2
    15    30    29    1
    16     5     6    1
    17     8     9    2
    18     8     7    1
    19     9    10    2
    20    29    10    1
    21     7     6    1
    22     7    12    1
    23    10    11    1
    24     6    21    1
    25    28    21   ar
    26    28    26   ar
    27    21    22   ar
    28    26    24   ar
    29    11    12   am
    30    11    20    1
    31    12    13    2
    32    22    23   ar
    33    24    23   ar
    34    24    27    1
    35    23    25    1

@<TRIPOS>MOLECULE
ZINC37953026_replica-1.pdb
 21 22 0 0 0
SMALL
GASTEIGER

@<TRIPOS>ATOM
      1  C8         7.5020   37.0560   58.2850 C.3     0  <0>0        0.1697
      2  N1         6.7340   35.8200   58.1140 N.pl3   0  <0>0       -0.3254
      3  H10        7.1780   34.9610   58.1740 H       0  <0>0        0.1472
      4  C5         5.3570   35.8810   57.8660 C.ar    0  <0>0        0.0452
      5  C4         4.8860   35.8950   56.5610 C.ar    0  <0>0        0.0174
      6  C3         3.5280   35.9550   56.3160 C.ar    0  <0>0        0.0382
      7  C2         2.6340   36.0020   57.3770 C.ar    0  <0>0        0.1388
      8  C7         3.1040   35.9930   58.6820 C.ar    0  <0>0        0.0382
      9  C6         4.4620   35.9280   58.9260 C.ar    0  <0>0        0.0174
     10  O1         1.2970   36.0610   57.1360 O.3     0  <0>0       -0.4714
     11  C1         0.5040   34.9700   57.6070 C.3     0  <0>0        0.2525
     12  C9         8.7890   36.7540   59.0560 C.3     0  <0>0        0.0335
     13  C14        8.6890   37.3330   60.4680 C.3     0  <0>0        0.0279
     14  C13        9.8160   36.8200   61.3180 C.2     0  <0>0       -0.0306
     15  C12       10.5400   35.7900   61.0180 C.2     0  <0>0       -0.0307
     16  C11       10.3570   34.9650   59.7770 C.3     0  <0>0        0.0258
     17  C10        8.9820   35.2360   59.1620 C.3     0  <0>0        0.0072
     18  C15        7.8480   37.6230   56.9320 C.2     0  <0>0        0.3350
     19  O2         7.5610   38.7650   56.6640 O.2     0  <0>0       -0.2483
     20  O3         8.4770   36.8580   56.0250 O.3     0  <0>0       -0.4433
     21  C16        7.7380   36.5000   54.8550 C.3     0  <0>0        0.2557
@<TRIPOS>BOND
     1    21    20    1
     2    20    18    1
     3     6     5   ar
     4     6     7   ar
     5     5     4   ar
     6    19    18    2
     7    18     1    1
     8    10     7    1
     9    10    11    1
    10     7     8   ar
    11     4     2    1
    12     4     9   ar
    13     2     3    1
    14     2     1    1
    15     1    12    1
    16     8     9   ar
    17    12    17    1
    18    12    13    1
    19    17    16    1
    20    16    15    1
    21    13    14    1
    22    15    14    2

@<TRIPOS>MOLECULE
ZINC02305115_replica-1.pdb
 29 32 0 0 0
SMALL
GASTEIGER

@<TRIPOS>ATOM
      1  C3         7.6850   36.4300   57.2960 C.3     0  <0>0        0.0970
      2  C4         6.2690   36.1660   57.8160 C.3     0  <0>0        0.0504
      3  C5         5.5020   35.4080   56.7350 C.2     0  <0>0       -0.0220
      4  C6         5.9640   35.4080   55.4660 C.2     0  <0>0        0.0319
      5  S1         4.8020   34.4320   54.5540 S.3     0  <0>0       -0.0615
      6  C7         3.6950   34.0270   55.8820 C.2     0  <0>0        0.1525
      7  C8         4.2690   34.6660   56.9950 C.3     0  <0>0        0.1545
      8  C9         3.5710   34.5080   58.2340 C.2     0  <0>0        0.2459
      9  O1         3.9940   35.0250   59.2520 O.2     0  <0>0       -0.2733
     10  N1         2.4410   33.7760   58.2590 N.am    0  <0>0       -0.2070
     11  C10        1.9550   33.1830   57.1280 C.2     0  <0>0        0.2206
     12  N2         2.5760   33.3190   55.9730 N.2     0  <0>0       -0.3773
     13  C22        7.1980   36.0980   54.9720 C.3     0  <0>0        0.1742
     14  O2         7.6290   37.0130   55.9900 O.3     0  <0>0       -0.3529
     15  C23        8.4540   35.1090   57.2250 C.3     0  <0>0        0.0300
     16  C15        1.7530   33.6170   59.4690 C.ar    0  <0>0        0.0569
     17  C20        2.0610   32.5540   60.3090 C.ar    0  <0>0       -0.0077
     18  C19        1.3770   32.3960   61.4990 C.ar    0  <0>0       -0.0030
     19  C21        3.1350   31.5720   59.9200 C.3     0  <0>0        0.0323
     20  C18        0.3910   33.2970   61.8550 C.ar    0  <0>0       -0.0002
     21  C17        0.0870   34.3590   61.0240 C.ar    0  <0>0        0.0013
     22  C16        0.7670   34.5230   59.8330 C.ar    0  <0>0        0.0150
     23  S2         0.4750   32.2300   57.2120 S.3     0  <0>0       -0.0619
     24  C11        0.5130   31.4450   55.5830 C.3     0  <0>0        0.0879
     25  C12       -0.8420   30.8630   55.2740 C.2     0  <0>0       -0.0327
     26  C13       -1.8340   31.0320   56.1120 C.2     0  <0>0       -0.0082
     27  C14       -1.0570   30.0850   54.0010 C.3     0  <0>0        0.0273
     28  C2         8.4060   37.3860   58.2480 C.3     0  <0>0        0.0276
     29  C1         8.5190   38.7660   57.5970 C.3     0  <0>0        0.0025
@<TRIPOS>BOND
     1    27    25    1
     2     5     4    1
     3     5     6    1
     4    13     4    1
     5    13    14    1
     6    25    24    1
     7    25    26    2
     8     4     3    2
     9    24    23    1
    10     6    12    2
    11     6     7    1
    12    12    11    2
    13    14     1    1
    14     3     7    1
    15     3     2    1
    16     7     8    1
    17    11    23    1
    18    11    10    1
    19    15     1    1
    20     1     2    1
    21     1    28    1
    22    29    28    1
    23     8    10   am
    24     8     9    2
    25    10    16    1
    26    16    22   ar
    27    16    17   ar
    28    22    21   ar
    29    19    17    1
    30    17    18   ar
    31    21    20   ar
    32    18    20   ar

@<TRIPOS>MOLECULE
ZINC13691027_replica-1.pdb
 27 30 0 0 0
SMALL
GASTEIGER

@<TRIPOS>ATOM
      1  C11       -0.2780   28.8380   58.0880 C.2     0  <0>0        0.0103
      2  C12        0.4070   29.9500   58.4880 C.2     0  <0>0        0.0851
      3  C13        0.7600   31.1600   57.7270 C.2     0  <0>0        0.2633
      4  O2         0.4430   31.2950   56.5590 O.2     0  <0>0       -0.2687
      5  N1         1.4320   32.0960   58.3760 N.am    0  <0>0       -0.2223
      6  C14        1.7860   31.9400   59.6680 C.2     0  <0>0        0.1250
      7  S1         2.6550   33.0220   60.6700 S.2     0  <0>0       -0.0269
      8  S2         1.1220   30.3350   60.0810 S.3     0  <0>0       -0.0601
      9  C3        -0.6500   28.6900   56.7390 C.2     0  <0>0        0.0179
     10  C2        -1.8210   29.4620   56.1880 C.3     0  <0>0        0.1883
     11  C1        -3.0940   28.6280   56.3400 C.3     0  <0>0        0.0523
     12  O1        -1.6090   29.7640   54.8050 O.3     0  <0>0       -0.4748
     13  C10       -1.2210   28.7440   54.0000 C.ar    0  <0>0        0.1388
     14  C5        -0.3820   27.7430   54.5220 C.ar    0  <0>0        0.0338
     15  C9        -1.6330   28.6720   52.6820 C.ar    0  <0>0        0.0369
     16  C4         0.0400   27.8430   55.9270 C.2     0  <0>0        0.0022
     17  C6         0.0310   26.6860   53.7110 C.ar    0  <0>0        0.0030
     18  C7        -0.3900   26.6310   52.3990 C.ar    0  <0>0        0.0002
     19  C8        -1.2180   27.6180   51.8880 C.ar    0  <0>0        0.0031
     20  C15        1.7890   33.2720   57.7050 C.ar    0  <0>0        0.0623
     21  C20        0.8650   34.2970   57.5580 C.ar    0  <0>0        0.0519
     22  C19        1.2240   35.4590   56.8920 C.ar    0  <0>0        0.1349
     23  C18        2.5040   35.5960   56.3750 C.ar    0  <0>0        0.0367
     24  C17        3.4230   34.5740   56.5220 C.ar    0  <0>0        0.0044
     25  C16        3.0720   33.4170   57.1900 C.ar    0  <0>0        0.0155
     26  O3         0.3210   36.4650   56.7480 O.3     0  <0>0       -0.5055
     27  H15       -0.6010   36.1720   56.7700 H       0  <0>0        0.2922
@<TRIPOS>BOND
     1    19    18   ar
     2    19    15   ar
     3    18    17   ar
     4    15    13   ar
     5    17    14   ar
     6    13    14   ar
     7    13    12    1
     8    14    16    1
     9    12    10    1
    10    16     9    2
    11    10    11    1
    12    10     9    1
    13    23    24   ar
    14    23    22   ar
    15    24    25   ar
    16     4     3    2
    17     9     1    1
    18    26    27    1
    19    26    22    1
    20    22    21   ar
    21    25    20   ar
    22    21    20   ar
    23    20     5    1
    24     3     5   am
    25     3     2    1
    26     1     2    2
    27     5     6    1
    28     2     8    1
    29     6     8    1
    30     6     7    2

@<TRIPOS>MOLECULE
ZINC10137847_replica-1.pdb
 24 26 0 0 0
SMALL
GASTEIGER

@<TRIPOS>ATOM
      1  C8         1.2310   28.7340   57.9360 C.2     0  <0>0        0.2521
      2  O1         2.1340   27.9840   58.2600 O.2     0  <0>0       -0.2696
      3  N3         0.4410   28.4240   56.8890 N.am    0  <0>0       -0.2983
      4  H9        -0.2780   29.0220   56.6310 H       0  <0>0        0.1500
      5  C5         1.0030   29.9730   58.6850 C.ar    0  <0>0        0.0842
      6  C4         0.8990   31.2470   58.2120 C.ar    0  <0>0        0.0143
      7  C3         0.6770   32.3050   59.1070 C.ar    0  <0>0        0.0393
      8  C2         0.5080   33.7280   59.0850 C.ar    0  <0>0        0.0809
      9  C6         0.5770   31.9510   60.4610 C.ar    0  <0>0        0.1086
     10  C1         0.5330   34.5920   57.8510 C.3     0  <0>0        0.0540
     11  N2         0.3270   34.1530   60.2980 N.ar    0  <0>0       -0.1731
     12  N1         0.3650   33.0680   61.1830 N.ar    0  <0>0       -0.2431
     13  C7         0.2030   33.1360   62.6380 C.3     0  <0>0        0.1543
     14  S1         0.7850   30.1900   60.4420 S.2     0  <0>0       -0.0638
     15  C9         0.6690   27.1850   56.1410 C.3     0  <0>0        0.0945
     16  C10        0.0490   26.0100   56.9000 C.3     0  <0>0        0.0262
     17  C11        0.0320   27.2970   54.7790 C.ar    0  <0>0       -0.0036
     18  C16        0.0960   26.2340   53.8990 C.ar    0  <0>0        0.0096
     19  C15       -0.4890   26.3350   52.6490 C.ar    0  <0>0        0.0679
     20  C14       -1.1370   27.5010   52.2810 C.ar    0  <0>0        0.0682
     21 Cl         -0.4090   25.0000   51.5420 Cl      0  <0>0       -0.0814
     22  C13       -1.2010   28.5640   53.1650 C.ar    0  <0>0        0.0120
     23 Cl         -1.8720   27.6300   50.7150 Cl      0  <0>0       -0.0814
     24  C12       -0.6200   28.4590   54.4150 C.ar    0  <0>0       -0.0018
@<TRIPOS>BOND
     1    23    20    1
     2    21    19    1
     3    20    19   ar
     4    20    22   ar
     5    19    18   ar
     6    22    24   ar
     7    18    17   ar
     8    24    17   ar
     9    17    15    1
    10    15     3    1
    11    15    16    1
    12     4     3    1
    13     3     1   am
    14    10     8    1
    15     1     2    2
    16     1     5    1
    17     6     5   ar
    18     6     7   ar
    19     5    14   ar
    20     8     7   ar
    21     8    11   ar
    22     7     9   ar
    23    11    12   ar
    24    14     9   ar
    25     9    12   ar
    26    12    13    1

@<TRIPOS>MOLECULE
ZINC21660319_replica-1.pdb
 28 32 0 0 0
SMALL
GASTEIGER

@<TRIPOS>ATOM
      1  C1         0.3450   34.1080   60.0060 C.3     0  <0>0        0.0554
      2  C2         0.7460   33.8440   58.5770 C.2     0  <0>0        0.0986
      3  C3         0.5410   32.6730   57.8540 C.2     0  <0>0        0.0564
      4  C4         1.0780   32.9340   56.6190 C.3     0  <0>0        0.2948
      5  O1         1.5510   34.1740   56.6720 O.2     0  <0>0       -0.3560
      6  N1         1.3580   34.6710   57.7660 N.2     0  <0>0       -0.0853
      7  N2         1.0510   31.9870   55.6150 N.pl3   0  <0>0       -0.2985
      8  C5         0.2300   30.8950   55.7630 C.2     0  <0>0        0.0274
      9  C6        -0.3270   30.5600   56.9470 C.2     0  <0>0        0.0437
     10  C7        -0.0940   31.3670   58.2080 C.2     0  <0>0        0.0060
     11  C14       -1.1610   29.4330   57.0600 C.2     0  <0>0        0.1742
     12  O2        -1.6640   29.1730   58.1370 O.2     0  <0>0       -0.2913
     13  C15       -1.4440   28.5430   55.8840 C.3     0  <0>0        0.0739
     14  C16       -0.2570   28.6070   54.9160 C.3     0  <0>0        0.0356
     15  C17       -0.0350   30.0690   54.5240 C.3     0  <0>0        0.0458
     16  H6         1.6780   32.1160   54.7200 H       0  <0>0        0.1501
     17  C8         0.8160   30.6000   59.1330 C.ar    0  <0>0        0.0000
     18  C13        2.0300   30.1250   58.6720 C.ar    0  <0>0       -0.0000
     19  C12        2.8640   29.4230   59.5210 C.ar    0  <0>0       -0.0000
     20  C11        2.4850   29.1950   60.8310 C.ar    0  <0>0       -0.0000
     21  C10        1.2710   29.6690   61.2920 C.ar    0  <0>0       -0.0000
     22  C9         0.4380   30.3750   60.4440 C.ar    0  <0>0       -0.0000
     23  C18       -0.5570   27.7920   53.6860 C.ar    0  <0>0       -0.0217
     24  C23       -0.1290   26.4800   53.6050 C.ar    0  <0>0       -0.0043
     25  C22       -0.4050   25.7310   52.4760 C.ar    0  <0>0       -0.0003
     26  C21       -1.1100   26.2940   51.4280 C.ar    0  <0>0       -0.0000
     27  C20       -1.5390   27.6060   51.5100 C.ar    0  <0>0       -0.0003
     28  C19       -1.2670   28.3530   52.6410 C.ar    0  <0>0       -0.0043
@<TRIPOS>BOND
     1    26    27   ar
     2    26    25   ar
     3    27    28   ar
     4    25    24   ar
     5    28    23   ar
     6    24    23   ar
     7    23    14    1
     8    15    14    1
     9    15     8    1
    10    16     7    1
    11    14    13    1
    12     7     8    1
    13     7     4    1
    14     8     9    2
    15    13    11    1
    16     4     5    1
    17     4     3    1
    18     5     6    1
    19     9    11    1
    20     9    10    1
    21    11    12    2
    22     6     2    2
    23     3    10    2
    24     3     2    1
    25    10    17    1
    26     2     1    1
    27    18    17   ar
    28    18    19   ar
    29    17    22   ar
    30    19    20   ar
    31    22    21   ar
    32    20    21   ar

@<TRIPOS>MOLECULE
ZINC03365553_replica-1.pdb
 32 35 0 0 0
SMALL
GASTEIGER

@<TRIPOS>ATOM
      1  O2         3.3590   33.5170   55.3960 O.3     0  <0>0       -0.4353
      2  C12        2.7140   33.1860   56.6530 C.3     0  <0>0        0.2927
      3  C11        1.4140   32.4760   56.3800 C.2     0  <0>0        0.2671
      4  N1         1.4200   31.1920   55.9710 N.am    0  <0>0       -0.3029
      5  H15        2.2620   30.7250   55.8530 H       0  <0>0        0.1495
      6  O1         0.3610   33.0610   56.5280 O.2     0  <0>0       -0.2711
      7  C2         0.1560   30.5020   55.7050 C.3     0  <0>0        0.0721
      8  C1        -0.1700   29.5660   56.8710 C.3     0  <0>0        0.0213
      9  C3         0.2820   29.6850   54.4170 C.3     0  <0>0        0.0242
     10  C4        -1.1140   29.3490   53.8890 C.3     0  <0>0        0.0280
     11  C5        -1.0460   28.0980   53.0500 C.ar    0  <0>0       -0.0221
     12  C10       -0.3380   27.0000   53.5020 C.ar    0  <0>0       -0.0043
     13  C9        -0.2750   25.8540   52.7330 C.ar    0  <0>0       -0.0003
     14  C8        -0.9200   25.8050   51.5110 C.ar    0  <0>0       -0.0000
     15  C7        -1.6270   26.9030   51.0590 C.ar    0  <0>0       -0.0003
     16  C6        -1.6910   28.0500   51.8280 C.ar    0  <0>0       -0.0043
     17  C13        4.2170   34.5560   55.4020 C.2     0  <0>0        0.3417
     18  O3         3.9020   35.6070   54.8800 O.2     0  <0>0       -0.2449
     19  C14        5.5390   34.4180   56.0420 C.ar    0  <0>0        0.0757
     20  C19        5.8880   35.2490   57.1030 C.ar    0  <0>0        0.0076
     21  C18        7.1390   35.1090   57.6990 C.ar    0  <0>0        0.0129
     22  C17        8.0380   34.1310   57.2250 C.ar    0  <0>0        0.0561
     23  C20        7.8250   35.7810   58.8000 C.ar    0  <0>0       -0.0094
     24  C16        7.6670   33.3090   56.1630 C.ar    0  <0>0        0.0172
     25  N2         9.1770   34.2210   57.9900 N.ar    0  <0>0       -0.3567
     26  C15        6.4400   33.4460   55.5850 C.ar    0  <0>0        0.0079
     27  C21        9.0370   35.2100   58.9240 C.ar    0  <0>0        0.0295
     28  H2         9.9640   33.6650   57.8840 H       0  <0>0        0.1656
     29  C22       10.0580   35.6290   59.9580 C.3     0  <0>0        0.0432
     30  C23        9.6670   37.0090   60.4970 C.3     0  <0>0        0.0066
     31  C24        8.1940   36.9970   60.9140 C.3     0  <0>0        0.0051
     32  C25        7.3130   36.9060   59.6610 C.3     0  <0>0        0.0275
@<TRIPOS>BOND
     1    15    14   ar
     2    15    16   ar
     3    14    13   ar
     4    16    11   ar
     5    13    12   ar
     6    11    12   ar
     7    11    10    1
     8    10     9    1
     9     9     7    1
    10    18    17    2
    11     1    17    1
    12     1     2    1
    13    17    19    1
    14    26    19   ar
    15    26    24   ar
    16     7     4    1
    17     7     8    1
    18     5     4    1
    19     4     3   am
    20    19    20   ar
    21    24    22   ar
    22     3     6    2
    23     3     2    1
    24    20    21   ar
    25    22    21   ar
    26    22    25   ar
    27    21    23   ar
    28    28    25    1
    29    25    27   ar
    30    23    27   ar
    31    23    32    1
    32    27    29    1
    33    32    31    1
    34    29    30    1
    35    30    31    1

@<TRIPOS>MOLECULE
ZINC13153836_replica-1.pdb
 22 23 0 0 0
SMALL
GASTEIGER

@<TRIPOS>ATOM
      1  O1         8.7570   34.8530   57.9830 O.3     0  <0>0       -0.4757
      2  C6         9.2970   35.4290   59.0890 C.ar    0  <0>0        0.1342
      3  C5         8.9010   36.7010   59.4720 C.ar    0  <0>0        0.0114
      4  C4         9.4510   37.2860   60.5980 C.ar    0  <0>0       -0.0016
      5  C3        10.3970   36.6020   61.3400 C.ar    0  <0>0       -0.0044
      6  C2        10.7930   35.3330   60.9600 C.ar    0  <0>0       -0.0189
      7  C1        11.8240   34.5920   61.7720 C.3     0  <0>0        0.0311
      8  C7        10.2510   34.7470   59.8320 C.ar    0  <0>0        0.0323
      9  C17        7.8700   37.4460   58.6630 C.3     0  <0>0        0.0253
     10  C18        6.7660   37.9570   59.5920 C.3     0  <0>0        0.0048
     11  C19        8.5340   38.6310   57.9600 C.3     0  <0>0        0.0048
     12  C8         8.4400   33.4620   58.0650 C.3     0  <0>0        0.2068
     13  C9         6.9460   33.2620   57.8010 C.3     0  <0>0        0.0646
     14  C10        6.1370   33.9490   58.9030 C.3     0  <0>0        0.0761
     15  N1         5.1840   34.8890   58.2980 N.3     0  <0>0       -0.2685
     16  C14        5.0930   34.6860   56.8450 C.3     0  <0>0        0.1020
     17  C13        4.1360   35.7230   56.2490 C.3     0  <0>0        0.1312
     18  O2         2.8640   35.6140   56.8910 O.3     0  <0>0       -0.3559
     19  C15        3.9750   35.4680   54.7490 C.3     0  <0>0        0.0335
     20  C12        2.9150   35.8080   58.3080 C.3     0  <0>0        0.1312
     21  C11        3.8590   34.7720   58.9240 C.3     0  <0>0        0.1020
     22  C16        1.5150   35.6380   58.8990 C.3     0  <0>0        0.0335
@<TRIPOS>BOND
     1    19    17    1
     2    17    16    1
     3    17    18    1
     4    16    15    1
     5    18    20    1
     6    13    12    1
     7    13    14    1
     8    11     9    1
     9     1    12    1
    10     1     2    1
    11    15    14    1
    12    15    21    1
    13    20    22    1
    14    20    21    1
    15     9     3    1
    16     9    10    1
    17     2     3   ar
    18     2     8   ar
    19     3     4   ar
    20     8     6   ar
    21     4     5   ar
    22     6     5   ar
    23     6     7    1

@<TRIPOS>MOLECULE
ZINC00154469_replica-1.pdb
 21 23 0 0 0
SMALL
GASTEIGER

@<TRIPOS>ATOM
      1  C7         9.1490   34.9610   59.8980 C.2     0  <0>0        0.0081
      2  C8        10.3460   34.7490   60.5800 C.2     0  <0>0        0.0307
      3  C9        10.5310   33.5580   61.2760 C.2     0  <0>0        0.1410
      4  N1         9.5930   32.6180   61.2910 N.2     0  <0>0       -0.3644
      5  C10        8.4430   32.7670   60.6560 C.1     0  <0>0        0.0346
      6  C11        8.1720   33.9420   59.9330 C.3     0  <0>0        0.1986
      7  C12        6.9270   34.1040   59.2450 C.1     0  <0>0        0.0919
      8  N2         5.9380   34.2320   58.6990 N.1     0  <0>0       -0.1945
      9  S1         7.2400   31.4810   60.7160 S.2     0  <0>0        0.0206
     10  C4         8.9110   36.2180   59.1520 C.ar    0  <0>0       -0.0019
     11  C3         8.8270   36.2000   57.7590 C.ar    0  <0>0       -0.0003
     12  C2         8.6050   37.3740   57.0690 C.ar    0  <0>0       -0.0000
     13  C1         8.4660   38.5670   57.7550 C.ar    0  <0>0       -0.0000
     14  C6         8.5490   38.5910   59.1360 C.ar    0  <0>0       -0.0000
     15  C5         8.7700   37.4240   59.8380 C.ar    0  <0>0       -0.0003
     16  C13       11.8010   33.3320   62.0080 C.ar    0  <0>0        0.0304
     17  C18       12.8350   34.2630   61.9180 C.ar    0  <0>0        0.0026
     18  C17       14.0150   34.0490   62.6010 C.ar    0  <0>0        0.0001
     19  C16       14.1710   32.9130   63.3750 C.ar    0  <0>0        0.0000
     20  C15       13.1490   31.9860   63.4690 C.ar    0  <0>0        0.0001
     21  C14       11.9630   32.1930   62.7940 C.ar    0  <0>0        0.0026
@<TRIPOS>BOND
     1    12    13   ar
     2    12    11   ar
     3    13    14   ar
     4    11    10   ar
     5     8     7    3
     6    14    15   ar
     7    10    15   ar
     8    10     1    1
     9     7     6    1
    10     1     6    1
    11     1     2    2
    12     6     5    1
    13     2     3    1
    14     5     9    2
    15     5     4    2
    16     3     4    2
    17     3    16    1
    18    17    16   ar
    19    17    18   ar
    20    16    21   ar
    21    18    19   ar
    22    21    20   ar
    23    19    20   ar

@<TRIPOS>MOLECULE
ZINC48356246_replica-1.pdb
 28 30 0 0 0
SMALL
GASTEIGER

@<TRIPOS>ATOM
      1  C7         5.7930   34.3590   60.0000 C.2     0  <0>0        0.2714
      2  O1         5.5470   34.3450   61.1880 O.2     0  <0>0       -0.2706
      3  N4         6.8980   34.9850   59.5480 N.am    0  <0>0       -0.3006
      4  H10        7.0940   34.9960   58.5980 H       0  <0>0        0.1496
      5  C8         7.8010   35.6470   60.4920 C.3     0  <0>0        0.0934
      6  C9         9.0080   36.2070   59.7350 C.3     0  <0>0        0.0369
      7  C14        9.8150   37.1180   60.6620 C.3     0  <0>0        0.0057
      8  C13       10.2990   36.3150   61.8710 C.3     0  <0>0        0.0004
      9  C12       11.1830   35.1610   61.3960 C.3     0  <0>0        0.0000
     10  C11       10.3770   34.2500   60.4680 C.3     0  <0>0        0.0004
     11  C10        9.8920   35.0520   59.2590 C.3     0  <0>0        0.0057
     12  C15        8.5310   36.9980   58.5440 C.ar    0  <0>0       -0.0215
     13  C20        8.3840   36.3780   57.3170 C.ar    0  <0>0       -0.0085
     14  C19        7.9410   37.1020   56.2250 C.ar    0  <0>0       -0.0222
     15  C18        7.6570   38.4480   56.3580 C.ar    0  <0>0       -0.0043
     16  C21        7.7750   36.4250   54.8890 C.3     0  <0>0        0.0310
     17  C17        7.8090   39.0690   57.5840 C.ar    0  <0>0       -0.0006
     18  C16        8.2470   38.3440   58.6760 C.ar    0  <0>0       -0.0043
     19  C6         4.8640   33.6770   59.0300 C.3     0  <0>0        0.3017
     20  N3         3.6840   34.5170   58.8100 N.am    0  <0>0       -0.1093
     21  C4         3.5630   35.5560   57.9300 C.2     0  <0>0        0.3408
     22  N1         2.3530   36.0270   58.0500 N.2     0  <0>0        0.0876
     23  N2         1.7090   35.3650   58.9420 N.2     0  <0>0        0.0470
     24  C5         2.4790   34.4270   59.4450 C.1     0  <0>0        0.1798
     25  S1         2.0370   33.2680   60.6950 S.2     0  <0>0        0.0561
     26  C3         4.6280   36.0600   56.9900 C.3     0  <0>0        0.1209
     27  C2         4.0000   36.3810   55.6330 C.3     0  <0>0        0.0128
     28  C1         4.0790   35.1490   54.7290 C.3     0  <0>0        0.0006
@<TRIPOS>BOND
     1    28    27    1
     2    16    14    1
     3    27    26    1
     4    14    15   ar
     5    14    13   ar
     6    15    17   ar
     7    26    21    1
     8    13    12   ar
     9    17    18   ar
    10    21    22    2
    11    21    20    1
    12    22    23    1
    13    12    18   ar
    14    12     6    1
    15     4     3    1
    16    20    19    1
    17    20    24    1
    18    23    24    2
    19    19     1    1
    20    11     6    1
    21    11    10    1
    22    24    25    2
    23     3     1   am
    24     3     5    1
    25     6     5    1
    26     6     7    1
    27     1     2    2
    28    10     9    1
    29     7     8    1
    30     9     8    1

@<TRIPOS>MOLECULE
ZINC20589882_replica-1.pdb
 18 19 0 0 0
SMALL
GASTEIGER

@<TRIPOS>ATOM
      1  C4         6.7290   35.6810   57.2330 C.2     0  <0>0        0.3447
      2  N1         5.5630   35.2830   56.8070 N.2     0  <0>0        0.0880
      3  N2         4.8990   34.7480   57.7680 N.2     0  <0>0        0.0474
      4  C5         5.6110   34.7750   58.8720 C.1     0  <0>0        0.1838
      5  N3         6.8040   35.3670   58.5630 N.am    0  <0>0       -0.0964
      6  S1         5.1220   34.1610   60.4500 S.2     0  <0>0        0.0565
      7  C6         7.8830   35.6050   59.4310 C.ar    0  <0>0        0.1737
      8  C11        7.9270   36.7740   60.1790 C.ar    0  <0>0        0.0973
      9  C10        8.9900   37.0070   61.0320 C.ar    0  <0>0        0.0263
     10 Cl          6.6510   37.9440   60.0430 Cl      0  <0>0       -0.0786
     11  C9        10.0070   36.0750   61.1420 C.ar    0  <0>0        0.0596
     12  C8         9.9650   34.9100   60.3970 C.ar    0  <0>0        0.0263
     13 Cl         11.3400   36.3690   62.2150 Cl      0  <0>0       -0.0822
     14  C7         8.9020   34.6700   59.5470 C.ar    0  <0>0        0.0973
     15 Cl          8.8450   33.2040   58.6180 Cl      0  <0>0       -0.0786
     16  C3         7.7950   36.3600   56.4120 C.3     0  <0>0        0.1213
     17  C2         7.5030   37.8600   56.3380 C.3     0  <0>0        0.0128
     18  C1         8.6020   38.6290   57.0740 C.3     0  <0>0        0.0006
@<TRIPOS>BOND
     1    17    16    1
     2    17    18    1
     3    16     1    1
     4     2     1    2
     5     2     3    1
     6     1     5    1
     7     3     4    2
     8     5     4    1
     9     5     7    1
    10    15    14    1
    11     4     6    2
    12     7    14   ar
    13     7     8   ar
    14    14    12   ar
    15    10     8    1
    16     8     9   ar
    17    12    11   ar
    18     9    11   ar
    19    11    13    1

@<TRIPOS>MOLECULE
ZINC66367716_replica-1.pdb
 21 21 0 0 0
SMALL
GASTEIGER

@<TRIPOS>ATOM
      1  N1         5.3940   34.7600   57.2770 N.am    0  <0>0       -0.2904
      2  C7         6.6200   35.3130   57.1830 C.2     0  <0>0        0.3042
      3  O1         7.3900   34.9410   56.3180 O.2     0  <0>0       -0.2526
      4  N2         6.9940   36.2770   58.0470 N.am    0  <0>0       -0.2603
      5  C8         6.0660   36.7250   59.0900 C.3     0  <0>0        0.1167
      6  H15        4.7810   35.0570   57.9670 H       0  <0>0        0.1509
      7  C9         8.3270   36.8770   57.9460 C.3     0  <0>0        0.0994
      8  C10        8.2040   38.4020   57.9890 C.3     0  <0>0        0.0265
      9  C11        9.1780   36.4090   59.0980 C.ar    0  <0>0       -0.0041
     10  C16        9.3630   37.2270   60.1960 C.ar    0  <0>0       -0.0004
     11  C15       10.1400   36.7960   61.2560 C.ar    0  <0>0        0.0294
     12  C14       10.7400   35.5490   61.2120 C.ar    0  <0>0        0.1401
     13  C13       10.5570   34.7330   60.1080 C.ar    0  <0>0        0.0294
     14  F1        11.5030   35.1300   62.2450 F       0  <0>0       -0.2042
     15  C12        9.7760   35.1630   59.0530 C.ar    0  <0>0       -0.0004
     16  C3         4.9890   33.7130   56.3360 C.3     0  <0>0        0.0730
     17  C2         4.4050   32.5310   57.1120 C.3     0  <0>0        0.0196
     18  C1         4.1960   32.9320   58.5730 C.3     0  <0>0        0.0017
     19  C4         3.9310   34.2680   55.3800 C.3     0  <0>0        0.0180
     20  C5         3.3090   35.5280   55.9850 C.3     0  <0>0        0.0017
     21  C6         4.5870   34.6160   54.0420 C.3     0  <0>0        0.0017
@<TRIPOS>BOND
     1    21    19    1
     2    19    20    1
     3    19    16    1
     4     3     2    2
     5    16    17    1
     6    16     1    1
     7    17    18    1
     8     2     1   am
     9     2     4   am
    10     1     6    1
    11     7     8    1
    12     7     4    1
    13     7     9    1
    14     4     5    1
    15    15     9   ar
    16    15    13   ar
    17     9    10   ar
    18    13    12   ar
    19    10    11   ar
    20    12    11   ar
    21    12    14    1

@<TRIPOS>MOLECULE
ZINC15550444_replica-1.pdb
 25 26 0 0 0
SMALL
GASTEIGER

@<TRIPOS>ATOM
      1  N2        -0.0980   29.6900   55.4050 N.3     0  <0>0       -0.2874
      2  H18        0.5840   28.9560   55.2850 H       0  <0>0        0.1239
      3  C9         0.5270   31.0140   55.2850 C.3     0  <0>0        0.1551
      4  C8         0.5410   31.6860   56.6330 C.2     0  <0>0        0.2386
      5  N1         1.3020   32.7820   56.8330 N.am    0  <0>0       -0.3048
      6  H15        1.8400   33.1370   56.1080 H       0  <0>0        0.1494
      7  O1        -0.1310   31.2430   57.5410 O.2     0  <0>0       -0.2736
      8  C7         1.3160   33.4350   58.1440 C.3     0  <0>0        0.0715
      9  C2         2.7420   33.8780   58.4770 C.3     0  <0>0        0.0180
     10  C1         3.6630   32.6560   58.5050 C.3     0  <0>0        0.0017
     11  C3         3.2340   34.8600   57.4110 C.3     0  <0>0        0.0016
     12  C4         2.3130   36.0830   57.3830 C.3     0  <0>0        0.0001
     13  C5         0.8880   35.6400   57.0490 C.3     0  <0>0        0.0017
     14  C6         0.3960   34.6570   58.1140 C.3     0  <0>0        0.0196
     15  C10       -1.2050   29.5410   54.4500 C.3     0  <0>0        0.0771
     16  C11       -0.9760   28.3150   53.6040 C.ar    0  <0>0       -0.0079
     17  C16       -1.5090   28.2480   52.3290 C.ar    0  <0>0       -0.0007
     18  C15       -1.2960   27.1250   51.5510 C.ar    0  <0>0        0.0294
     19  C14       -0.5590   26.0660   52.0520 C.ar    0  <0>0        0.1401
     20  C13       -0.0320   26.1330   53.3300 C.ar    0  <0>0        0.0294
     21  F1        -0.3550   24.9660   51.2930 F       0  <0>0       -0.2042
     22  C12       -0.2410   27.2580   54.1040 C.ar    0  <0>0       -0.0007
     23  C17       -2.5220   29.3970   55.2140 C.3     0  <0>0        0.0186
     24  C18       -2.2700   28.6560   56.5290 C.3     0  <0>0        0.0017
     25  C19       -3.0940   30.7830   55.5110 C.3     0  <0>0        0.0017
@<TRIPOS>BOND
     1    21    19    1
     2    18    19   ar
     3    18    17   ar
     4    19    20   ar
     5    17    16   ar
     6    20    22   ar
     7    16    22   ar
     8    16    15    1
     9    15    23    1
    10    15     1    1
    11    23    25    1
    12    23    24    1
    13     2     1    1
    14     3     1    1
    15     3     4    1
    16     6     5    1
    17     4     5   am
    18     4     7    2
    19     5     8    1
    20    13    12    1
    21    13    14    1
    22    12    11    1
    23    11     9    1
    24    14     8    1
    25     8     9    1
    26     9    10    1

@<TRIPOS>MOLECULE
ZINC21818660_replica-1.pdb
 18 18 0 0 0
SMALL
GASTEIGER

@<TRIPOS>ATOM
      1  N1        -0.0460   29.3170   55.5200 N.pl3   0  <0>0       -0.3323
      2  H18        0.8710   29.9230   55.5480 H       0  <0>0        0.1468
      3  C6        -1.1350   29.5920   56.4610 C.3     0  <0>0        0.0691
      4  C5        -0.6010   29.5160   57.8930 C.3     0  <0>0        0.0195
      5  C3        -1.0110   28.1820   58.5200 C.3     0  <0>0        0.0016
      6  C4        -2.2780   27.6640   57.8370 C.3     0  <0>0        0.0001
      7  C2        -1.2800   28.3820   60.0130 C.3     0  <0>0        0.0001
      8  C1        -2.4340   27.4760   60.4490 C.3     0  <0>0        0.0000
      9  C7        -1.6940   30.9910   56.1990 C.3     0  <0>0        0.0195
     10  C8        -3.0940   30.8750   55.5920 C.3     0  <0>0        0.0017
     11  C9        -0.1750   28.2830   54.5860 C.ar    0  <0>0        0.0725
     12  C14       -0.8770   28.4950   53.4050 C.ar    0  <0>0        0.1536
     13  C13       -0.9980   27.4730   52.4810 C.ar    0  <0>0        0.0376
     14  F1        -1.4370   29.7000   53.1570 F       0  <0>0       -0.2029
     15  C12       -0.4240   26.2400   52.7340 C.ar    0  <0>0        0.0369
     16  C11        0.2720   26.0250   53.9110 C.ar    0  <0>0        0.0081
     17 Br         -0.5890   24.8450   51.4680 Br      0  <0>0       -0.0489
     18  C10        0.3940   27.0430   54.8380 C.ar    0  <0>0        0.0171
@<TRIPOS>BOND
     1    17    15    1
     2    13    15   ar
     3    13    12   ar
     4    15    16   ar
     5    14    12    1
     6    12    11   ar
     7    16    18   ar
     8    11    18   ar
     9    11     1    1
    10     1     2    1
    11     1     3    1
    12    10     9    1
    13     9     3    1
    14     3     4    1
    15     6     5    1
    16     4     5    1
    17     5     7    1
    18     7     8    1

@<TRIPOS>MOLECULE
ZINC62064652_replica-1.pdb
 26 27 0 0 0
SMALL
GASTEIGER

@<TRIPOS>ATOM
      1  C9         8.3580   36.9940   58.5470 C.3     0  <0>0        0.1020
      2  C10        8.5200   38.1520   59.5340 C.3     0  <0>0        0.0115
      3  C8         8.6780   37.4800   57.1320 C.3     0  <0>0        0.1833
      4  S1         7.3620   36.9530   55.9990 S.O2    0  <0>0        0.0736
      5  O1         7.9240   36.3230   54.8560 O.2     0  <0>0       -0.1528
      6  O2         6.3960   37.9850   55.8570 O.2     0  <0>0       -0.1528
      7  N1         6.5700   35.7400   56.8020 N.pl3   0  <0>0       -0.1006
      8  C5         5.1750   35.7370   56.8610 C.ar    0  <0>0        0.0906
      9  C4         4.4310   35.4880   55.7130 C.ar    0  <0>0        0.0177
     10  C3         3.0510   35.4850   55.7750 C.ar    0  <0>0       -0.0029
     11  C2         2.4100   35.7290   56.9750 C.ar    0  <0>0       -0.0218
     12  C1         0.9040   35.7250   57.0380 C.3     0  <0>0        0.0310
     13  C7         3.1470   35.9830   58.1180 C.ar    0  <0>0       -0.0029
     14  C6         4.5270   35.9820   58.0650 C.ar    0  <0>0        0.0177
     15  C11        9.3000   35.8780   58.9200 C.2     0  <0>0        0.2238
     16  O3         9.5060   34.9720   58.1410 O.2     0  <0>0       -0.2751
     17  N2         9.9150   35.8890   60.1200 N.am    0  <0>0       -0.3040
     18  H14        9.7500   36.6140   60.7420 H       0  <0>0        0.1494
     19  C12       10.8300   34.8050   60.4820 C.3     0  <0>0        0.0937
     20  C13       11.5370   35.1520   61.7930 C.3     0  <0>0        0.0429
     21  C14       12.1590   33.9080   62.3740 C.2     0  <0>0       -0.0468
     22  C19       13.6530   33.8720   62.5240 C.3     0  <0>0        0.0218
     23  C18       14.0560   32.7590   63.4960 C.3     0  <0>0        0.0047
     24  C17       13.3460   31.4670   63.0710 C.3     0  <0>0        0.0050
     25  C16       11.8440   31.6400   63.3050 C.3     0  <0>0        0.0254
     26  C15       11.3740   32.9340   62.7060 C.2     0  <0>0       -0.0346
@<TRIPOS>BOND
     1     5     4    2
     2     9    10   ar
     3     9     8   ar
     4    10    11   ar
     5     6     4    2
     6     4     7    1
     7     4     3    1
     8     7     8    1
     9     8    14   ar
    10    11    12    1
    11    11    13   ar
    12     3     1    1
    13    14    13   ar
    14    16    15    2
    15     1    15    1
    16     1     2    1
    17    15    17   am
    18    17    19    1
    19    17    18    1
    20    19    20    1
    21    20    21    1
    22    21    22    1
    23    21    26    2
    24    22    23    1
    25    26    25    1
    26    24    25    1
    27    24    23    1

@<TRIPOS>MOLECULE
ZINC18055888_replica-1.pdb
 20 22 0 0 0
SMALL
GASTEIGER

@<TRIPOS>ATOM
      1  C5        -0.0610   31.4750   58.3570 C.2     0  <0>0        0.0258
      2  C6        -0.3060   31.2180   57.0400 C.2     0  <0>0        0.1281
      3  C7         0.4790   31.5840   55.8430 C.1     0  <0>0        0.2127
      4  O1         1.5230   32.2140   55.9250 O.2     0  <0>0       -0.2087
      5  N1        -0.0070   31.1960   54.6840 N.2     0  <0>0       -0.3082
      6  C8        -1.1360   30.5130   54.5810 C.2     0  <0>0        0.2482
      7  S2        -1.6620   30.3360   56.2780 S.3     0  <0>0       -0.0246
      8  N2        -1.7510   30.0500   53.4450 N.pl3   0  <0>0       -0.1771
      9  C9        -1.4300   28.7840   52.9430 C.ar    0  <0>0        0.0737
     10  C14       -0.6230   27.9290   53.6820 C.ar    0  <0>0        0.0175
     11  C13       -0.3120   26.6770   53.1870 C.ar    0  <0>0        0.0127
     12  C12       -0.7920   26.2800   51.9520 C.ar    0  <0>0        0.0578
     13  C11       -1.5900   27.1350   51.2100 C.ar    0  <0>0        0.0127
     14 Cl         -0.3920   24.7100   51.3300 Cl      0  <0>0       -0.0822
     15  C10       -1.9100   28.3850   51.7030 C.ar    0  <0>0        0.0175
     16  C3         0.9970   32.3390   58.7240 C.ar    0  <0>0        0.0307
     17  C2         0.9890   33.7220   58.8710 C.ar    0  <0>0        0.0070
     18  C1         2.1840   34.2880   59.2420 C.ar    0  <0>0        0.0075
     19  C4         3.2610   33.4870   59.4350 C.ar    0  <0>0        0.0354
     20  S1         2.6880   31.9400   59.1200 S.2     0  <0>0       -0.0864
@<TRIPOS>BOND
     1    13    15   ar
     2    13    12   ar
     3    14    12    1
     4    15     9   ar
     5    12    11   ar
     6     9     8    1
     7     9    10   ar
     8    11    10   ar
     9     8     6    1
    10     6     5    2
    11     6     7    1
    12     5     3    2
    13     3     4    2
    14     3     2    1
    15     7     2    1
    16     2     1    2
    17     1    16    1
    18    16    17   ar
    19    16    20   ar
    20    17    18   ar
    21    20    19   ar
    22    18    19   ar

@<TRIPOS>MOLECULE
ZINC37139941_replica-1.pdb
 21 21 0 0 0
SMALL
GASTEIGER

@<TRIPOS>ATOM
      1  N1         8.2120   35.9890   57.2040 N.pl3   0  <0>0       -0.3327
      2  H20        8.5420   36.4630   56.4240 H       0  <0>0        0.1468
      3  C5         6.9710   35.2180   57.1220 C.3     0  <0>0        0.0691
      4  C4         5.7740   36.1700   57.1680 C.3     0  <0>0        0.0195
      5  C2         5.0390   35.9980   58.4990 C.3     0  <0>0        0.0016
      6  C1         3.5760   35.6420   58.2310 C.3     0  <0>0        0.0001
      7  C3         5.6970   34.8770   59.3060 C.3     0  <0>0        0.0001
      8  C6         6.9450   34.4300   55.8100 C.3     0  <0>0        0.0195
      9  C7         6.7290   32.9460   56.1110 C.3     0  <0>0        0.0016
     10  C8         7.6420   32.5200   57.2620 C.3     0  <0>0        0.0001
     11  C9         5.2690   32.7120   56.5040 C.3     0  <0>0        0.0001
     12  C10        8.9240   36.0440   58.4050 C.ar    0  <0>0        0.0674
     13  C15        8.8820   37.1900   59.1870 C.ar    0  <0>0        0.1563
     14  C14        9.5820   37.2390   60.3780 C.ar    0  <0>0        0.0320
     15  C13       10.3320   36.1510   60.7850 C.ar    0  <0>0        0.0363
     16  C12       10.3810   35.0090   60.0050 C.ar    0  <0>0        0.0081
     17 Br         11.2940   36.2240   62.4110 Br      0  <0>0       -0.0489
     18  C11        9.6790   34.9520   58.8170 C.ar    0  <0>0        0.0165
     19  N2         8.0840   38.3570   58.7490 N.pl3   0  <0>0        0.0589
     20  O1         8.4160   38.9830   57.7690 O.2     0  <0>0       -0.1261
     21  O2         7.1010   38.6860   59.3710 O.2     0  <0>0       -0.1261
@<TRIPOS>BOND
     1     8     9    1
     2     8     3    1
     3     9    11    1
     4     9    10    1
     5     2     1    1
     6     3     4    1
     7     3     1    1
     8     4     5    1
     9     1    12    1
    10    20    19    2
    11     6     5    1
    12    12    18   ar
    13    12    13   ar
    14     5     7    1
    15    19    13    1
    16    19    21    2
    17    18    16   ar
    18    13    14   ar
    19    16    15   ar
    20    14    15   ar
    21    15    17    1

@<TRIPOS>MOLECULE
ZINC04581089_replica-1.pdb
 28 31 0 0 0
SMALL
GASTEIGER

@<TRIPOS>ATOM
      1  C9         7.8170   37.4950   58.4620 C.3     0  <0>0        0.1053
      2  C6         8.8310   36.6960   59.2390 C.ar    0  <0>0       -0.0038
      3  C5         9.3340   37.1900   60.4280 C.ar    0  <0>0        0.0004
      4  C4        10.2640   36.4600   61.1430 C.ar    0  <0>0        0.0366
      5  C3        10.6920   35.2290   60.6660 C.ar    0  <0>0        0.1385
      6  C8        10.1890   34.7380   59.4700 C.ar    0  <0>0        0.0366
      7  C7         9.2550   35.4700   58.7620 C.ar    0  <0>0        0.0004
      8  O1        11.6060   34.5090   61.3670 O.3     0  <0>0       -0.4755
      9  C2        12.1710   35.1270   62.5250 C.3     0  <0>0        0.2055
     10  C1        13.1490   34.1600   63.1940 C.3     0  <0>0        0.0512
     11  C10        8.5000   38.1610   57.2660 C.3     0  <0>0        0.1380
     12  C11        7.9070   37.6270   55.9880 C.2     0  <0>0        0.3669
     13  O2         8.3170   36.5820   55.5140 O.co2   0  <0>0       -0.2456
     14  O3         7.0160   38.2420   55.4260 O.co2   0  <0>0       -0.2456
     15  N1         6.7560   36.6050   57.9840 N.am    0  <0>0       -0.3017
     16  C12        5.6060   36.4920   58.6800 C.2     0  <0>0        0.2217
     17  O4         5.4860   37.0550   59.7470 O.2     0  <0>0       -0.2751
     18  H13        6.8800   36.0970   57.1670 H       0  <0>0        0.1497
     19  C13        4.4720   35.6660   58.1320 C.3     0  <0>0        0.0688
     20  C18        3.1660   36.0720   58.8190 C.3     0  <0>0        0.0086
     21  C17        2.0150   35.2340   58.2620 C.3     0  <0>0        0.0005
     22  C16        2.2900   33.7520   58.5270 C.3     0  <0>0        0.0000
     23  C19        1.8940   35.4690   56.7550 C.3     0  <0>0        0.0000
     24  C15        3.5950   33.3440   57.8410 C.3     0  <0>0        0.0005
     25  C14        4.7470   34.1840   58.3970 C.3     0  <0>0        0.0086
     26  C21        3.4730   33.5800   56.3330 C.3     0  <0>0        0.0000
     27  C20        3.1990   35.0610   56.0690 C.3     0  <0>0        0.0005
     28  C22        4.3510   35.9010   56.6250 C.3     0  <0>0        0.0086
@<TRIPOS>BOND
     1    14    12   ar
     2    13    12   ar
     3    12    11    1
     4    27    26    1
     5    27    28    1
     6    27    23    1
     7    26    24    1
     8    28    19    1
     9    23    21    1
    10    18    15    1
    11    11     1    1
    12    24    25    1
    13    24    22    1
    14    15     1    1
    15    15    16   am
    16    19    25    1
    17    19    16    1
    18    19    20    1
    19    21    22    1
    20    21    20    1
    21     1     2    1
    22    16    17    2
    23     7     2   ar
    24     7     6   ar
    25     2     3   ar
    26     6     5   ar
    27     3     4   ar
    28     5     4   ar
    29     5     8    1
    30     8     9    1
    31     9    10    1

@<TRIPOS>MOLECULE
ZINC13085011_replica-1.pdb
 24 25 0 0 0
SMALL
GASTEIGER

@<TRIPOS>ATOM
      1  C8         2.1800   32.3190   56.2770 C.3     0  <0>0        0.2894
      2  O2         2.0500   33.7410   56.2510 O.3     0  <0>0       -0.4648
      3  C3         3.1830   34.4610   56.0500 C.ar    0  <0>0        0.1497
      4  C2         3.9410   34.2540   54.9040 C.ar    0  <0>0        0.0380
      5  C1         5.0950   34.9770   54.6990 C.ar    0  <0>0        0.0097
      6  C6         5.4980   35.9290   55.6380 C.ar    0  <0>0        0.0808
      7  C5         4.7330   36.1350   56.7910 C.ar    0  <0>0        0.0210
      8  C4         3.5830   35.4030   56.9920 C.ar    0  <0>0        0.0917
      9 Cl          2.6320   35.6580   58.4210 Cl      0  <0>0       -0.0791
     10  C7         6.7300   36.7100   55.4200 C.2     0  <0>0        0.3878
     11  O1         7.6080   36.2720   54.7040 O.co2   0  <0>0       -0.2406
     12  O4         6.8810   37.9080   56.0180 O.co2   0  <0>0       -0.2406
     13  C9         0.9050   31.6890   55.7800 C.2     0  <0>0        0.2670
     14  O3        -0.1640   32.2060   56.0280 O.2     0  <0>0       -0.2711
     15  N1         0.9510   30.5500   55.0610 N.am    0  <0>0       -0.3010
     16  H6         1.8060   30.1360   54.8630 H       0  <0>0        0.1496
     17  C10       -0.2890   29.9360   54.5790 C.3     0  <0>0        0.0938
     18  C11       -0.2370   28.4260   54.8180 C.3     0  <0>0        0.0429
     19  C12       -0.5800   27.7040   53.5400 C.2     0  <0>0       -0.0468
     20  C17       -1.4050   28.4320   52.5200 C.3     0  <0>0        0.0218
     21  C16       -1.2910   27.7390   51.1590 C.3     0  <0>0        0.0047
     22  C15       -1.5520   26.2400   51.3590 C.3     0  <0>0        0.0050
     23  C14       -0.4000   25.6520   52.1760 C.3     0  <0>0        0.0254
     24  C13       -0.1480   26.4930   53.3930 C.2     0  <0>0       -0.0346
@<TRIPOS>BOND
     1    21    22    1
     2    21    20    1
     3    22    23    1
     4    23    24    1
     5    20    19    1
     6    24    19    2
     7    19    18    1
     8    17    18    1
     9    17    15    1
    10     5     4   ar
    11     5     6   ar
    12    11    10   ar
    13    16    15    1
    14     4     3   ar
    15    15    13   am
    16    10     6    1
    17    10    12   ar
    18     6     7   ar
    19    13    14    2
    20    13     1    1
    21     3     2    1
    22     3     8   ar
    23     2     1    1
    24     7     8   ar
    25     8     9    1

@<TRIPOS>MOLECULE
ZINC47385747_replica-1.pdb
 21 21 0 0 0
SMALL
GASTEIGER

@<TRIPOS>ATOM
      1  C7         7.2690   37.1450   58.1100 C.3     0  <0>0        0.0942
      2  N1         6.2580   36.0970   57.9520 N.am    0  <0>0       -0.2987
      3  C6         5.1680   36.0860   58.7450 C.2     0  <0>0        0.2462
      4  O1         5.0240   36.9470   59.5930 O.2     0  <0>0       -0.2701
      5  H9         6.3730   35.4100   57.2760 H       0  <0>0        0.1500
      6  C5         4.1600   35.0390   58.5870 C.2     0  <0>0        0.0577
      7  C4         2.8580   35.3120   58.8300 C.2     0  <0>0        0.0043
      8  C3         1.8480   34.2640   58.6720 C.2     0  <0>0       -0.0044
      9  C2         0.8400   34.4350   57.8160 C.2     0  <0>0       -0.0258
     10  C1         0.7390   35.7060   57.0120 C.3     0  <0>0        0.0307
     11  C8         8.3980   36.6300   58.9640 C.ar    0  <0>0       -0.0044
     12  C13        8.9610   35.3970   58.6950 C.ar    0  <0>0       -0.0004
     13  C12       10.0000   34.9260   59.4750 C.ar    0  <0>0        0.0294
     14  C11       10.4700   35.6850   60.5330 C.ar    0  <0>0        0.1401
     15  C10        9.9020   36.9180   60.8050 C.ar    0  <0>0        0.0294
     16  F1        11.4820   35.2240   61.3000 F       0  <0>0       -0.2042
     17  C9         8.8660   37.3890   60.0210 C.ar    0  <0>0       -0.0004
     18  C14        7.8100   37.5430   56.7350 C.3     0  <0>0        0.0204
     19  C15        6.6620   38.0580   55.8640 C.3     0  <0>0        0.0020
     20  C16        8.8590   38.6460   56.9000 C.3     0  <0>0        0.0020
     21  C17        8.4500   36.3260   56.0670 C.3     0  <0>0        0.0020
@<TRIPOS>BOND
     1    19    18    1
     2    21    18    1
     3    18    20    1
     4    18     1    1
     5    10     9    1
     6     5     2    1
     7     9     8    2
     8     2     1    1
     9     2     3   am
    10     1    11    1
    11     6     3    1
    12     6     7    2
    13     8     7    1
    14    12    11   ar
    15    12    13   ar
    16     3     4    2
    17    11    17   ar
    18    13    14   ar
    19    17    15   ar
    20    14    15   ar
    21    14    16    1

@<TRIPOS>MOLECULE
ZINC04995845_replica-1.pdb
 27 31 0 0 0
SMALL
GASTEIGER

@<TRIPOS>ATOM
      1  C1        -0.2090   28.7290   60.9620 C.ar    0  <0>0       -0.0001
      2  C2        -1.4710   28.1640   60.9680 C.ar    0  <0>0        0.0031
      3  C3        -2.1190   27.9120   59.7780 C.ar    0  <0>0        0.0373
      4  C4        -1.5070   28.2240   58.5650 C.ar    0  <0>0        0.1447
      5  C5        -0.2490   28.7970   58.5650 C.ar    0  <0>0        0.0174
      6  C6         0.4000   29.0430   59.7630 C.ar    0  <0>0       -0.0009
      7  C7         0.4440   29.1800   57.2780 C.3     0  <0>0        0.0674
      8  C8         0.3110   30.6540   57.0830 C.ar    0  <0>0        0.0376
      9  C9        -0.0380   31.3570   55.9890 C.ar    0  <0>0        0.0883
     10  N1        -0.0770   32.7240   56.1280 N.ar    0  <0>0       -0.3108
     11  H2        -0.3240   33.2800   55.3730 H       0  <0>0        0.1699
     12  C10        0.2260   33.2950   57.3110 C.ar    0  <0>0        0.2891
     13  O1         0.2420   34.4760   57.6080 O.2     0  <0>0       -0.2596
     14  S1         0.5860   31.9180   58.3040 S.2     0  <0>0       -0.0297
     15  S2        -0.4170   30.5180   54.4630 S.3     0  <0>0       -0.0925
     16  C11        0.2870   28.8680   54.7680 C.3     0  <0>0        0.0866
     17  C12       -0.1590   28.3770   56.1360 C.3     0  <0>0        0.1225
     18  C13       -1.6620   28.4190   56.2670 C.2     0  <0>0        0.3228
     19  O2        -2.3650   28.8560   55.3870 O.2     0  <0>0       -0.2496
     20  O3        -2.1830   27.9450   57.4190 O.3     0  <0>0       -0.4244
     21  C14       -0.1930   27.9120   53.7070 C.ar    0  <0>0       -0.0114
     22  C19       -0.9700   28.3760   52.6600 C.ar    0  <0>0       -0.0011
     23  C18       -1.4110   27.5000   51.6860 C.ar    0  <0>0        0.0293
     24  C17       -1.0750   26.1590   51.7580 C.ar    0  <0>0        0.1401
     25  C16       -0.2960   25.6960   52.8060 C.ar    0  <0>0        0.0293
     26  F1        -1.5060   25.3020   50.8070 F       0  <0>0       -0.2042
     27  C15        0.1470   26.5750   53.7760 C.ar    0  <0>0       -0.0011
@<TRIPOS>BOND
     1    26    24    1
     2    23    24   ar
     3    23    22   ar
     4    24    25   ar
     5    22    21   ar
     6    25    27   ar
     7    21    27   ar
     8    21    16    1
     9    15    16    1
    10    15     9    1
    11    16    17    1
    12    11    10    1
    13    19    18    2
    14     9    10   ar
    15     9     8   ar
    16    10    12   ar
    17    17    18    1
    18    17     7    1
    19    18    20    1
    20     8     7    1
    21     8    14   ar
    22     7     5    1
    23    12    13    2
    24    12    14   ar
    25    20     4    1
    26     5     4   ar
    27     5     6   ar
    28     4     3   ar
    29     6     1   ar
    30     3     2   ar
    31     1     2   ar

@<TRIPOS>MOLECULE
ZINC17000012_replica-1.pdb
 23 23 0 0 0
SMALL
GASTEIGER

@<TRIPOS>ATOM
      1  C9         8.7350   36.1650   57.6510 C.3     0  <0>0        0.0870
      2  C2         8.1040   34.9290   58.2380 C.2     0  <0>0        0.0573
      3  C1         7.4450   33.9180   57.3350 C.3     0  <0>0        0.0490
      4  N1         8.1280   34.7360   59.5030 N.2     0  <0>0       -0.1900
      5  N2         8.6350   35.7280   60.3530 N.pl3   0  <0>0       -0.2366
      6  H4         8.1660   36.5720   60.4470 H       0  <0>0        0.1744
      7  C3         9.8180   35.5040   61.0600 C.ar    0  <0>0        0.0650
      8  C8        10.3940   34.2380   61.0710 C.ar    0  <0>0        0.0160
      9  C7        11.5620   34.0190   61.7730 C.ar    0  <0>0        0.0013
     10  C6        12.1610   35.0580   62.4640 C.ar    0  <0>0        0.0001
     11  C5        11.5900   36.3170   62.4570 C.ar    0  <0>0        0.0013
     12  C4        10.4240   36.5440   61.7520 C.ar    0  <0>0        0.0160
     13  C10        7.6840   37.2720   57.5460 C.3     0  <0>0        0.2688
     14  C11        8.3230   38.6160   57.9010 C.3     0  <0>0        0.4278
     15  F1         9.1140   39.0540   56.8320 F       0  <0>0       -0.1673
     16  F2         7.3190   39.5580   58.1520 F       0  <0>0       -0.1673
     17  F3         9.1200   38.4690   59.0400 F       0  <0>0       -0.1673
     18  C12        7.1410   37.3270   56.1160 C.3     0  <0>0        0.4278
     19  F4         5.9820   36.5480   56.0280 F       0  <0>0       -0.1673
     20  F5         6.8410   38.6510   55.7820 F       0  <0>0       -0.1673
     21  F6         8.1050   36.8300   55.2320 F       0  <0>0       -0.1673
     22  O1         6.6130   37.0010   58.4520 O.3     0  <0>0       -0.3725
     23  H12        5.9350   36.4120   58.0930 H       0  <0>0        0.2108
@<TRIPOS>BOND
     1    21    18    1
     2    20    18    1
     3    19    18    1
     4    18    13    1
     5    15    14    1
     6     3     2    1
     7    13     1    1
     8    13    14    1
     9    13    22    1
    10     1     2    1
    11    14    16    1
    12    14    17    1
    13    23    22    1
    14     2     4    2
    15     4     5    1
    16     5     6    1
    17     5     7    1
    18     7     8   ar
    19     7    12   ar
    20     8     9   ar
    21    12    11   ar
    22     9    10   ar
    23    11    10   ar

@<TRIPOS>MOLECULE
ZINC37206625_replica-1.pdb
 19 21 0 0 0
SMALL
GASTEIGER

@<TRIPOS>ATOM
      1  C1         8.2940   35.1330   57.4850 C.2     0  <0>0       -0.0178
      2  C2         9.3170   34.6420   58.2550 C.2     0  <0>0        0.0285
      3  C3         9.6890   35.2850   59.4580 C.2     0  <0>0        0.1399
      4  C4         8.9510   36.4390   59.8020 C.2     0  <0>0        0.0695
      5  C5         7.9280   36.9240   59.0260 C.2     0  <0>0        0.0483
      6  C6         7.5910   36.2690   57.8540 C.3     0  <0>0        0.0646
      7 Cl          7.0630   38.3500   59.5100 Cl      0  <0>0       -0.0860
      8  S1         9.7090   36.9310   61.3330 S.3     0  <0>0       -0.0369
      9  C7        10.9170   35.6160   61.4170 C.2     0  <0>0        0.2152
     10  N1        10.6650   34.9330   60.3230 N.2     0  <0>0       -0.3800
     11  N2        11.8740   35.3800   62.3850 N.pl3   0  <0>0       -0.2828
     12  H4        12.2720   36.1230   62.8640 H       0  <0>0        0.1551
     13  C8        12.2680   34.0690   62.6740 C.ar    0  <0>0        0.0506
     14  C13       11.3140   33.0680   62.8030 C.ar    0  <0>0        0.0170
     15  C12       11.7080   31.7730   63.0830 C.ar    0  <0>0        0.0309
     16  C11       13.0500   31.4760   63.2470 C.ar    0  <0>0        0.1402
     17  C10       14.0010   32.4750   63.1240 C.ar    0  <0>0        0.0309
     18  F1        13.4300   30.2110   63.5260 F       0  <0>0       -0.2042
     19  C9        13.6140   33.7680   62.8380 C.ar    0  <0>0        0.0170
@<TRIPOS>BOND
     1     1     6    1
     2     1     2    2
     3     6     5    1
     4     2     3    1
     5     5     7    1
     6     5     4    2
     7     3     4    1
     8     3    10    2
     9     4     8    1
    10    10     9    2
    11     8     9    1
    12     9    11    1
    13    11    13    1
    14    11    12    1
    15    13    14   ar
    16    13    19   ar
    17    14    15   ar
    18    19    17   ar
    19    15    16   ar
    20    17    16   ar
    21    16    18    1

@<TRIPOS>MOLECULE
ZINC12603194_replica-1.pdb
 26 27 0 0 0
SMALL
GASTEIGER

@<TRIPOS>ATOM
      1  C10        7.8530   37.6700   59.2070 C.3     0  <0>0        0.2411
      2  C11        7.8480   38.6150   58.0050 C.3     0  <0>0        0.0574
      3  O3         8.6180   36.5040   58.8940 O.3     0  <0>0       -0.4700
      4  C7         9.5330   36.1010   59.8100 C.ar    0  <0>0        0.1391
      5  C6         9.8410   36.9230   60.8890 C.ar    0  <0>0        0.0371
      6  C5        10.7730   36.5210   61.8190 C.ar    0  <0>0        0.0096
      7  C4        11.4020   35.2810   61.6840 C.ar    0  <0>0        0.0758
      8  C9        11.0860   34.4550   60.6010 C.ar    0  <0>0        0.0096
      9  C8        10.1560   34.8660   59.6730 C.ar    0  <0>0        0.0371
     10  C3        12.3970   34.8430   62.6810 C.2     0  <0>0        0.3412
     11  O2        12.2990   35.2060   63.8370 O.2     0  <0>0       -0.2449
     12  O1        13.4140   34.0400   62.3110 O.3     0  <0>0       -0.4454
     13  C2        13.7690   32.9640   63.2190 C.3     0  <0>0        0.2089
     14  C1        12.7740   31.8130   63.0600 C.3     0  <0>0        0.0513
     15  C12        6.4390   37.2700   59.5380 C.2     0  <0>0        0.2626
     16  O4         5.7880   37.9320   60.3190 O.2     0  <0>0       -0.2712
     17  N1         5.8960   36.1750   58.9670 N.am    0  <0>0       -0.3031
     18  H17        6.4160   35.6460   58.3430 H       0  <0>0        0.1495
     19  C13        4.5210   35.7870   59.2890 C.3     0  <0>0        0.0716
     20  C18        4.4880   34.3070   59.6780 C.3     0  <0>0        0.0180
     21  C17        3.0510   33.9010   60.0150 C.3     0  <0>0        0.0016
     22  C19        5.3810   34.0800   60.8990 C.3     0  <0>0        0.0017
     23  C16        2.1580   34.1270   58.7930 C.3     0  <0>0        0.0001
     24  C20        3.0180   32.4210   60.4040 C.3     0  <0>0        0.0001
     25  C15        2.1920   35.6070   58.4050 C.3     0  <0>0        0.0017
     26  C14        3.6270   36.0140   58.0680 C.3     0  <0>0        0.0196
@<TRIPOS>BOND
     1     2     1    1
     2    26    25    1
     3    26    19    1
     4    18    17    1
     5    25    23    1
     6    23    21    1
     7     3     1    1
     8     3     4    1
     9    17    19    1
    10    17    15   am
    11     1    15    1
    12    19    20    1
    13    15    16    2
    14     9     4   ar
    15     9     8   ar
    16    20    21    1
    17    20    22    1
    18     4     5   ar
    19    21    24    1
    20     8     7   ar
    21     5     6   ar
    22     7     6   ar
    23     7    10    1
    24    12    10    1
    25    12    13    1
    26    10    11    2
    27    14    13    1

@<TRIPOS>MOLECULE
ZINC21660324_replica-1.pdb
 28 32 0 0 0
SMALL
GASTEIGER

@<TRIPOS>ATOM
      1  C1         0.5560   31.5700   61.2280 C.3     0  <0>0        0.0554
      2  C2         1.0600   30.3830   60.4480 C.2     0  <0>0        0.0986
      3  C3         0.7490   30.0530   59.1320 C.2     0  <0>0        0.0564
      4  C4         1.4500   28.8990   58.8920 C.3     0  <0>0        0.2948
      5  O1         2.1070   28.6230   60.0120 O.2     0  <0>0       -0.3560
      6  N1         1.8810   29.4540   60.8710 N.2     0  <0>0       -0.0853
      7  N2         1.3810   28.2650   57.6680 N.pl3   0  <0>0       -0.2985
      8  C5         0.3840   28.6270   56.7940 C.2     0  <0>0        0.0274
      9  C6        -0.3480   29.7500   56.9540 C.2     0  <0>0        0.0437
     10  C7        -0.1240   30.7060   58.1080 C.2     0  <0>0        0.0060
     11  C14       -1.3640   30.0870   56.0410 C.2     0  <0>0        0.1742
     12  O2        -2.0230   31.0910   56.2300 O.2     0  <0>0       -0.2913
     13  C15       -1.6510   29.2350   54.8360 C.3     0  <0>0        0.0739
     14  C16       -0.3670   28.5060   54.4270 C.3     0  <0>0        0.0356
     15  C17        0.1310   27.7000   55.6270 C.3     0  <0>0        0.0458
     16  H6         2.1160   27.4870   57.4110 H       0  <0>0        0.1501
     17  C8         0.5440   31.9570   57.6020 C.ar    0  <0>0        0.0000
     18  C13        0.0380   33.1980   57.9430 C.ar    0  <0>0       -0.0000
     19  C12        0.6510   34.3460   57.4780 C.ar    0  <0>0       -0.0000
     20  C11        1.7720   34.2540   56.6730 C.ar    0  <0>0       -0.0000
     21  C10        2.2790   33.0140   56.3330 C.ar    0  <0>0       -0.0000
     22  C9         1.6670   31.8660   56.8010 C.ar    0  <0>0       -0.0000
     23  C18       -0.6540   27.5780   53.2750 C.ar    0  <0>0       -0.0217
     24  C23       -1.3890   28.0260   52.1930 C.ar    0  <0>0       -0.0043
     25  C22       -1.6530   27.1750   51.1360 C.ar    0  <0>0       -0.0003
     26  C21       -1.1820   25.8760   51.1620 C.ar    0  <0>0       -0.0000
     27  C20       -0.4470   25.4270   52.2430 C.ar    0  <0>0       -0.0003
     28  C19       -0.1800   26.2800   53.2980 C.ar    0  <0>0       -0.0043
@<TRIPOS>BOND
     1    25    26   ar
     2    25    24   ar
     3    26    27   ar
     4    24    23   ar
     5    27    28   ar
     6    23    28   ar
     7    23    14    1
     8    14    13    1
     9    14    15    1
    10    13    11    1
    11    15     8    1
    12    11    12    2
    13    11     9    1
    14    21    20   ar
    15    21    22   ar
    16    20    19   ar
    17     8     9    2
    18     8     7    1
    19    22    17   ar
    20     9    10    1
    21    16     7    1
    22    19    18   ar
    23    17    18   ar
    24    17    10    1
    25     7     4    1
    26    10     3    2
    27     4     3    1
    28     4     5    1
    29     3     2    1
    30     5     6    1
    31     2     6    2
    32     2     1    1

@<TRIPOS>MOLECULE
ZINC44219212_replica-1.pdb
 21 22 0 0 0
SMALL
GASTEIGER

@<TRIPOS>ATOM
      1  C9        10.1850   36.6410   61.1220 C.3     0  <0>0        0.1622
      2  C8        10.7330   35.2150   61.2150 C.3     0  <0>0        0.1756
      3  O1        11.9520   35.2210   61.9590 O.3     0  <0>0       -0.3533
      4  C5        12.1430   34.0610   62.7730 C.3     0  <0>0        0.1153
      5  C4        13.5640   33.5290   62.5770 C.3     0  <0>0        0.0296
      6  C3        13.7670   32.2880   63.4470 C.3     0  <0>0        0.0025
      7  C2        12.7590   31.2100   63.0420 C.3     0  <0>0        0.0002
      8  C1        12.9630   29.9680   63.9120 C.3     0  <0>0        0.0000
      9  C7        11.3380   31.7420   63.2370 C.3     0  <0>0        0.0025
     10  C6        11.1340   32.9840   62.3660 C.3     0  <0>0        0.0296
     11  C10        9.4130   36.8000   59.8370 C.ar    0  <0>0        0.0067
     12  C15        8.7840   37.9970   59.5520 C.ar    0  <0>0       -0.0022
     13  C14        8.0790   38.1440   58.3720 C.ar    0  <0>0       -0.0045
     14  C13        7.9960   37.0900   57.4810 C.ar    0  <0>0       -0.0225
     15  C12        8.6200   35.8900   57.7690 C.ar    0  <0>0       -0.0045
     16  C11        9.3280   35.7450   58.9470 C.ar    0  <0>0       -0.0022
     17  C16        7.2230   37.2490   56.1970 C.3     0  <0>0        0.0224
     18  C17        7.2940   38.7060   55.7350 C.3     0  <0>0        0.0047
     19  C18        7.8280   36.3430   55.1220 C.3     0  <0>0        0.0047
     20  O2         9.3200   36.8930   62.2310 O.3     0  <0>0       -0.3775
     21  H28        8.3790   36.8180   62.0230 H       0  <0>0        0.2109
@<TRIPOS>BOND
     1    19    17    1
     2    18    17    1
     3    17    14    1
     4    14    15   ar
     5    14    13   ar
     6    15    16   ar
     7    13    12   ar
     8    16    11   ar
     9    12    11   ar
    10    11     1    1
    11     1     2    1
    12     1    20    1
    13     2     3    1
    14     3     4    1
    15    21    20    1
    16    10     4    1
    17    10     9    1
    18     5     4    1
    19     5     6    1
    20     7     9    1
    21     7     6    1
    22     7     8    1

@<TRIPOS>MOLECULE
ZINC59281834_replica-1.pdb
 22 25 0 0 0
SMALL
GASTEIGER

@<TRIPOS>ATOM
      1  C1         7.3900   38.6740   56.1550 C.ar    0  <0>0        0.0000
      2  C2         7.0730   37.4360   55.6010 C.ar    0  <0>0        0.0000
      3  C3         7.4350   36.2710   56.2040 C.ar    0  <0>0        0.0000
      4  C4         8.1450   36.3070   57.4150 C.ar    0  <0>0        0.0000
      5  C5         8.4790   37.6060   57.9990 C.ar    0  <0>0        0.0000
      6  C6         8.0750   38.7780   57.3240 C.ar    0  <0>0        0.0000
      7  C7         9.1840   37.6770   59.2040 C.ar    0  <0>0        0.0000
      8  C8         9.5740   36.5060   59.8570 C.ar    0  <0>0        0.0000
      9  C9        10.2860   36.5560   61.0740 C.ar    0  <0>0        0.0000
     10  C10       10.6510   35.3980   61.6850 C.ar    0  <0>0        0.0000
     11  C11       10.3390   34.1550   61.1400 C.ar    0  <0>0        0.0000
     12  C12        9.6540   34.0410   59.9680 C.ar    0  <0>0        0.0000
     13  C13        9.2480   35.1980   59.2870 C.ar    0  <0>0        0.0000
     14  C14        8.5340   35.1150   58.0680 C.ar    0  <0>0        0.0013
     15  C15        8.2170   33.8580   57.5110 C.2     0  <0>0        0.0199
     16  C16        7.0200   33.2470   57.8230 C.2     0  <0>0        0.1340
     17  S1         5.6970   33.8040   58.8890 S.3     0  <0>0       -0.0013
     18  C17        6.4980   31.9930   57.3910 C.1     0  <0>0        0.2198
     19  C18        4.6190   32.3960   58.6650 C.1     0  <0>0        0.0848
     20  N1         5.3330   31.6280   57.8260 N.2     0  <0>0       -0.2824
     21  S2         3.0790   32.1000   59.3490 S.2     0  <0>0        0.0320
     22  O1         7.2010   31.2040   56.5460 O.2     0  <0>0       -0.2081
@<TRIPOS>BOND
     1     2     1   ar
     2     2     3   ar
     3     1     6   ar
     4     3     4   ar
     5    22    18    2
     6     6     5   ar
     7    18    16    1
     8    18    20    2
     9     4     5   ar
    10     4    14   ar
    11    15    16    2
    12    15    14    1
    13    16    17    1
    14    20    19    2
    15     5     7   ar
    16    14    13   ar
    17    19    17    1
    18    19    21    2
    19     7     8   ar
    20    13     8   ar
    21    13    12   ar
    22     8     9   ar
    23    12    11   ar
    24     9    10   ar
    25    11    10   ar

@<TRIPOS>MOLECULE
ZINC35548206_replica-1.pdb
 22 23 0 0 0
SMALL
GASTEIGER

@<TRIPOS>ATOM
      1  C3         8.5670   36.9780   59.1240 C.3     0  <0>0        0.0206
      2  N1         8.4640   38.3980   59.4870 N.4     0  <0>0        0.3922
      3  H7         9.3840   38.7630   59.6790 H       0  <0>0       -0.0833
      4  H26        7.8860   38.4940   60.3080 H       0  <0>0       -0.0833
      5  C2         7.8630   39.1460   58.3740 C.3     0  <0>0       -0.0807
      6  C1         8.5480   38.7500   57.0640 C.3     0  <0>0       -0.0255
      7  C4         9.5660   36.3010   60.0260 C.ar    0  <0>0       -0.0350
      8  C9        10.0350   35.0380   59.7140 C.ar    0  <0>0       -0.0062
      9  C8        10.9540   34.4180   60.5390 C.ar    0  <0>0       -0.0047
     10  C7        11.3980   35.0570   61.6820 C.ar    0  <0>0       -0.0228
     11  C6        10.9260   36.3170   61.9980 C.ar    0  <0>0       -0.0047
     12  C5        10.0100   36.9390   61.1700 C.ar    0  <0>0       -0.0062
     13  C10       12.3970   34.3790   62.5840 C.3     0  <0>0        0.0189
     14  C11       11.8840   32.9870   62.9580 C.3     0  <0>0        0.0044
     15  C12       13.7360   34.2500   61.8570 C.3     0  <0>0        0.0044
     16  C13       12.5840   35.2110   63.8540 C.3     0  <0>0        0.0044
     17  C14        7.2210   36.3200   59.2810 C.ar    0  <0>0        0.1066
     18  O1         6.5240   35.7150   58.3060 O.2     0  <0>0       -0.4638
     19  C17        5.3730   35.2390   58.8080 C.ar    0  <0>0        0.1227
     20  C16        5.3210   35.5460   60.1160 C.ar    0  <0>0        0.0357
     21  C18        4.3160   34.4930   58.0350 C.3     0  <0>0        0.0725
     22  C15        6.5120   36.2420   60.4220 C.ar    0  <0>0        0.0339
@<TRIPOS>BOND
     1     6     5    1
     2    21    19    1
     3    18    19   ar
     4    18    17   ar
     5     5     2    1
     6    19    20   ar
     7     1    17    1
     8     1     2    1
     9     1     7    1
    10    17    22   ar
    11     2     3    1
    12     2     4    1
    13     8     7   ar
    14     8     9   ar
    15     7    12   ar
    16    20    22   ar
    17     9    10   ar
    18    12    11   ar
    19    10    11   ar
    20    10    13    1
    21    15    13    1
    22    13    14    1
    23    13    16    1

@<TRIPOS>MOLECULE
ZINC46693578_replica-1.pdb
 27 27 0 0 0
SMALL
GASTEIGER

@<TRIPOS>ATOM
      1  C10        8.2640   37.1420   58.7130 C.3     0  <0>0        0.0956
      2  C11        8.2280   38.6200   59.1050 C.3     0  <0>0        0.0262
      3  N2         6.9390   36.5510   58.9160 N.am    0  <0>0       -0.2866
      4  C9         6.3550   35.8490   57.9250 C.2     0  <0>0        0.3041
      5  N1         5.1360   35.3060   58.1110 N.am    0  <0>0       -0.2642
      6  O1         6.9280   35.7060   56.8620 O.2     0  <0>0       -0.2526
      7  H20        6.4810   36.6650   59.7640 H       0  <0>0        0.1512
      8  C6         4.5010   34.5420   57.0340 C.3     0  <0>0        0.0949
      9  C3         3.5140   35.4400   56.2850 C.3     0  <0>0        0.0199
     10  C2         3.8970   35.4960   54.8060 C.3     0  <0>0        0.0017
     11  C1         4.7170   34.2560   54.4440 C.3     0  <0>0        0.0001
     12  C4         2.1000   34.8730   56.4250 C.3     0  <0>0        0.0017
     13  C5         1.2990   35.7340   57.4030 C.3     0  <0>0        0.0001
     14  C7         4.4450   35.4780   59.3910 C.3     0  <0>0        0.0950
     15  C8         4.1020   34.1050   59.9750 C.3     0  <0>0        0.0233
     16  C12        9.2730   36.4190   59.5680 C.ar    0  <0>0       -0.0044
     17  C17        9.6640   36.9590   60.7790 C.ar    0  <0>0       -0.0014
     18  C16       10.5840   36.2970   61.5670 C.ar    0  <0>0        0.0144
     19  C15       11.1250   35.0920   61.1380 C.ar    0  <0>0        0.0503
     20  C14       10.7340   34.5550   59.9180 C.ar    0  <0>0        0.0144
     21  C13        9.8090   35.2200   59.1360 C.ar    0  <0>0       -0.0014
     22  N3        12.0610   34.4200   61.9310 N.am    0  <0>0       -0.2839
     23  C18       11.7640   33.2100   62.4460 C.2     0  <0>0        0.2261
     24  O2        10.7240   32.6620   62.1470 O.2     0  <0>0       -0.2748
     25  H28       12.9240   34.8250   62.1100 H       0  <0>0        0.1549
     26  C19       12.7240   32.5380   63.3930 C.3     0  <0>0        0.0854
     27  C20       12.7600   31.0360   63.1020 C.3     0  <0>0        0.0101
@<TRIPOS>BOND
     1    11    10    1
     2    10     9    1
     3     9    12    1
     4     9     8    1
     5    12    13    1
     6     6     4    2
     7     8     5    1
     8     4     5   am
     9     4     3   am
    10     5    14    1
    11     1     3    1
    12     1     2    1
    13     1    16    1
    14     3     7    1
    15    21    16   ar
    16    21    20   ar
    17    14    15    1
    18    16    17   ar
    19    20    19   ar
    20    17    18   ar
    21    19    18   ar
    22    19    22    1
    23    22    25    1
    24    22    23   am
    25    24    23    2
    26    23    26    1
    27    27    26    1

@<TRIPOS>MOLECULE
ZINC62023248_replica-1.pdb
 22 24 0 0 0
SMALL
GASTEIGER

@<TRIPOS>ATOM
      1  N1         0.4450   28.9670   55.3490 N.am    0  <0>0       -0.2802
      2  C8        -0.2250   29.0270   56.5160 C.2     0  <0>0        0.2459
      3  O1        -1.0760   28.1980   56.7720 O.2     0  <0>0       -0.2701
      4  H7         1.1790   29.5790   55.1790 H       0  <0>0        0.1552
      5  C9         0.0750   30.1000   57.4860 C.2     0  <0>0        0.0387
      6  C14        0.3280   31.3940   57.0360 C.3     0  <0>0        0.0932
      7  C13        0.6060   32.3980   57.9600 C.2     0  <0>0        0.1510
      8  C12        0.6360   32.0950   59.3310 C.2     0  <0>0        0.1734
      9  N2         0.8840   33.7260   57.8500 N.2     0  <0>0       -0.3720
     10  C11        0.3870   30.7980   59.7630 C.2     0  <0>0        0.0397
     11  O2         0.9310   33.2510   59.9650 O.2     0  <0>0       -0.4281
     12  C10        0.1100   29.8140   58.8560 C.2     0  <0>0        0.0039
     13  C15        1.0740   34.2120   59.0400 C.2     0  <0>0        0.2572
     14  C16        1.4060   35.6520   59.3380 C.3     0  <0>0        0.1103
     15  C5         0.0840   28.0240   54.3820 C.ar    0  <0>0        0.0568
     16  C4         0.6410   26.7510   54.4100 C.ar    0  <0>0        0.0149
     17  C3         0.2830   25.8210   53.4540 C.ar    0  <0>0       -0.0030
     18  C2        -0.6310   26.1550   52.4700 C.ar    0  <0>0       -0.0213
     19  C1        -1.0200   25.1360   51.4300 C.3     0  <0>0        0.0310
     20  C7        -1.1830   27.4210   52.4360 C.ar    0  <0>0        0.0037
     21  C6        -0.8320   28.3560   53.3920 C.ar    0  <0>0        0.0477
     22 Br         -1.5940   30.0860   53.3490 Br      0  <0>0       -0.0477
@<TRIPOS>BOND
     1    19    18    1
     2    20    18   ar
     3    20    21   ar
     4    18    17   ar
     5    22    21    1
     6    21    15   ar
     7    17    16   ar
     8    15    16   ar
     9    15     1    1
    10     4     1    1
    11     1     2   am
    12     2     3    2
    13     2     5    1
    14     6     5    1
    15     6     7    1
    16     5    12    2
    17     9     7    2
    18     9    13    2
    19     7     8    1
    20    12    10    1
    21    13    14    1
    22    13    11    1
    23     8    10    2
    24     8    11    1

@<TRIPOS>MOLECULE
ZINC49544221_replica-1.pdb
 22 23 0 0 0
SMALL
GASTEIGER

@<TRIPOS>ATOM
      1  N1        -0.9000   31.7110   55.5380 N.3     0  <0>0       -0.2924
      2  H13       -1.8710   31.9290   55.3740 H       0  <0>0        0.1236
      3  C4        -0.6790   31.3000   56.9310 C.3     0  <0>0        0.0829
      4  C3         0.1070   29.9890   56.9570 C.3     0  <0>0        0.0208
      5  C2        -0.5790   29.0010   57.9030 C.3     0  <0>0        0.0017
      6  C1        -2.0080   28.7400   57.4190 C.3     0  <0>0        0.0001
      7  C5         0.1000   32.3690   57.6530 C.ar    0  <0>0        0.0215
      8  S1         0.7530   32.3540   59.3150 S.2     0  <0>0       -0.0895
      9  C8         1.4970   33.9770   59.3060 C.ar    0  <0>0        0.0352
     10  C7         1.1960   34.4180   58.0610 C.ar    0  <0>0        0.0072
     11  C6         0.4790   33.5930   57.2130 C.ar    0  <0>0        0.0040
     12  C9        -0.4270   30.6810   54.6040 C.3     0  <0>0        0.1030
     13  C10       -1.5740   30.2670   53.6780 C.3     0  <0>0        0.1484
     14  C11       -1.2980   28.8950   53.1190 C.ar    0  <0>0        0.0056
     15  C16       -0.5290   27.9980   53.8360 C.ar    0  <0>0       -0.0010
     16  C15       -0.2810   26.7370   53.3270 C.ar    0  <0>0        0.0111
     17  C14       -0.7920   26.3780   52.0930 C.ar    0  <0>0        0.0577
     18  C13       -1.5570   27.2780   51.3720 C.ar    0  <0>0        0.0111
     19 Cl         -0.4750   24.7970   51.4480 Cl      0  <0>0       -0.0822
     20  C12       -1.8090   28.5360   51.8850 C.ar    0  <0>0       -0.0010
     21  O1        -2.7970   30.2430   54.4180 O.3     0  <0>0       -0.3786
     22  H20       -3.2180   29.3740   54.4530 H       0  <0>0        0.2108
@<TRIPOS>BOND
     1    18    20   ar
     2    18    17   ar
     3    19    17    1
     4    20    14   ar
     5    17    16   ar
     6    14    13    1
     7    14    15   ar
     8    16    15   ar
     9    13    21    1
    10    13    12    1
    11    21    22    1
    12    12     1    1
    13     2     1    1
    14     1     3    1
    15     3     4    1
    16     3     7    1
    17     4     5    1
    18    11     7   ar
    19    11    10   ar
    20     6     5    1
    21     7     8   ar
    22    10     9   ar
    23     9     8   ar

@<TRIPOS>MOLECULE
ZINC58122632_replica-1.pdb
 26 28 0 0 0
SMALL
GASTEIGER

@<TRIPOS>ATOM
      1  C11        0.2070   28.2350   57.1000 C.3     0  <0>0        0.1232
      2  C8         0.0060   27.7100   55.7020 C.ar    0  <0>0        0.0002
      3  C7        -0.6280   28.4920   54.7540 C.ar    0  <0>0       -0.0027
      4  C6        -0.8120   28.0110   53.4710 C.ar    0  <0>0       -0.0045
      5  C5        -0.3610   26.7480   53.1350 C.ar    0  <0>0       -0.0225
      6  C10        0.2680   25.9640   54.0840 C.ar    0  <0>0       -0.0045
      7  C9         0.4550   26.4460   55.3660 C.ar    0  <0>0       -0.0027
      8  C3        -0.5610   26.2240   51.7370 C.3     0  <0>0        0.0223
      9  C4        -0.4540   24.6970   51.7450 C.3     0  <0>0        0.0047
     10  C2        -1.9450   26.6350   51.2310 C.3     0  <0>0        0.0044
     11  C1        -1.8520   27.9970   50.5390 C.3     0  <0>0        0.0003
     12  C12       -0.8160   27.6190   58.0180 C.ar    0  <0>0        0.0292
     13  S1        -0.5740   26.8180   59.5950 S.2     0  <0>0       -0.0888
     14  C15       -2.2810   26.4190   59.9390 C.ar    0  <0>0        0.0352
     15  C14       -2.9100   26.9090   58.8430 C.ar    0  <0>0        0.0072
     16  C13       -2.1600   27.5240   57.8580 C.ar    0  <0>0        0.0046
     17  N1         0.0520   29.6910   57.1020 N.am    0  <0>0       -0.2935
     18  C16        0.8620   30.4540   57.8620 C.2     0  <0>0        0.2620
     19  O1         1.7230   29.9330   58.5470 O.2     0  <0>0       -0.2686
     20  H19       -0.6340   30.1060   56.5570 H       0  <0>0        0.1504
     21  C17        0.7070   31.9130   57.8650 C.ar    0  <0>0        0.1108
     22  N2         0.4800   32.7040   58.9690 N.ar    0  <0>0       -0.3484
     23  C20        0.3980   33.9960   58.5670 C.ar    0  <0>0        0.0725
     24  H3         0.3950   32.3900   59.8830 H       0  <0>0        0.1661
     25  C19        0.5600   34.0460   57.2220 C.ar    0  <0>0        0.0201
     26  C18        0.7560   32.7400   56.7640 C.ar    0  <0>0        0.0231
@<TRIPOS>BOND
     1    11    10    1
     2    10     8    1
     3     8     9    1
     4     8     5    1
     5     5     4   ar
     6     5     6   ar
     7     4     3   ar
     8     6     7   ar
     9     3     2   ar
    10     7     2   ar
    11     2     1    1
    12    20    17    1
    13    26    25   ar
    14    26    21   ar
    15     1    17    1
    16     1    12    1
    17    17    18   am
    18    25    23   ar
    19    16    12   ar
    20    16    15   ar
    21    18    21    1
    22    18    19    2
    23    21    22   ar
    24    12    13   ar
    25    23    22   ar
    26    15    14   ar
    27    22    24    1
    28    13    14   ar

@<TRIPOS>MOLECULE
ZINC35587219_replica-1.pdb
 24 25 0 0 0
SMALL
GASTEIGER

@<TRIPOS>ATOM
      1  C9         0.4220   31.8180   55.9150 C.2     0  <0>0        0.1313
      2  S1         0.6510   30.8080   57.2780 S.2     0  <0>0       -0.0189
      3  N2         0.1570   31.2750   54.7100 N.am    0  <0>0       -0.3158
      4  H17        0.0260   31.8470   53.9380 H       0  <0>0        0.1485
      5  N1         0.5080   33.1570   56.0470 N.am    0  <0>0       -0.3177
      6  H16        0.0390   33.7360   55.4260 H       0  <0>0        0.1484
      7  C6         1.3090   33.7370   57.1280 C.3     0  <0>0        0.0705
      8  C5         0.4000   34.5370   58.0630 C.3     0  <0>0        0.0195
      9  C4         1.2360   35.1420   59.1920 C.3     0  <0>0        0.0017
     10  C3         2.3010   36.0680   58.5990 C.3     0  <0>0        0.0001
     11  C2         3.2090   35.2670   57.6650 C.3     0  <0>0        0.0016
     12  C1         3.8900   34.1460   58.4530 C.3     0  <0>0        0.0001
     13  C7         2.3720   34.6610   56.5350 C.3     0  <0>0        0.0180
     14  C8         3.2820   33.8600   55.6000 C.3     0  <0>0        0.0017
     15  C10        0.0630   29.8200   54.5670 C.3     0  <0>0        0.0931
     16  C11       -1.1780   29.4670   53.7440 C.3     0  <0>0        0.0475
     17  C12       -0.9750   28.1320   53.0770 C.ar    0  <0>0       -0.0203
     18  C17       -0.2080   27.1600   53.6960 C.ar    0  <0>0       -0.0011
     19  C16       -0.0260   25.9330   53.0880 C.ar    0  <0>0        0.0366
     20  C15       -0.6040   25.6790   51.8530 C.ar    0  <0>0        0.1387
     21  C14       -1.3680   26.6560   51.2320 C.ar    0  <0>0        0.0366
     22  C13       -1.5520   27.8800   51.8460 C.ar    0  <0>0       -0.0011
     23  O1        -0.4220   24.4730   51.2520 O.3     0  <0>0       -0.4714
     24  C18       -0.3440   23.3290   52.1040 C.3     0  <0>0        0.2525
@<TRIPOS>BOND
     1    21    22   ar
     2    21    20   ar
     3    23    20    1
     4    23    24    1
     5    22    17   ar
     6    20    19   ar
     7    17    18   ar
     8    17    16    1
     9    19    18   ar
    10    16    15    1
    11     4     3    1
    12    15     3    1
    13     3     1    1
    14     6     5    1
    15    14    13    1
    16     1     5    1
    17     1     2    2
    18     5     7    1
    19    13     7    1
    20    13    11    1
    21     7     8    1
    22    11    12    1
    23    11    10    1
    24     8     9    1
    25    10     9    1

@<TRIPOS>MOLECULE
ZINC35737509_replica-1.pdb
 19 20 0 0 0
SMALL
GASTEIGER

@<TRIPOS>ATOM
      1  C4        -0.8680   29.3960   54.4870 C.3     0  <0>0        0.0919
      2  C3        -1.6190   30.4630   53.6910 C.3     0  <0>0        0.0241
      3  C2        -3.0600   30.5570   54.1950 C.3     0  <0>0        0.0020
      4  C1        -3.0590   30.7190   55.7160 C.3     0  <0>0        0.0001
      5  C5        -0.7460   28.1420   53.6590 C.ar    0  <0>0       -0.0045
      6  C10       -1.3350   28.0800   52.4100 C.ar    0  <0>0       -0.0018
      7  C9        -1.2180   26.9320   51.6470 C.ar    0  <0>0        0.0111
      8  C8        -0.5220   25.8430   52.1400 C.ar    0  <0>0        0.0577
      9  C7         0.0630   25.9050   53.3930 C.ar    0  <0>0        0.0111
     10 Cl         -0.3800   24.3990   51.1860 Cl      0  <0>0       -0.0822
     11  C6        -0.0490   27.0540   54.1520 C.ar    0  <0>0       -0.0018
     12  N1         0.4700   29.8890   54.8260 N.pl3   0  <0>0       -0.3281
     13  H13        1.2290   29.6480   54.2730 H       0  <0>0        0.1471
     14  C11        0.6520   30.7120   55.9540 C.ar    0  <0>0        0.0850
     15  C13        0.5200   30.3310   57.2500 C.ar    0  <0>0        0.1110
     16  N3         0.7820   31.4180   58.0240 N.ar    0  <0>0       -0.2461
     17  N2         1.0730   32.4920   57.1740 N.ar    0  <0>0       -0.1663
     18  C14        0.7590   31.4580   59.4880 C.3     0  <0>0        0.1538
     19  C12        0.9960   32.0720   55.9370 C.ar    0  <0>0        0.1359
@<TRIPOS>BOND
     1    10     8    1
     2     7     8   ar
     3     7     6   ar
     4     8     9   ar
     5     6     5   ar
     6     9    11   ar
     7     5    11   ar
     8     5     1    1
     9     2     3    1
    10     2     1    1
    11     3     4    1
    12    13    12    1
    13     1    12    1
    14    12    14    1
    15    19    14   ar
    16    19    17   ar
    17    14    15   ar
    18    17    16   ar
    19    15    16   ar
    20    16    18    1

@<TRIPOS>MOLECULE
ZINC37986412_replica-1.pdb
 22 24 0 0 0
SMALL
GASTEIGER

@<TRIPOS>ATOM
      1  N1         0.7330   30.3230   55.0690 N.4     0  <0>0        0.3864
      2  H8         1.7210   30.1650   54.9480 H       0  <0>0       -0.0843
      3  H22        0.4270   31.0430   54.4310 H       0  <0>0       -0.0843
      4  C3        -0.0010   29.0810   54.7960 C.3     0  <0>0       -0.0771
      5  C2        -0.8810   29.2700   53.5590 C.3     0  <0>0        0.0011
      6  C1        -2.2870   29.6900   53.9920 C.3     0  <0>0        0.0025
      7  C13       -0.9580   27.9740   52.7940 C.ar    0  <0>0       -0.0246
      8  C18       -0.2850   26.8580   53.2560 C.ar    0  <0>0       -0.0043
      9  C17       -0.3580   25.6680   52.5570 C.ar    0  <0>0       -0.0003
     10  C16       -1.0960   25.5960   51.3900 C.ar    0  <0>0       -0.0000
     11  C15       -1.7650   26.7130   50.9260 C.ar    0  <0>0       -0.0003
     12  C14       -1.6940   27.9020   51.6280 C.ar    0  <0>0       -0.0043
     13  C4         0.4720   30.7530   56.4490 C.3     0  <0>0       -0.0369
     14  C5         0.4480   32.2820   56.5120 C.3     0  <0>0        0.1493
     15  O1         1.7240   32.8270   56.1380 O.3     0  <0>0       -0.4813
     16  C12        1.9570   33.9570   56.8640 C.ar    0  <0>0        0.1344
     17  C7         1.1480   34.0090   57.9920 C.ar    0  <0>0        0.0153
     18  C11        2.8550   34.9970   56.6330 C.ar    0  <0>0        0.0366
     19  C6         0.2780   32.7670   57.9720 C.3     0  <0>0        0.0706
     20  C8         1.2360   35.0620   58.8750 C.ar    0  <0>0       -0.0012
     21  C9         2.1330   36.0890   58.6400 C.ar    0  <0>0       -0.0001
     22  C10        2.9390   36.0520   57.5160 C.ar    0  <0>0        0.0031
@<TRIPOS>BOND
     1    11    10   ar
     2    11    12   ar
     3    10     9   ar
     4    12     7   ar
     5     9     8   ar
     6     7     8   ar
     7     7     5    1
     8     5     6    1
     9     5     4    1
    10     3     1    1
    11     4     1    1
    12     2     1    1
    13     1    13    1
    14    15    14    1
    15    15    16    1
    16    13    14    1
    17    14    19    1
    18    18    16   ar
    19    18    22   ar
    20    16    17   ar
    21    22    21   ar
    22    19    17    1
    23    17    20   ar
    24    21    20   ar

@<TRIPOS>MOLECULE
ZINC20095397_replica-1.pdb
 22 24 0 0 0
SMALL
GASTEIGER

@<TRIPOS>ATOM
      1  N1        -2.3780   29.5700   54.6050 N.4     0  <0>0        0.3924
      2  H13       -2.6010   28.5200   54.8470 H       0  <0>0       -0.0833
      3  H21       -3.2550   30.0300   54.1270 H       0  <0>0       -0.0833
      4  C9        -2.0550   30.2970   55.8410 C.3     0  <0>0       -0.0148
      5  C8        -2.0390   29.3360   57.0000 C.ar    0  <0>0        0.1011
      6  C7        -2.6930   28.1610   57.0580 C.ar    0  <0>0        0.0335
      7  C6        -2.4000   27.5900   58.3170 C.ar    0  <0>0        0.0356
      8  C5        -1.5840   28.4490   58.9540 C.ar    0  <0>0        0.1218
      9  O1        -1.3640   29.5010   58.1490 O.2     0  <0>0       -0.4642
     10  C4        -1.0090   28.2590   60.3340 C.3     0  <0>0        0.0574
     11  C2        -1.5610   29.1400   61.4570 C.3     0  <0>0        0.0075
     12  C1        -1.6730   28.5210   62.8510 C.3     0  <0>0        0.0005
     13  C3        -0.1560   29.3930   60.9060 C.3     0  <0>0        0.0079
     14  C10       -1.2530   29.6080   53.6620 C.3     0  <0>0       -0.0380
     15  C11        0.0060   30.0880   54.3880 C.3     0  <0>0       -0.0189
     16  C12       -1.0160   28.2270   53.1070 C.ar    0  <0>0       -0.0419
     17  C17       -1.5420   27.8780   51.8770 C.ar    0  <0>0       -0.0040
     18  C16       -1.3200   26.6130   51.3650 C.ar    0  <0>0        0.0292
     19  C15       -0.5710   25.6970   52.0820 C.ar    0  <0>0        0.1401
     20  C14       -0.0450   26.0490   53.3150 C.ar    0  <0>0        0.0292
     21  F1        -0.3540   24.4600   51.5820 F       0  <0>0       -0.2042
     22  C13       -0.2670   27.3130   53.8250 C.ar    0  <0>0       -0.0040
@<TRIPOS>BOND
     1    18    17   ar
     2    18    19   ar
     3    21    19    1
     4    17    16   ar
     5    19    20   ar
     6    16    14    1
     7    16    22   ar
     8    20    22   ar
     9    14    15    1
    10    14     1    1
    11     3     1    1
    12     1     2    1
    13     1     4    1
    14     4     5    1
    15     5     6   ar
    16     5     9   ar
    17     6     7   ar
    18     9     8   ar
    19     7     8   ar
    20     8    10    1
    21    10    13    1
    22    10    11    1
    23    13    11    1
    24    11    12    1

@<TRIPOS>MOLECULE
ZINC00679742_replica-1.pdb
 24 26 0 0 0
SMALL
GASTEIGER

@<TRIPOS>ATOM
      1  C1         0.1950   26.0100   53.8700 C.ar    0  <0>0        0.0106
      2  C2         0.1780   27.0270   54.7970 C.ar    0  <0>0        0.0075
      3  C3        -0.4610   28.2340   54.4990 C.ar    0  <0>0        0.0812
      4  C4        -1.0870   28.4050   53.2600 C.ar    0  <0>0        0.1451
      5  C5        -1.0650   27.3860   52.3290 C.ar    0  <0>0        0.0401
      6  C6        -0.4260   26.1820   52.6300 C.ar    0  <0>0        0.0707
      7  C7        -0.4060   25.1220   51.6670 C.1     0  <0>0        0.1005
      8  N1        -0.3910   24.2820   50.9030 N.1     0  <0>0       -0.1908
      9  F1        -1.7100   29.5700   52.9720 F       0  <0>0       -0.2040
     10  C8        -0.4790   29.3250   55.4940 C.2     0  <0>0        0.2538
     11  O1        -1.5390   29.7340   55.9280 O.2     0  <0>0       -0.2697
     12  N2         0.6780   29.8680   55.9220 N.am    0  <0>0       -0.2506
     13  H4         1.5240   29.5410   55.5760 H       0  <0>0        0.1580
     14  C9         0.6600   30.8910   56.8540 C.2     0  <0>0        0.2175
     15  S1         0.6790   32.6570   56.5810 S.3     0  <0>0       -0.0376
     16  C11        0.6290   33.1470   58.2880 C.2     0  <0>0        0.0596
     17  C10        0.6010   31.9030   58.9570 C.2     0  <0>0        0.1503
     18  C12        0.6150   34.3470   58.9530 C.2     0  <0>0       -0.0113
     19  N3         0.6190   30.8100   58.1630 N.2     0  <0>0       -0.3790
     20  C15        0.5580   31.9550   60.3710 C.2     0  <0>0        0.0945
     21  C14        0.5450   33.1600   61.0270 C.2     0  <0>0        0.0528
     22 Cl          0.5210   30.4790   61.2840 Cl      0  <0>0       -0.0790
     23  C13        0.5720   34.3630   60.3350 C.3     0  <0>0        0.0655
     24 Cl          0.4910   33.1810   62.7620 Cl      0  <0>0       -0.0856
@<TRIPOS>BOND
     1     8     7    3
     2     7     6    1
     3     5     6   ar
     4     5     4   ar
     5     6     1   ar
     6     9     4    1
     7     4     3   ar
     8     1     2   ar
     9     3     2   ar
    10     3    10    1
    11    10    12   am
    12    10    11    2
    13    13    12    1
    14    12    14    1
    15    15    14    1
    16    15    16    1
    17    14    19    2
    18    19    17    2
    19    16    18    2
    20    16    17    1
    21    18    23    1
    22    17    20    1
    23    23    21    1
    24    20    21    2
    25    20    22    1
    26    21    24    1

@<TRIPOS>MOLECULE
ZINC36357593_replica-1.pdb
 25 28 0 0 0
SMALL
GASTEIGER

@<TRIPOS>ATOM
      1  C7         7.9320   37.1970   58.3640 C.3     0  <0>0        0.0593
      2  C8         8.4540   37.2670   56.9200 C.3     0  <0>0        0.1060
      3  C9         7.3210   37.4820   55.9590 C.2     0  <0>0        0.2603
      4  N1         6.1230   37.0350   56.1240 N.2     0  <0>0       -0.3107
      5  C10        5.7920   36.3360   57.2800 C.1     0  <0>0        0.1286
      6  C11        6.6610   36.4210   58.3440 C.3     0  <0>0        0.1683
      7  S1         5.8790   35.4180   59.5720 S.3     0  <0>0       -0.0493
      8  C12        4.4420   34.9770   58.6020 C.2     0  <0>0        0.2234
      9  N2         4.6870   35.6050   57.4620 N.2     0  <0>0       -0.3212
     10  C6         8.9410   36.5030   59.2410 C.ar    0  <0>0       -0.0177
     11  C1         9.5030   35.3080   58.8340 C.ar    0  <0>0       -0.0018
     12  C2        10.4300   34.6690   59.6370 C.ar    0  <0>0        0.0316
     13  C3        10.7960   35.2260   60.8500 C.ar    0  <0>0        0.1674
     14  C4        10.2310   36.4260   61.2580 C.ar    0  <0>0        0.1671
     15  F2        11.7000   34.6020   61.6360 F       0  <0>0       -0.2018
     16  C5         9.3050   37.0620   60.4520 C.ar    0  <0>0        0.0278
     17  F1        10.5870   36.9710   62.4420 F       0  <0>0       -0.2018
     18  O1         7.5750   38.1960   54.8410 O.2     0  <0>0       -0.4860
     19  H17        6.8220   38.7140   54.5250 H       0  <0>0        0.2945
     20  N3         3.3590   34.1850   58.9490 N.pl3   0  <0>0       -0.2780
     21  C17        1.9950   34.5680   58.5610 C.3     0  <0>0        0.0936
     22  C16        1.1100   34.5880   59.8060 C.3     0  <0>0        0.0216
     23  C15        1.2050   33.2380   60.5180 C.3     0  <0>0        0.0035
     24  C14        2.6500   32.9890   60.9550 C.3     0  <0>0        0.0216
     25  C13        3.5540   32.9480   59.7190 C.3     0  <0>0        0.0936
@<TRIPOS>BOND
     1    19    18    1
     2    18     3    1
     3     3     4    2
     4     3     2    1
     5     4     5    2
     6     2     1    1
     7     5     9    2
     8     5     6    1
     9     9     8    2
    10     6     1    1
    11     6     7    1
    12     1    10    1
    13    21    20    1
    14    21    22    1
    15     8    20    1
    16     8     7    1
    17    11    10   ar
    18    11    12   ar
    19    20    25    1
    20    10    16   ar
    21    12    13   ar
    22    25    24    1
    23    22    23    1
    24    16    14   ar
    25    23    24    1
    26    13    14   ar
    27    13    15    1
    28    14    17    1

@<TRIPOS>MOLECULE
ZINC35149807_replica-1.pdb
 22 22 0 0 0
SMALL
GASTEIGER

@<TRIPOS>ATOM
      1  C7         6.0620   36.0800   56.9000 C.2     0  <0>0        0.2232
      2  O1         6.6380   35.5090   55.9980 O.2     0  <0>0       -0.2751
      3  N1         6.7330   36.9410   57.6900 N.am    0  <0>0       -0.3022
      4  H14        6.2720   37.3970   58.4120 H       0  <0>0        0.1497
      5  C6         4.5960   35.8260   57.1360 C.3     0  <0>0        0.0957
      6  C3         4.4250   34.5530   57.9660 C.3     0  <0>0        0.1024
      7  C2         5.6810   34.3190   58.8080 C.3     0  <0>0        0.0112
      8  C1         5.3740   34.6160   60.2770 C.3     0  <0>0        0.0006
      9  C4         3.2130   34.7040   58.8890 C.3     0  <0>0        0.0112
     10  C5         2.4260   35.9550   58.4960 C.3     0  <0>0        0.0006
     11  C16        4.2120   33.3780   57.0460 C.2     0  <0>0        0.3643
     12  O2         3.3620   33.4320   56.1730 O.co2   0  <0>0       -0.2457
     13  O3         4.8910   32.3730   57.1750 O.co2   0  <0>0       -0.2457
     14  C8         8.1590   37.1880   57.4600 C.3     0  <0>0        0.0941
     15  C9         8.4000   38.6920   57.3190 C.3     0  <0>0        0.0262
     16  C10        8.9550   36.6580   58.6250 C.ar    0  <0>0       -0.0045
     17  C15        9.4710   35.3760   58.5840 C.ar    0  <0>0       -0.0018
     18  C14       10.2060   34.8920   59.6490 C.ar    0  <0>0        0.0111
     19  C13       10.4170   35.6860   60.7610 C.ar    0  <0>0        0.0577
     20  C12        9.8950   36.9670   60.8050 C.ar    0  <0>0        0.0111
     21 Cl         11.3350   35.0780   62.1030 Cl      0  <0>0       -0.0822
     22  C11        9.1650   37.4530   59.7360 C.ar    0  <0>0       -0.0018
@<TRIPOS>BOND
     1     2     1    2
     2    12    11   ar
     3     1     5    1
     4     1     3   am
     5    11    13   ar
     6    11     6    1
     7     5     6    1
     8    15    14    1
     9    14     3    1
    10    14    16    1
    11     3     4    1
    12     6     7    1
    13     6     9    1
    14    10     9    1
    15    17    16   ar
    16    17    18   ar
    17    16    22   ar
    18     7     8    1
    19    18    19   ar
    20    22    20   ar
    21    19    20   ar
    22    19    21    1

@<TRIPOS>MOLECULE
ZINC00726508_replica-1.pdb
 24 26 0 0 0
SMALL
GASTEIGER

@<TRIPOS>ATOM
      1  C4        10.3540   35.2690   60.5930 C.3     0  <0>0        0.1516
      2  C5        10.1110   36.4480   61.1890 C.2     0  <0>0        0.0969
      3  N1         9.2280   37.3340   60.6380 N.2     0  <0>0       -0.4181
      4  C6         8.8750   37.2420   59.3190 C.2     0  <0>0        0.0928
      5  C7         9.0700   36.0910   58.6380 C.3     0  <0>0        0.1104
      6  C8         9.6680   34.8850   59.3160 C.3     0  <0>0        0.0525
      7  C15        8.7240   35.9860   57.2790 C.2     0  <0>0        0.1569
      8  O3         8.9050   34.9350   56.6970 O.2     0  <0>0       -0.2956
      9  C16        8.1370   37.1530   56.5320 C.3     0  <0>0        0.0654
     10  C17        8.6360   38.4540   57.1670 C.3     0  <0>0        0.0148
     11  C18        8.2590   38.4450   58.6520 C.3     0  <0>0        0.0553
     12  C19       10.8180   36.7980   62.4740 C.3     0  <0>0        0.0620
     13  C9         8.5710   33.9020   59.6350 C.ar    0  <0>0       -0.0207
     14  C14        7.4100   34.3370   60.2480 C.ar    0  <0>0       -0.0038
     15  C13        6.4040   33.4360   60.5410 C.ar    0  <0>0        0.0055
     16  C12        6.5570   32.1000   60.2210 C.ar    0  <0>0        0.0300
     17  C11        7.7190   31.6650   59.6080 C.ar    0  <0>0        0.0055
     18  I1         5.0320   30.7340   60.6650 I       0  <0>0       -0.0425
     19  C10        8.7220   32.5670   59.3100 C.ar    0  <0>0       -0.0038
     20  C3        11.2800   34.3730   61.1780 C.2     0  <0>0        0.3232
     21  O2        12.4680   34.4830   60.9370 O.2     0  <0>0       -0.2497
     22  O1        10.8460   33.3970   62.0020 O.3     0  <0>0       -0.4482
     23  C2        11.7040   33.0370   63.0880 C.3     0  <0>0        0.2086
     24  C1        11.8830   31.5170   63.1140 C.3     0  <0>0        0.0513
@<TRIPOS>BOND
     1     9    10    1
     2     9     7    1
     3     8     7    2
     4    10    11    1
     5     7     5    1
     6     5     6    1
     7     5     4    1
     8    11     4    1
     9    19    17   ar
    10    19    13   ar
    11     6    13    1
    12     6     1    1
    13     4     3    2
    14    17    16   ar
    15    13    14   ar
    16    16    15   ar
    17    16    18    1
    18    14    15   ar
    19     1    20    1
    20     1     2    1
    21     3     2    2
    22    21    20    2
    23    20    22    1
    24     2    12    1
    25    22    23    1
    26    23    24    1

@<TRIPOS>MOLECULE
ZINC67111703_replica-1.pdb
 22 23 0 0 0
SMALL
GASTEIGER

@<TRIPOS>ATOM
      1  C4         0.8320   31.5870   57.1090 C.3     0  <0>0        0.1350
      2  C5        -0.5210   32.0890   56.5990 C.3     0  <0>0        0.0331
      3  C6        -1.1600   31.0200   55.7110 C.3     0  <0>0        0.0241
      4  C7        -1.3950   29.7490   56.5360 C.3     0  <0>0        0.0936
      5  N1        -0.1240   29.3430   57.1490 N.am    0  <0>0       -0.2770
      6  C8         0.6220   30.3240   57.9490 C.3     0  <0>0        0.1228
      7  C9         0.3510   28.0920   56.9800 C.2     0  <0>0        0.2260
      8  O2         1.4020   27.7690   57.4920 O.2     0  <0>0       -0.2749
      9  C10       -0.4240   27.0970   56.1560 C.3     0  <0>0        0.0896
     10  C11        0.4450   26.6090   54.9960 C.3     0  <0>0        0.0314
     11  C12        0.6970   25.1070   55.1430 C.3     0  <0>0        0.0052
     12  C13       -0.2640   26.8730   53.6930 C.ar    0  <0>0       -0.0219
     13  C18       -0.8190   28.1150   53.4470 C.ar    0  <0>0       -0.0020
     14  C17       -1.4660   28.3590   52.2500 C.ar    0  <0>0        0.0293
     15  C16       -1.5670   27.3560   51.3010 C.ar    0  <0>0        0.1401
     16  C15       -1.0150   26.1110   51.5500 C.ar    0  <0>0        0.0293
     17  F1        -2.2030   27.5920   50.1330 F       0  <0>0       -0.2042
     18  C14       -0.3650   25.8710   52.7460 C.ar    0  <0>0       -0.0020
     19  O1         1.4440   32.5980   57.9130 O.3     0  <0>0       -0.3545
     20  C3         0.5350   33.5950   58.3870 C.3     0  <0>0        0.1421
     21  C2         1.0080   34.1100   59.7480 C.3     0  <0>0        0.0321
     22  C1         0.3420   33.2960   60.8600 C.3     0  <0>0        0.0027
@<TRIPOS>BOND
     1    17    15    1
     2    15    16   ar
     3    15    14   ar
     4    16    18   ar
     5    14    13   ar
     6    18    12   ar
     7    13    12   ar
     8    12    10    1
     9    10    11    1
    10    10     9    1
    11     3     4    1
    12     3     2    1
    13     9     7    1
    14     4     5    1
    15     2     1    1
    16     7     5   am
    17     7     8    2
    18     1    19    1
    19     1     6    1
    20     5     6    1
    21    19    20    1
    22    20    21    1
    23    21    22    1

@<TRIPOS>MOLECULE
ZINC36854646_replica-1.pdb
 23 24 0 0 0
SMALL
GASTEIGER

@<TRIPOS>ATOM
      1  C8         8.4300   35.9500   57.7340 C.3     0  <0>0        0.1685
      2  O1         7.9220   34.6400   57.4670 O.3     0  <0>0       -0.3515
      3  C6         6.5540   34.4610   57.8370 C.3     0  <0>0        0.1156
      4  C5         5.7580   33.9780   56.6230 C.3     0  <0>0        0.0272
      5  C4         6.3320   32.6470   56.1320 C.3     0  <0>0        0.0024
      6  C3         6.2370   31.6080   57.2500 C.3     0  <0>0        0.0002
      7  C2         7.0330   32.0910   58.4650 C.3     0  <0>0        0.0024
      8  C1         8.4990   32.2820   58.0700 C.3     0  <0>0        0.0001
      9  C7         6.4590   33.4220   58.9550 C.3     0  <0>0        0.0296
     10  C16        5.8530   35.0180   55.5040 C.3     0  <0>0        0.0023
     11  C17        5.1620   34.4810   54.2480 C.3     0  <0>0        0.0001
     12  C18        5.1670   36.3110   55.9490 C.3     0  <0>0        0.0001
     13  C9         9.1340   35.9540   59.0670 C.ar    0  <0>0        0.0090
     14  C14        8.7590   36.8670   60.0530 C.ar    0  <0>0        0.0180
     15  C13        9.4130   36.8610   61.2870 C.ar    0  <0>0        0.0015
     16  C12       10.4320   35.9600   61.5190 C.ar    0  <0>0        0.0000
     17  C11       10.8020   35.0620   60.5350 C.ar    0  <0>0       -0.0002
     18  C10       10.1550   35.0600   59.3120 C.ar    0  <0>0       -0.0018
     19  C15        7.6710   37.8310   59.7950 C.2     0  <0>0        0.0778
     20  S1         6.0450   37.3870   60.0920 S.2     0  <0>0       -0.0352
     21  N1         7.9590   39.0620   59.3260 N.am    0  <0>0       -0.3517
     22  H19        8.8800   39.3130   59.1580 H       0  <0>0        0.1428
     23  H20        7.2440   39.6960   59.1570 H       0  <0>0        0.1428
@<TRIPOS>BOND
     1    11    10    1
     2    10    12    1
     3    10     4    1
     4     5     4    1
     5     5     6    1
     6     4     3    1
     7     6     7    1
     8     2     1    1
     9     2     3    1
    10     1    13    1
    11     3     9    1
    12     8     7    1
    13     7     9    1
    14    13    18   ar
    15    13    14   ar
    16    23    21    1
    17    22    21    1
    18    18    17   ar
    19    21    19    1
    20    19    14    1
    21    19    20    2
    22    14    15   ar
    23    17    16   ar
    24    15    16   ar

@<TRIPOS>MOLECULE
ZINC44215606_replica-1.pdb
 20 21 0 0 0
SMALL
GASTEIGER

@<TRIPOS>ATOM
      1  C9         7.2080   36.8550   56.2510 C.3     0  <0>0        0.1756
      2  O1         5.8240   36.7130   56.5760 O.3     0  <0>0       -0.3533
      3  C8         5.4290   35.3680   56.8550 C.3     0  <0>0        0.1153
      4  C3         4.0130   35.1330   56.3250 C.3     0  <0>0        0.0272
      5  C4         3.0450   36.1020   57.0080 C.3     0  <0>0        0.0024
      6  C5         3.0700   35.8660   58.5210 C.3     0  <0>0        0.0002
      7  C6         4.4860   36.1010   59.0500 C.3     0  <0>0        0.0025
      8  C7         5.4530   35.1330   58.3660 C.3     0  <0>0        0.0296
      9  C2         3.9870   35.3680   54.8140 C.3     0  <0>0        0.0024
     10  C1         4.9170   34.3670   54.1260 C.3     0  <0>0        0.0001
     11  C10        7.8670   37.8210   57.2370 C.3     0  <0>0        0.1622
     12  C11        8.6420   37.0380   58.2650 C.ar    0  <0>0        0.0067
     13  C16        9.0510   35.7470   57.9880 C.ar    0  <0>0       -0.0022
     14  C15        9.7660   35.0310   58.9300 C.ar    0  <0>0       -0.0045
     15  C14       10.0660   35.6030   60.1520 C.ar    0  <0>0       -0.0219
     16  C13        9.6530   36.8920   60.4320 C.ar    0  <0>0       -0.0045
     17  C17       10.8410   34.8210   61.1800 C.3     0  <0>0        0.0310
     18  C12        8.9410   37.6090   59.4880 C.ar    0  <0>0       -0.0022
     19  O2         8.7560   38.6900   56.5320 O.3     0  <0>0       -0.3775
     20  H26        9.6920   38.5140   56.6970 H       0  <0>0        0.2109
@<TRIPOS>BOND
     1    10     9    1
     2     9     4    1
     3     1     2    1
     4     1    11    1
     5     4     3    1
     6     4     5    1
     7    19    20    1
     8    19    11    1
     9     2     3    1
    10     3     8    1
    11     5     6    1
    12    11    12    1
    13    13    12   ar
    14    13    14   ar
    15    12    18   ar
    16     8     7    1
    17     6     7    1
    18    14    15   ar
    19    18    16   ar
    20    15    16   ar
    21    15    17    1

@<TRIPOS>MOLECULE
ZINC49855476_replica-1.pdb
 21 22 0 0 0
SMALL
GASTEIGER

@<TRIPOS>ATOM
      1  C1        -1.5880   29.3500   57.4640 C.3     0  <0>0       -0.0189
      2  C2        -0.2130   28.8600   57.0060 C.3     0  <0>0       -0.0384
      3  C3        -0.3190   28.2950   55.6130 C.ar    0  <0>0       -0.0421
      4  C8        -1.1220   28.9160   54.6750 C.ar    0  <0>0       -0.0066
      5  C7        -1.2170   28.4000   53.3960 C.ar    0  <0>0       -0.0047
      6  C6        -0.5140   27.2580   53.0580 C.ar    0  <0>0       -0.0225
      7  C5         0.2850   26.6340   53.9980 C.ar    0  <0>0       -0.0047
      8  C4         0.3830   27.1530   55.2750 C.ar    0  <0>0       -0.0066
      9  C9        -0.6190   26.6940   51.6640 C.3     0  <0>0        0.0224
     10  C10       -0.8050   25.1770   51.7410 C.3     0  <0>0        0.0047
     11  C11       -1.8180   27.3200   50.9510 C.3     0  <0>0        0.0047
     12  N1         0.7340   29.9830   57.0080 N.4     0  <0>0        0.3892
     13  H17        1.3630   29.8910   57.7920 H       0  <0>0       -0.0838
     14  H28        1.2630   29.9790   56.1490 H       0  <0>0       -0.0838
     15  C12       -0.0070   31.2470   57.1210 C.3     0  <0>0       -0.0510
     16  C13        0.7010   32.1660   58.1190 C.3     0  <0>0        0.0941
     17  O1         0.6060   31.6080   59.4310 O.3     0  <0>0       -0.3584
     18  C17        1.2600   32.3790   60.4410 C.3     0  <0>0        0.1419
     19  C16        0.6190   33.7670   60.5190 C.3     0  <0>0        0.0321
     20  C15        0.7130   34.4410   59.1460 C.3     0  <0>0        0.0050
     21  C14        0.0380   33.5460   58.1030 C.3     0  <0>0        0.0274
@<TRIPOS>BOND
     1    11     9    1
     2     9    10    1
     3     9     6    1
     4     6     5   ar
     5     6     7   ar
     6     5     4   ar
     7     7     8   ar
     8     4     3   ar
     9     8     3   ar
    10     3     2    1
    11    14    12    1
    12     2    12    1
    13     2     1    1
    14    12    15    1
    15    12    13    1
    16    15    16    1
    17    21    16    1
    18    21    20    1
    19    16    17    1
    20    20    19    1
    21    17    18    1
    22    18    19    1

@<TRIPOS>MOLECULE
ZINC57568123_replica-1.pdb
 21 21 0 0 0
SMALL
GASTEIGER

@<TRIPOS>ATOM
      1  C6        11.3230   34.2710   61.0300 C.3     0  <0>0        0.1226
      2  C7        10.5280   33.1740   61.6070 C.1     0  <0>0        0.0771
      3  N2         9.9150   32.3280   62.0510 N.1     0  <0>0       -0.1955
      4  C5        12.0360   35.0290   62.1520 C.3     0  <0>0        0.1045
      5  C4        13.3640   34.3750   62.4360 C.2     0  <0>0        0.2238
      6  N1        13.6300   33.8950   63.6670 N.am    0  <0>0       -0.3059
      7  H9        12.9670   33.9710   64.3700 H       0  <0>0        0.1494
      8  O1        14.1930   34.2800   61.5560 O.2     0  <0>0       -0.2751
      9  C2        14.9200   33.2590   63.9420 C.3     0  <0>0        0.0717
     10  C1        15.7470   34.1610   64.8620 C.3     0  <0>0        0.0213
     11  C3        14.6890   31.9090   64.6240 C.3     0  <0>0        0.0213
     12  C8        10.4140   35.2140   60.2860 C.ar    0  <0>0       -0.0079
     13  C13        9.9110   34.8590   59.0490 C.ar    0  <0>0       -0.0036
     14  C12        9.0720   35.7220   58.3690 C.ar    0  <0>0       -0.0046
     15  C11        8.7440   36.9450   58.9220 C.ar    0  <0>0       -0.0228
     16  C10        9.2500   37.3030   60.1580 C.ar    0  <0>0       -0.0046
     17  C9        10.0850   36.4380   60.8390 C.ar    0  <0>0       -0.0036
     18  C14        7.8330   37.8870   58.1790 C.3     0  <0>0        0.0189
     19  C15        7.1860   38.8580   59.1690 C.3     0  <0>0        0.0044
     20  C16        8.6430   38.6750   57.1480 C.3     0  <0>0        0.0044
     21  C17        6.7420   37.0860   57.4650 C.3     0  <0>0        0.0044
@<TRIPOS>BOND
     1    20    18    1
     2    21    18    1
     3    18    15    1
     4    18    19    1
     5    14    15   ar
     6    14    13   ar
     7    15    16   ar
     8    13    12   ar
     9    16    17   ar
    10    12    17   ar
    11    12     1    1
    12     1     2    1
    13     1     4    1
    14     8     5    2
    15     2     3    3
    16     4     5    1
    17     5     6   am
    18     6     9    1
    19     6     7    1
    20     9    11    1
    21     9    10    1

@<TRIPOS>MOLECULE
ZINC37102316_replica-1.pdb
 22 24 0 0 0
SMALL
GASTEIGER

@<TRIPOS>ATOM
      1  C10       10.7870   35.5340   61.5710 C.ar    0  <0>0        0.0447
      2  C11       10.1170   36.7440   61.4480 C.ar    0  <0>0        0.0156
      3  C12        9.4290   37.0390   60.2880 C.ar    0  <0>0        0.0158
      4  C13        9.4080   36.1240   59.2430 C.ar    0  <0>0        0.0479
      5  C14       10.0770   34.9130   59.3660 C.ar    0  <0>0        0.0158
      6  C15       10.7700   34.6220   60.5250 C.ar    0  <0>0        0.0156
      7  N1        11.4830   35.2350   62.7490 N.pl3   0  <0>0       -0.3340
      8  H18       11.2410   35.6740   63.5790 H       0  <0>0        0.1468
      9  C4        12.5760   34.2600   62.7270 C.3     0  <0>0        0.0690
     10  C3        12.0230   32.8670   63.0350 C.3     0  <0>0        0.0195
     11  C2        13.1660   31.8490   63.0120 C.3     0  <0>0        0.0016
     12  C1        12.6130   30.4560   63.3210 C.3     0  <0>0        0.0001
     13  C7        14.2090   32.2290   64.0650 C.3     0  <0>0        0.0001
     14  C6        14.7610   33.6220   63.7560 C.3     0  <0>0        0.0016
     15  C5        13.6190   34.6400   63.7790 C.3     0  <0>0        0.0195
     16  C8        15.4120   33.6170   62.3710 C.3     0  <0>0        0.0001
     17  C9        15.8050   34.0020   64.8090 C.3     0  <0>0        0.0001
     18  N2         8.7100   36.4210   58.0660 N.pl3   0  <0>0       -0.3075
     19  C19        7.9770   37.6700   57.7940 C.3     0  <0>0        0.0908
     20  C18        7.9390   37.7770   56.2470 C.3     0  <0>0        0.0232
     21  C17        7.7530   36.2910   55.8400 C.3     0  <0>0        0.0232
     22  C16        8.5830   35.5360   56.8980 C.3     0  <0>0        0.0908
@<TRIPOS>BOND
     1    21    20    1
     2    21    22    1
     3    20    19    1
     4    22    18    1
     5    19    18    1
     6    18     4    1
     7     4     5   ar
     8     4     3   ar
     9     5     6   ar
    10     3     2   ar
    11     6     1   ar
    12     2     1   ar
    13     1     7    1
    14    16    14    1
    15     9     7    1
    16     9    10    1
    17     9    15    1
    18     7     8    1
    19    11    10    1
    20    11    12    1
    21    11    13    1
    22    14    15    1
    23    14    13    1
    24    14    17    1

@<TRIPOS>MOLECULE
ZINC13427876_replica-1.pdb
 28 30 0 0 0
SMALL
GASTEIGER

@<TRIPOS>ATOM
      1  C13        0.8400   32.5980   58.6200 C.2     0  <0>0        0.2462
      2  O1         0.3490   32.5830   59.7340 O.2     0  <0>0       -0.2701
      3  N1         1.7730   33.5190   58.3080 N.am    0  <0>0       -0.2982
      4  H11        2.2180   33.4860   57.4460 H       0  <0>0        0.1500
      5  C12        0.4310   31.6490   57.6540 C.2     0  <0>0        0.0582
      6  C11       -0.0430   32.0660   56.4520 C.2     0  <0>0        0.0111
      7  C10       -0.4520   31.1170   55.4870 C.ar    0  <0>0        0.0296
      8  C9        -1.5010   31.1930   54.5760 C.ar    0  <0>0        0.0070
      9  C8        -1.7060   30.1450   53.7250 C.ar    0  <0>0        0.0070
     10  C7        -0.8650   29.0460   53.8050 C.ar    0  <0>0        0.0295
     11  S1         0.2440   29.5140   55.1230 S.2     0  <0>0       -0.0869
     12  C4        -0.8810   27.8050   53.0040 C.ar    0  <0>0        0.0060
     13  C3        -1.5770   27.7610   51.7940 C.ar    0  <0>0        0.0005
     14  C2        -1.5890   26.5980   51.0510 C.ar    0  <0>0        0.0000
     15  C1        -0.9130   25.4780   51.5030 C.ar    0  <0>0        0.0000
     16  C6        -0.2220   25.5160   52.7000 C.ar    0  <0>0        0.0000
     17  C5        -0.1970   26.6730   53.4510 C.ar    0  <0>0        0.0005
     18  C14        2.1170   34.5690   59.2700 C.3     0  <0>0        0.1056
     19  C15        1.9250   35.9400   58.6190 C.3     0  <0>0        0.1381
     20  C16        1.5870   35.7600   57.1600 C.2     0  <0>0        0.3669
     21  O2         0.4390   35.8340   56.7930 O.co2   0  <0>0       -0.2456
     22  O3         2.5620   35.5180   56.2710 O.co2   0  <0>0       -0.2456
     23  C17        3.5550   34.4110   59.6930 C.ar    0  <0>0       -0.0040
     24  C22        3.9240   33.3530   60.5030 C.ar    0  <0>0       -0.0027
     25  C21        5.2430   33.2090   60.8920 C.ar    0  <0>0       -0.0003
     26  C20        6.1920   34.1220   60.4710 C.ar    0  <0>0       -0.0000
     27  C19        5.8220   35.1800   59.6610 C.ar    0  <0>0       -0.0003
     28  C18        4.5050   35.3220   59.2680 C.ar    0  <0>0       -0.0027
@<TRIPOS>BOND
     1    14    15   ar
     2    14    13   ar
     3    15    16   ar
     4    13    12   ar
     5    16    17   ar
     6    12    17   ar
     7    12    10    1
     8     9    10   ar
     9     9     8   ar
    10    10    11   ar
    11     8     7   ar
    12    11     7   ar
    13     7     6    1
    14    22    20   ar
    15     6     5    2
    16    21    20   ar
    17    20    19    1
    18     4     3    1
    19     5     1    1
    20     3     1   am
    21     3    18    1
    22    19    18    1
    23     1     2    2
    24    28    27   ar
    25    28    23   ar
    26    18    23    1
    27    27    26   ar
    28    23    24   ar
    29    26    25   ar
    30    24    25   ar

@<TRIPOS>MOLECULE
ZINC44562125_replica-1.pdb
 22 23 0 0 0
SMALL
GASTEIGER

@<TRIPOS>ATOM
      1  C1        -1.5730   29.6080   57.2910 C.3     0  <0>0       -0.0189
      2  C2        -0.2150   29.0320   56.8860 C.3     0  <0>0       -0.0385
      3  C3        -0.3240   28.4040   55.5200 C.ar    0  <0>0       -0.0421
      4  C8        -1.0710   29.0200   54.5330 C.ar    0  <0>0       -0.0066
      5  C7        -1.1670   28.4460   53.2800 C.ar    0  <0>0       -0.0047
      6  C6        -0.5250   27.2510   53.0150 C.ar    0  <0>0       -0.0225
      7  C5         0.2170   26.6320   54.0040 C.ar    0  <0>0       -0.0047
      8  C4         0.3170   27.2080   55.2570 C.ar    0  <0>0       -0.0066
      9  C9        -0.6330   26.6230   51.6490 C.3     0  <0>0        0.0224
     10  C10       -0.7710   25.1060   51.7950 C.3     0  <0>0        0.0047
     11  C11       -1.8620   27.1800   50.9280 C.3     0  <0>0        0.0047
     12  N1         0.7850   30.1070   56.8520 N.4     0  <0>0        0.3885
     13  H17        1.6220   29.7750   56.3980 H       0  <0>0       -0.0839
     14  H31        0.4150   30.8940   56.3410 H       0  <0>0       -0.0839
     15  C12        1.1050   30.5210   58.2250 C.3     0  <0>0       -0.0648
     16  C13        1.3780   32.0260   58.2530 C.3     0  <0>0        0.0363
     17  N2         1.7270   32.4350   59.6190 N.3     0  <0>0       -0.2749
     18  C17        2.0370   33.8690   59.6810 C.3     0  <0>0        0.0720
     19  C18        2.8410   31.6320   60.1420 C.3     0  <0>0        0.0895
     20  C16        0.8050   34.6770   59.2680 C.3     0  <0>0        0.0174
     21  C15        0.3980   34.2860   57.8460 C.3     0  <0>0        0.0027
     22  C14        0.1260   32.7800   57.7970 C.3     0  <0>0        0.0139
@<TRIPOS>BOND
     1    11     9    1
     2     9    10    1
     3     9     6    1
     4     6     5   ar
     5     6     7   ar
     6     5     4   ar
     7     7     8   ar
     8     4     3   ar
     9     8     3   ar
    10     3     2    1
    11    14    12    1
    12    13    12    1
    13    12     2    1
    14    12    15    1
    15     2     1    1
    16    22    21    1
    17    22    16    1
    18    21    20    1
    19    15    16    1
    20    16    17    1
    21    20    18    1
    22    17    18    1
    23    17    19    1

@<TRIPOS>MOLECULE
ZINC37308472_replica-1.pdb
 21 22 0 0 0
SMALL
GASTEIGER

@<TRIPOS>ATOM
      1  C5         8.7870   36.6910   58.4420 C.ar    0  <0>0        0.0757
      2  C6         9.3300   35.4030   58.3710 C.ar    0  <0>0        0.0077
      3  C7        10.0570   34.9090   59.4230 C.ar    0  <0>0        0.0145
      4  C8        10.2540   35.6850   60.5610 C.ar    0  <0>0        0.0446
      5  C9         9.7150   36.9670   60.6360 C.ar    0  <0>0        0.0145
      6  C10        8.9920   37.4710   59.5850 C.ar    0  <0>0        0.0077
      7  N1        10.9900   35.1800   61.6270 N.pl3   0  <0>0       -0.3326
      8  H13       11.4780   35.7840   62.2090 H       0  <0>0        0.1468
      9  C11       11.0310   33.7360   61.8700 C.3     0  <0>0        0.0873
     10  C12       12.2140   33.4060   62.7830 C.3     0  <0>0        0.0242
     11  C17       13.4790   34.0810   62.2500 C.3     0  <0>0        0.0274
     12  C16       14.6870   33.5540   62.9690 C.2     0  <0>0       -0.0306
     13  C15       14.7000   32.4630   63.6660 C.2     0  <0>0       -0.0307
     14  C14       13.5050   31.5740   63.8570 C.3     0  <0>0        0.0258
     15  C13       12.4400   31.8890   62.8050 C.3     0  <0>0        0.0067
     16  C4         8.0060   37.2260   57.3120 C.2     0  <0>0        0.3412
     17  O2         8.2100   38.3550   56.9140 O.2     0  <0>0       -0.2449
     18  O1         7.0660   36.4630   56.7210 O.3     0  <0>0       -0.4454
     19  C3         5.8110   36.3430   57.3930 C.3     0  <0>0        0.2088
     20  C2         5.6610   34.9230   57.9430 C.3     0  <0>0        0.0475
     21  C1         5.6840   34.9650   59.4720 C.3     0  <0>0        0.0040
@<TRIPOS>BOND
     1    18    16    1
     2    18    19    1
     3    17    16    2
     4    16     1    1
     5    19    20    1
     6    20    21    1
     7     2     1   ar
     8     2     3   ar
     9     1     6   ar
    10     3     4   ar
    11     6     5   ar
    12     4     5   ar
    13     4     7    1
    14     7     9    1
    15     7     8    1
    16     9    10    1
    17    11    10    1
    18    11    12    1
    19    10    15    1
    20    15    14    1
    21    12    13    2
    22    13    14    1

@<TRIPOS>MOLECULE
ZINC10036069_replica-1.pdb
 22 23 0 0 0
SMALL
GASTEIGER

@<TRIPOS>ATOM
      1  C10       -0.4850   29.6310   56.4440 C.3     0  <0>0        0.0955
      2  C7        -0.5310   28.8070   55.1840 C.ar    0  <0>0       -0.0045
      3  C6        -1.3030   29.2200   54.1150 C.ar    0  <0>0       -0.0030
      4  C5        -1.3440   28.4630   52.9590 C.ar    0  <0>0       -0.0045
      5  C4        -0.6130   27.2920   52.8720 C.ar    0  <0>0       -0.0225
      6  C9         0.1590   26.8790   53.9420 C.ar    0  <0>0       -0.0045
      7  C8         0.2050   27.6390   55.0960 C.ar    0  <0>0       -0.0030
      8  C2        -0.6580   26.4680   51.6110 C.3     0  <0>0        0.0224
      9  C1        -0.6940   24.9820   51.9760 C.3     0  <0>0        0.0047
     10  C3        -1.9120   26.8270   50.8120 C.3     0  <0>0        0.0047
     11  C11       -0.8420   28.7510   57.6430 C.3     0  <0>0        0.0223
     12  C12       -2.3200   28.3640   57.5710 C.3     0  <0>0        0.0020
     13  C13       -0.5800   29.5220   58.9390 C.3     0  <0>0        0.0020
     14  N1         0.8630   30.1770   56.6230 N.am    0  <0>0       -0.2868
     15  C14        1.1260   31.4510   56.2720 C.2     0  <0>0        0.3009
     16  O1         0.2450   32.1480   55.8060 O.2     0  <0>0       -0.2528
     17  N2         2.3660   31.9530   56.4360 N.am    0  <0>0       -0.2906
     18  H21        3.0700   31.3970   56.8070 H       0  <0>0        0.1509
     19  H20        1.5660   29.6200   56.9940 H       0  <0>0        0.1512
     20  C15        2.6530   33.3380   56.0540 C.3     0  <0>0        0.0732
     21  C17        3.4900   34.1790   57.0190 C.3     0  <0>0        0.0213
     22  C16        4.0990   33.6890   55.7040 C.3     0  <0>0        0.0213
@<TRIPOS>BOND
     1    10     8    1
     2     8     9    1
     3     8     5    1
     4     5     4   ar
     5     5     6   ar
     6     4     3   ar
     7     6     7   ar
     8     3     2   ar
     9     7     2   ar
    10     2     1    1
    11    22    20    1
    12    22    21    1
    13    16    15    2
    14    20    17    1
    15    20    21    1
    16    15    17   am
    17    15    14   am
    18    17    18    1
    19     1    14    1
    20     1    11    1
    21    14    19    1
    22    12    11    1
    23    11    13    1

@<TRIPOS>MOLECULE
ZINC35587220_replica-1.pdb
 24 25 0 0 0
SMALL
GASTEIGER

@<TRIPOS>ATOM
      1  C9        -0.4610   29.4770   55.3740 C.2     0  <0>0        0.1313
      2  S1        -1.8900   30.0950   56.0860 S.2     0  <0>0       -0.0189
      3  N2         0.5910   30.2920   55.1590 N.am    0  <0>0       -0.3158
      4  H17        1.4000   29.9430   54.7550 H       0  <0>0        0.1485
      5  N1        -0.3880   28.1770   55.0270 N.am    0  <0>0       -0.3177
      6  H16       -0.3720   27.4920   55.7150 H       0  <0>0        0.1484
      7  C6        -0.3350   27.7980   53.6140 C.3     0  <0>0        0.0705
      8  C5        -1.4940   28.4570   52.8640 C.3     0  <0>0        0.0195
      9  C4        -1.4380   28.0600   51.3880 C.3     0  <0>0        0.0017
     10  C3        -1.5500   26.5390   51.2630 C.3     0  <0>0        0.0001
     11  C2        -0.3900   25.8800   52.0130 C.3     0  <0>0        0.0016
     12  C1        -0.5020   24.3590   51.8880 C.3     0  <0>0        0.0001
     13  C7        -0.4460   26.2770   53.4900 C.3     0  <0>0        0.0180
     14  C8         0.7130   25.6180   54.2390 C.3     0  <0>0        0.0017
     15  C10        0.5110   31.7060   55.5350 C.3     0  <0>0        0.0931
     16  C11        1.7430   32.0860   56.3590 C.3     0  <0>0        0.0475
     17  C12        1.3070   32.7570   57.6350 C.ar    0  <0>0       -0.0203
     18  C17        1.2240   34.1360   57.6960 C.ar    0  <0>0       -0.0011
     19  C16        0.8190   34.7540   58.8630 C.ar    0  <0>0        0.0366
     20  C15        0.5060   33.9900   59.9780 C.ar    0  <0>0        0.1387
     21  C14        0.5950   32.6080   59.9160 C.ar    0  <0>0        0.0366
     22  C13        0.9960   31.9940   58.7450 C.ar    0  <0>0       -0.0011
     23  O1         0.1120   34.5970   61.1290 O.3     0  <0>0       -0.4714
     24  C18       -0.4030   33.7550   62.1620 C.3     0  <0>0        0.2525
@<TRIPOS>BOND
     1    10     9    1
     2    10    11    1
     3     9     8    1
     4    12    11    1
     5    11    13    1
     6     8     7    1
     7    13     7    1
     8    13    14    1
     9     7     5    1
    10     4     3    1
    11     5     1    1
    12     5     6    1
    13     3     1    1
    14     3    15    1
    15     1     2    2
    16    15    16    1
    17    16    17    1
    18    17    18   ar
    19    17    22   ar
    20    18    19   ar
    21    22    21   ar
    22    19    20   ar
    23    21    20   ar
    24    20    23    1
    25    23    24    1

@<TRIPOS>MOLECULE
ZINC46566980_replica-1.pdb
 21 22 0 0 0
SMALL
GASTEIGER

@<TRIPOS>ATOM
      1  C6         9.2440   34.5380   58.7690 C.3     0  <0>0        0.1229
      2  N1         8.3090   35.5440   58.2600 N.am    0  <0>0       -0.2982
      3  C5         8.1860   35.7390   56.9310 C.2     0  <0>0        0.2224
      4  O1         8.8490   35.0790   56.1580 O.2     0  <0>0       -0.2751
      5  H11        7.7790   36.0710   58.8780 H       0  <0>0        0.1500
      6  C3         7.2240   36.7730   56.4070 C.3     0  <0>0        0.0765
      7  C4         5.8040   36.2050   56.4260 C.3     0  <0>0        0.0096
      8  C2         7.2860   38.0210   57.2920 C.3     0  <0>0        0.0091
      9  C1         8.5960   38.7670   57.0310 C.3     0  <0>0        0.0005
     10  C7         9.9510   35.0780   59.9850 C.ar    0  <0>0        0.0003
     11  C12        9.6850   36.3620   60.4240 C.ar    0  <0>0       -0.0000
     12  C11       10.3290   36.8570   61.5420 C.ar    0  <0>0        0.0294
     13  C10       11.2470   36.0710   62.2180 C.ar    0  <0>0        0.1401
     14  C9        11.5150   34.7870   61.7740 C.ar    0  <0>0        0.0294
     15  F1        11.8800   36.5560   63.3080 F       0  <0>0       -0.2042
     16  C8        10.8680   34.2910   60.6580 C.ar    0  <0>0       -0.0000
     17  C13        8.4850   33.2900   59.1420 C.ar    0  <0>0        0.0292
     18  S1         7.1180   33.1030   60.2750 S.2     0  <0>0       -0.0888
     19  C16        6.8760   31.3440   60.0890 C.ar    0  <0>0        0.0352
     20  C15        7.8420   31.0210   59.1940 C.ar    0  <0>0        0.0072
     21  C14        8.6670   32.0190   58.7100 C.ar    0  <0>0        0.0046
@<TRIPOS>BOND
     1     4     3    2
     2     6     7    1
     3     6     3    1
     4     6     8    1
     5     3     2   am
     6     9     8    1
     7     2     1    1
     8     2     5    1
     9    21    17   ar
    10    21    20   ar
    11     1    17    1
    12     1    10    1
    13    17    18   ar
    14    20    19   ar
    15    10    11   ar
    16    10    16   ar
    17    19    18   ar
    18    11    12   ar
    19    16    14   ar
    20    12    13   ar
    21    14    13   ar
    22    13    15    1

@<TRIPOS>MOLECULE
ZINC54000635_replica-1.pdb
 25 26 0 0 0
SMALL
GASTEIGER

@<TRIPOS>ATOM
      1  N1         5.0610   34.6050   59.0730 N.am    0  <0>0       -0.2598
      2  C7         5.3890   33.5000   58.1700 C.3     0  <0>0        0.1167
      3  C8         5.9300   35.6220   59.2370 C.2     0  <0>0        0.3044
      4  O1         5.6580   36.5400   59.9870 O.2     0  <0>0       -0.2526
      5  N2         7.1010   35.6220   58.5690 N.am    0  <0>0       -0.2866
      6  H12        7.3180   34.8900   57.9710 H       0  <0>0        0.1512
      7  C9         8.0460   36.7280   58.7480 C.3     0  <0>0        0.0955
      8  C10        9.1040   36.3290   59.7430 C.ar    0  <0>0       -0.0043
      9  C15        9.8250   35.1640   59.5540 C.ar    0  <0>0        0.0004
     10  C14       10.7990   34.7980   60.4630 C.ar    0  <0>0        0.0366
     11  C13       11.0480   35.5960   61.5700 C.ar    0  <0>0        0.1387
     12  C12       10.3210   36.7610   61.7600 C.ar    0  <0>0        0.0366
     13  C11        9.3500   37.1250   60.8470 C.ar    0  <0>0        0.0004
     14  O2        12.0040   35.2350   62.4670 O.3     0  <0>0       -0.4714
     15  C16       12.9220   34.2180   62.0640 C.3     0  <0>0        0.2525
     16  C17        8.7060   37.0570   57.4070 C.3     0  <0>0        0.0223
     17  C18        8.0150   36.2690   56.2920 C.3     0  <0>0        0.0020
     18  C19        8.5770   38.5550   57.1290 C.3     0  <0>0        0.0020
     19  C2         3.7880   34.6060   59.7980 C.3     0  <0>0        0.1054
     20  C1         3.5590   33.2300   60.4270 C.3     0  <0>0        0.0270
     21  C3         2.6650   34.9140   58.8420 C.ar    0  <0>0        0.0253
     22  S1         1.1300   34.0370   58.5900 S.2     0  <0>0       -0.0892
     23  C6         0.4500   35.0830   57.3130 C.ar    0  <0>0        0.0352
     24  C5         1.4250   36.0120   57.1610 C.ar    0  <0>0        0.0072
     25  C4         2.5610   35.9250   57.9440 C.ar    0  <0>0        0.0043
@<TRIPOS>BOND
     1    17    16    1
     2    18    16    1
     3    24    23   ar
     4    24    25   ar
     5    23    22   ar
     6    16     7    1
     7    25    21   ar
     8     6     5    1
     9     2     1    1
    10     5     7    1
    11     5     3   am
    12    22    21   ar
    13     7     8    1
    14    21    19    1
    15     1     3   am
    16     1    19    1
    17     3     4    2
    18     9     8   ar
    19     9    10   ar
    20     8    13   ar
    21    19    20    1
    22    10    11   ar
    23    13    12   ar
    24    11    12   ar
    25    11    14    1
    26    15    14    1

@<TRIPOS>MOLECULE
ZINC43763552_replica-1.pdb
 23 25 0 0 0
SMALL
GASTEIGER

@<TRIPOS>ATOM
      1  N1        -2.0300   29.7450   55.5720 N.pl3   0  <0>0       -0.1367
      2  H8        -2.9630   29.4990   55.6670 H       0  <0>0        0.1966
      3  S1        -1.4070   30.0640   54.0710 S.O2    0  <0>0        0.0877
      4  O1        -0.1290   30.6510   54.2790 O.2     0  <0>0       -0.1487
      5  O2        -2.4340   30.7150   53.3350 O.2     0  <0>0       -0.1487
      6  C5        -1.1270   28.5140   53.2830 C.ar    0  <0>0        0.1266
      7  C4        -0.3790   27.5400   53.9180 C.ar    0  <0>0        0.0199
      8  C3        -0.1610   26.3230   53.2990 C.ar    0  <0>0       -0.0029
      9  C2        -0.6920   26.0790   52.0470 C.ar    0  <0>0       -0.0218
     10  C1        -0.4540   24.7520   51.3720 C.3     0  <0>0        0.0310
     11  C7        -1.4360   27.0540   51.4090 C.ar    0  <0>0       -0.0029
     12  C6        -1.6580   28.2700   52.0300 C.ar    0  <0>0        0.0199
     13  N2        -1.2090   29.8310   56.7040 N.2     0  <0>0       -0.1740
     14  C8        -1.1870   28.8720   57.5520 C.2     0  <0>0        0.0546
     15  C13       -0.3940   28.9870   58.8300 C.3     0  <0>0        0.0331
     16  C9        -1.9510   27.5910   57.2970 C.3     0  <0>0        0.0429
     17  C12       -1.2840   28.6090   60.0180 C.3     0  <0>0        0.0053
     18  C17        0.8360   28.0700   58.7700 C.3     0  <0>0        0.0053
     19  C14        0.1260   30.4250   58.9950 C.3     0  <0>0        0.0053
     20  C11       -1.8980   27.2290   59.7700 C.3     0  <0>0        0.0008
     21  C10       -2.7980   27.2760   58.5350 C.3     0  <0>0        0.0060
     22  C16        2.0710   28.9870   58.8970 C.3     0  <0>0        0.0004
     23  C15        1.5350   30.2500   59.6150 C.3     0  <0>0        0.0004
@<TRIPOS>BOND
     1    10     9    1
     2    11    12   ar
     3    11     9   ar
     4    12     6   ar
     5     9     8   ar
     6     6     7   ar
     7     6     3    1
     8     8     7   ar
     9     5     3    2
    10     3     4    2
    11     3     1    1
    12     1     2    1
    13     1    13    1
    14    13    14    2
    15    16    14    1
    16    16    21    1
    17    14    15    1
    18    21    20    1
    19    18    15    1
    20    18    22    1
    21    15    19    1
    22    15    17    1
    23    22    23    1
    24    19    23    1
    25    20    17    1

@<TRIPOS>MOLECULE
ZINC19902859_replica-1.pdb
 24 26 0 0 0
SMALL
GASTEIGER

@<TRIPOS>ATOM
      1  C1         7.7290   32.7980   56.3610 C.3     0  <0>0        0.0470
      2  C2         7.2140   34.0350   57.0500 C.2     0  <0>0        0.0283
      3  C3         6.2880   33.9240   58.0180 C.2     0  <0>0        0.0706
      4  C4         5.7470   35.1350   58.7200 C.3     0  <0>0        0.0776
      5  C5         6.6510   36.3260   58.5180 C.2     0  <0>0        0.0298
      6  C6         7.5600   36.3400   57.5210 C.2     0  <0>0        0.0244
      7  N1         7.6920   35.2630   56.6850 N.pl3   0  <0>0       -0.3193
      8  C7         8.4520   37.5370   57.2990 C.3     0  <0>0        0.0414
      9  C8         8.7280   38.2260   58.6380 C.3     0  <0>0        0.0141
     10  C9         7.3890   38.6360   59.2590 C.3     0  <0>0        0.0693
     11  C10        6.5170   37.4180   59.3930 C.2     0  <0>0        0.1706
     12  O1         5.6810   37.3780   60.2740 O.2     0  <0>0       -0.2916
     13  H5         8.1890   35.3940   55.7130 H       0  <0>0        0.1516
     14  C11        4.3800   35.4550   58.1730 C.ar    0  <0>0       -0.0138
     15  C16        4.2360   35.8330   56.8500 C.ar    0  <0>0       -0.0013
     16  C15        2.9820   36.1270   56.3480 C.ar    0  <0>0        0.0293
     17  C14        1.8700   36.0430   57.1690 C.ar    0  <0>0        0.1401
     18  C13        2.0160   35.6650   58.4940 C.ar    0  <0>0        0.0293
     19  F1         0.6450   36.3300   56.6790 F       0  <0>0       -0.2042
     20  C12        3.2690   35.3660   58.9930 C.ar    0  <0>0       -0.0013
     21  C17        5.8140   32.6430   58.3810 C.2     0  <0>0        0.3388
     22  O2         6.2740   32.0780   59.3580 O.2     0  <0>0       -0.2452
     23  O3         4.8520   32.0450   57.6470 O.3     0  <0>0       -0.4415
     24  C18        3.6350   31.7160   58.3170 C.3     0  <0>0        0.2559
@<TRIPOS>BOND
     1    13     7    1
     2    16    15   ar
     3    16    17   ar
     4     1     2    1
     5    19    17    1
     6     7     2    1
     7     7     6    1
     8    15    14   ar
     9     2     3    2
    10    17    18   ar
    11     8     6    1
    12     8     9    1
    13     6     5    2
    14    23    24    1
    15    23    21    1
    16     3    21    1
    17     3     4    1
    18    14     4    1
    19    14    20   ar
    20    21    22    2
    21    18    20   ar
    22     5     4    1
    23     5    11    1
    24     9    10    1
    25    10    11    1
    26    11    12    2

@<TRIPOS>MOLECULE
ZINC62610410_replica-1.pdb
 19 20 0 0 0
SMALL
GASTEIGER

@<TRIPOS>ATOM
      1  C7        -0.3230   28.9010   55.4890 C.3     0  <0>0        0.1789
      2  C8         0.1850   30.2820   55.4450 C.1     0  <0>0        0.0846
      3  N1         0.5780   31.3470   55.4090 N.1     0  <0>0       -0.1951
      4  C3        -0.7740   28.4860   54.1120 C.ar    0  <0>0        0.0098
      5  C2        -1.6210   29.3020   53.3880 C.ar    0  <0>0        0.0003
      6  C1        -2.0340   28.9230   52.1240 C.ar    0  <0>0        0.0294
      7  C6        -1.5990   27.7250   51.5840 C.ar    0  <0>0        0.1410
      8  C5        -0.7500   26.9070   52.3100 C.ar    0  <0>0        0.0407
      9  F1        -2.0020   27.3530   50.3500 F       0  <0>0       -0.2041
     10  C4        -0.3370   27.2880   53.5740 C.ar    0  <0>0        0.0573
     11 Cl          0.7270   26.2640   54.4850 Cl      0  <0>0       -0.0825
     12  C9        -1.4880   28.8250   56.4420 C.2     0  <0>0        0.2251
     13  O1        -2.2330   29.7770   56.5680 O.2     0  <0>0       -0.2866
     14  C10       -1.7140   27.6490   57.1910 C.ar    0  <0>0        0.1819
     15  O2        -0.8530   26.6180   57.3310 O.2     0  <0>0       -0.4440
     16  C13       -1.4040   25.6820   58.1130 C.ar    0  <0>0        0.1792
     17  C12       -2.6410   26.0890   58.4860 C.ar    0  <0>0        0.0477
     18 Br         -0.5900   24.0490   58.6100 Br      0  <0>0       -0.0078
     19  C11       -2.8550   27.3460   57.9060 C.ar    0  <0>0        0.0442
@<TRIPOS>BOND
     1     9     7    1
     2     7     6   ar
     3     7     8   ar
     4     6     5   ar
     5     8    10   ar
     6     5     4   ar
     7    10     4   ar
     8    10    11    1
     9     4     1    1
    10     3     2    3
    11     2     1    1
    12     1    12    1
    13    12    13    2
    14    12    14    1
    15    14    15   ar
    16    14    19   ar
    17    15    16   ar
    18    19    17   ar
    19    16    17   ar
    20    16    18    1

@<TRIPOS>MOLECULE
ZINC01025526_replica-1.pdb
 27 29 0 0 0
SMALL
GASTEIGER

@<TRIPOS>ATOM
      1  N1         7.6420   36.7950   57.9930 N.am    0  <0>0       -0.3004
      2  C12        6.3560   36.4400   58.1780 C.2     0  <0>0        0.2227
      3  O1         5.7770   36.7610   59.1940 O.2     0  <0>0       -0.2751
      4  H10        8.1040   36.5380   57.1790 H       0  <0>0        0.1497
      5  C11        8.3420   37.5710   59.0200 C.3     0  <0>0        0.1163
      6  C8         9.2860   36.6680   59.7750 C.ar    0  <0>0       -0.0026
      7  C7         9.6340   35.4390   59.2440 C.ar    0  <0>0       -0.0026
      8  C6        10.4970   34.6090   59.9280 C.ar    0  <0>0        0.0002
      9  C5        11.0190   35.0110   61.1580 C.ar    0  <0>0        0.0060
     10  C10       10.6590   36.2490   61.6910 C.ar    0  <0>0        0.0002
     11  C9         9.7990   37.0730   60.9940 C.ar    0  <0>0       -0.0026
     12  C3        11.9440   34.1260   61.8970 C.ar    0  <0>0        0.0295
     13  C2        13.2950   34.2520   62.0810 C.ar    0  <0>0        0.0070
     14  C1        13.9550   33.2910   62.8180 C.ar    0  <0>0        0.0075
     15  C4        13.2490   32.2530   63.3350 C.ar    0  <0>0        0.0354
     16  S1        11.5910   32.6160   62.7820 S.2     0  <0>0       -0.0864
     17  C13        5.6340   35.6420   57.1200 C.3     0  <0>0        0.0856
     18  C14        6.1480   34.2020   57.1280 C.3     0  <0>0        0.0194
     19  C19        6.3510   33.7410   58.5730 C.3     0  <0>0        0.0010
     20  C18        6.8650   32.3000   58.5820 C.3     0  <0>0        0.0000
     21  C17        8.1960   32.2290   57.8330 C.3     0  <0>0        0.0000
     22  C16        7.9930   32.6890   56.3880 C.3     0  <0>0        0.0000
     23  C15        7.4800   34.1310   56.3790 C.3     0  <0>0        0.0010
     24  C20        5.1270   33.2930   56.4420 C.3     0  <0>0        0.1145
     25  C21        4.6220   33.9610   55.1890 C.2     0  <0>0        0.3649
     26  O2         3.5420   34.5290   55.1940 O.co2   0  <0>0       -0.2457
     27  O3         5.2910   33.9330   54.1700 O.co2   0  <0>0       -0.2457
@<TRIPOS>BOND
     1    27    25   ar
     2    25    26   ar
     3    25    24    1
     4    23    22    1
     5    23    18    1
     6    22    21    1
     7    24    18    1
     8    17    18    1
     9    17     2    1
    10    18    19    1
    11     4     1    1
    12    21    20    1
    13     1     2   am
    14     1     5    1
    15     2     3    2
    16    19    20    1
    17     5     6    1
    18     7     6   ar
    19     7     8   ar
    20     6    11   ar
    21     8     9   ar
    22    11    10   ar
    23     9    10   ar
    24     9    12    1
    25    12    13   ar
    26    12    16   ar
    27    13    14   ar
    28    16    15   ar
    29    14    15   ar

@<TRIPOS>MOLECULE
ZINC13479380_replica-1.pdb
 23 24 0 0 0
SMALL
GASTEIGER

@<TRIPOS>ATOM
      1  N2         8.3620   37.4400   57.9860 N.am    0  <0>0       -0.2959
      2  H14        8.5820   38.3840   57.9520 H       0  <0>0        0.1539
      3  C8         7.4140   36.9280   57.1430 C.2     0  <0>0        0.1351
      4  S2         7.7360   36.7810   55.5210 S.2     0  <0>0       -0.0185
      5  N1         6.2010   36.5360   57.6360 N.am    0  <0>0       -0.3175
      6  H20        5.6950   37.1340   58.2090 H       0  <0>0        0.1484
      7  C7         5.6660   35.2150   57.3000 C.3     0  <0>0        0.0705
      8  C2         4.1650   35.3270   57.0270 C.3     0  <0>0        0.0180
      9  C1         3.9300   36.2850   55.8560 C.3     0  <0>0        0.0017
     10  C3         3.4570   35.8620   58.2730 C.3     0  <0>0        0.0016
     11  C4         3.6910   34.9040   59.4430 C.3     0  <0>0        0.0001
     12  C5         5.1930   34.7920   59.7170 C.3     0  <0>0        0.0017
     13  C6         5.9000   34.2570   58.4700 C.3     0  <0>0        0.0195
     14  C9         9.0160   36.6000   58.8960 C.ar    0  <0>0        0.0496
     15  C14        9.3310   37.0630   60.1660 C.ar    0  <0>0        0.0152
     16  C13        9.9710   36.2330   61.0650 C.ar    0  <0>0        0.0076
     17  C12       10.3090   34.9380   60.6950 C.ar    0  <0>0        0.0303
     18  C11       10.0000   34.4760   59.4220 C.ar    0  <0>0        0.0076
     19  C10        9.3550   35.3040   58.5250 C.ar    0  <0>0        0.0152
     20  S1        11.1330   33.8800   61.8390 S.3     0  <0>0       -0.0442
     21  C15       12.5860   34.8380   62.3540 C.3     0  <0>0        0.3707
     22  F1        12.6660   34.8480   63.7510 F       0  <0>0       -0.1852
     23  F2        13.7420   34.2540   61.8250 F       0  <0>0       -0.1852
@<TRIPOS>BOND
     1     4     3    2
     2     9     8    1
     3     8     7    1
     4     8    10    1
     5     3     5    1
     6     3     1    1
     7     7     5    1
     8     7    13    1
     9     5     6    1
    10     2     1    1
    11     1    14    1
    12    10    11    1
    13    13    12    1
    14    19    14   ar
    15    19    18   ar
    16    14    15   ar
    17    18    17   ar
    18    11    12    1
    19    15    16   ar
    20    17    16   ar
    21    17    20    1
    22    23    21    1
    23    20    21    1
    24    21    22    1

@<TRIPOS>MOLECULE
ZINC52341176_replica-1.pdb
 23 24 0 0 0
SMALL
GASTEIGER

@<TRIPOS>ATOM
      1  C10       -0.1310   29.4510   55.8240 C.ar    0  <0>0        0.0447
      2  C11       -0.1150   30.5620   54.9890 C.ar    0  <0>0        0.0157
      3  C12        0.2690   31.7910   55.4860 C.ar    0  <0>0        0.0212
      4  C13        0.6370   31.9180   56.8130 C.ar    0  <0>0        0.1220
      5  C14        0.6220   30.8150   57.6470 C.ar    0  <0>0        0.0212
      6  C15        0.2340   29.5840   57.1570 C.ar    0  <0>0        0.0157
      7  N1        -0.5200   28.2060   55.3250 N.pl3   0  <0>0       -0.3340
      8  H18       -1.4500   27.9360   55.3640 H       0  <0>0        0.1468
      9  C3         0.4800   27.3070   54.7420 C.3     0  <0>0        0.0690
     10  C2         0.4670   25.9740   55.4930 C.3     0  <0>0        0.0195
     11  C1        -0.2290   26.1570   56.8440 C.3     0  <0>0        0.0017
     12  C4         0.1490   27.0640   53.2680 C.3     0  <0>0        0.0179
     13  C9        -1.0960   27.8660   52.8860 C.3     0  <0>0        0.0016
     14  C8        -1.4280   27.6250   51.4120 C.3     0  <0>0        0.0001
     15  C7        -1.6910   26.1340   51.1870 C.3     0  <0>0        0.0000
     16  C6        -0.4450   25.3320   51.5690 C.3     0  <0>0        0.0001
     17  C5        -0.1150   25.5750   53.0420 C.3     0  <0>0        0.0016
     18  S1         1.1280   33.4890   57.4430 S.O2    0  <0>0        0.0603
     19  O1        -0.0380   34.0910   57.9870 O.2     0  <0>0       -0.1530
     20  O2         2.3030   33.2700   58.2110 O.2     0  <0>0       -0.1530
     21  N2         1.5780   34.4170   56.1460 N.3     0  <0>0       -0.1779
     22  C16        2.8190   35.1940   56.1980 C.3     0  <0>0        0.1102
     23  H23        1.0200   34.4470   55.3540 H       0  <0>0        0.1488
@<TRIPOS>BOND
     1    15    14    1
     2    15    16    1
     3    14    13    1
     4    16    17    1
     5    13    12    1
     6    17    12    1
     7    12     9    1
     8     9     7    1
     9     9    10    1
    10     2     3   ar
    11     2     1   ar
    12     7     8    1
    13     7     1    1
    14    23    21    1
    15     3     4   ar
    16    10    11    1
    17     1     6   ar
    18    21    22    1
    19    21    18    1
    20     4    18    1
    21     4     5   ar
    22     6     5   ar
    23    18    19    2
    24    18    20    2

@<TRIPOS>MOLECULE
ZINC49065170_replica-1.pdb
 20 22 0 0 0
SMALL
GASTEIGER

@<TRIPOS>ATOM
      1  C8        -1.5080   30.5960   54.5960 C.2     0  <0>0        0.1923
      2  C9        -2.1280   30.3440   55.9110 C.2     0  <0>0        0.3738
      3  O1        -3.0920   29.6420   56.1510 O.2     0  <0>0       -0.2419
      4  O2        -1.3960   31.0600   56.7910 O.3     0  <0>0       -0.3911
      5  C10       -0.4170   31.7000   56.1210 C.2     0  <0>0        0.2848
      6  N1        -0.4620   31.4380   54.8410 N.2     0  <0>0       -0.3648
      7  C7        -1.8990   30.0860   53.3780 C.3     0  <0>0        0.0922
      8  C6        -1.4560   28.7500   52.9660 C.ar    0  <0>0       -0.0143
      9  C1        -1.7540   28.2740   51.6830 C.ar    0  <0>0       -0.0015
     10  C2        -1.3340   27.0180   51.3030 C.ar    0  <0>0        0.0298
     11  C3        -0.6190   26.2250   52.1870 C.ar    0  <0>0        0.1462
     12  C4        -0.3200   26.6890   53.4610 C.ar    0  <0>0        0.0617
     13  F1        -0.2120   24.9940   51.8090 F       0  <0>0       -0.2037
     14  C5        -0.7330   27.9430   53.8560 C.ar    0  <0>0        0.0051
     15 Br          0.6560   25.5980   54.6590 Br      0  <0>0       -0.0467
     16  C11        0.5820   32.5790   56.7520 C.ar    0  <0>0        0.0735
     17  C14        1.8780   32.6400   56.2950 C.ar    0  <0>0        0.0412
     18  S1         2.6190   33.7540   57.3070 S.2     0  <0>0       -0.0857
     19  C13        1.2520   34.1690   58.3690 C.ar    0  <0>0        0.0357
     20  C12        0.2480   33.4110   57.8820 C.ar    0  <0>0        0.0133
@<TRIPOS>BOND
     1    10     9   ar
     2    10    11   ar
     3     9     8   ar
     4    13    11    1
     5    11    12   ar
     6     8     7    1
     7     8    14   ar
     8     7     1    1
     9    12    14   ar
    10    12    15    1
    11     1     6    2
    12     1     2    1
    13     6     5    2
    14     2     3    2
    15     2     4    1
    16     5    16    1
    17     5     4    1
    18    17    16   ar
    19    17    18   ar
    20    16    20   ar
    21    18    19   ar
    22    20    19   ar

@<TRIPOS>MOLECULE
ZINC20432962_replica-1.pdb
 21 23 0 0 0
SMALL
GASTEIGER

@<TRIPOS>ATOM
      1  C5         1.1680   31.7730   58.5980 C.3     0  <0>0        0.0017
      2  C6         0.4080   30.6050   59.2320 C.3     0  <0>0        0.0071
      3  C7         0.6560   29.3230   58.4370 C.3     0  <0>0        0.0553
      4  C8         0.3310   29.5840   56.9680 C.2     0  <0>0        0.0973
      5  C9         0.2750   30.8630   56.5020 C.3     0  <0>0        0.1021
      6  S1        -0.1270   30.6370   54.7890 S.3     0  <0>0       -0.0765
      7  C10       -0.1880   28.8500   54.8260 C.2     0  <0>0        0.1564
      8  N1         0.0930   28.6110   56.0970 N.2     0  <0>0       -0.4034
      9  C17        0.5030   32.1280   57.2590 C.3     0  <0>0        0.0180
     10  C11       -0.4760   27.8970   53.7340 C.ar    0  <0>0        0.0358
     11  C16       -1.2390   28.2990   52.6360 C.ar    0  <0>0        0.0062
     12  C15       -1.5000   27.4080   51.6170 C.ar    0  <0>0        0.0367
     13  C14       -1.0170   26.1080   51.6880 C.ar    0  <0>0        0.1337
     14  C13       -0.2620   25.7030   52.7820 C.ar    0  <0>0        0.0367
     15  C12        0.0080   26.5890   53.8010 C.ar    0  <0>0        0.0062
     16  O1        -1.2810   25.2310   50.6840 O.3     0  <0>0       -0.5055
     17  H19       -1.6840   25.6360   49.9050 H       0  <0>0        0.2922
     18  C2         1.1190   32.9850   59.5320 C.3     0  <0>0        0.0000
     19  C1         0.3280   34.1110   58.8640 C.3     0  <0>0        0.0000
     20  C3         2.5440   33.4630   59.8220 C.3     0  <0>0        0.0000
     21  C4         0.4370   32.5900   60.8430 C.3     0  <0>0        0.0000
@<TRIPOS>BOND
     1    17    16    1
     2    16    13    1
     3    12    13   ar
     4    12    11   ar
     5    13    14   ar
     6    11    10   ar
     7    14    15   ar
     8    10    15   ar
     9    10     7    1
    10     6     7    1
    11     6     5    1
    12     7     8    2
    13     8     4    2
    14     5     4    1
    15     5     9    1
    16     4     3    1
    17     9     1    1
    18     3     2    1
    19     1     2    1
    20     1    18    1
    21    19    18    1
    22    18    20    1
    23    18    21    1

@<TRIPOS>MOLECULE
ZINC32912159_replica-1.pdb
 24 24 0 0 0
SMALL
GASTEIGER

@<TRIPOS>ATOM
      1  C8         0.0090   31.3020   56.2240 C.2     0  <0>0        0.2406
      2  O3        -0.6010   31.8050   55.3050 O.2     0  <0>0       -0.2733
      3  N2        -0.2680   30.0390   56.6050 N.am    0  <0>0       -0.3008
      4  H16        0.3370   29.5560   57.3880 H       0  <0>0        0.1497
      5  C4         1.0770   32.0890   56.9390 C.3     0  <0>0        0.1510
      6  N1         1.6500   33.0780   56.0240 N.am    0  <0>0       -0.2640
      7  C3         2.9880   33.2080   55.9240 C.2     0  <0>0        0.4020
      8  O2         3.7190   32.5020   56.5920 O.2     0  <0>0       -0.2264
      9  H8         0.9890   33.7160   55.4190 H       0  <0>0        0.1532
     10  O1         3.5150   34.1170   55.0820 O.3     0  <0>0       -0.4347
     11  C2         4.2980   35.1870   55.6750 C.3     0  <0>0        0.2102
     12  C1         3.3660   36.1620   56.3970 C.3     0  <0>0        0.0513
     13  C5         0.4620   32.8040   58.1450 C.3     0  <0>0        0.0270
     14  C6         1.3980   32.6710   59.3480 C.3     0  <0>0        0.0022
     15  C7         0.2650   34.2840   57.8120 C.3     0  <0>0        0.0022
     16  C9        -1.3740   29.3110   55.9790 C.3     0  <0>0        0.0946
     17  C10       -2.2570   28.6930   57.0640 C.3     0  <0>0        0.0262
     18  C11       -0.8220   28.2190   55.1000 C.ar    0  <0>0        0.0017
     19  C16       -1.0680   28.2360   53.7390 C.ar    0  <0>0        0.0321
     20  C15       -0.5610   27.2330   52.9320 C.ar    0  <0>0        0.0064
     21 Br         -2.0990   29.6290   52.9820 Br      0  <0>0       -0.0493
     22  C14        0.1930   26.2160   53.4860 C.ar    0  <0>0        0.0005
     23  C13        0.4400   26.2000   54.8450 C.ar    0  <0>0       -0.0002
     24  C12       -0.0630   27.2040   55.6520 C.ar    0  <0>0       -0.0022
@<TRIPOS>BOND
     1    20    22   ar
     2    20    19   ar
     3    21    19    1
     4    22    23   ar
     5    19    18   ar
     6    23    24   ar
     7    10    11    1
     8    10     7    1
     9    18    24   ar
    10    18    16    1
    11     2     1    2
    12     9     6    1
    13    11    12    1
    14     7     6   am
    15     7     8    2
    16    16     3    1
    17    16    17    1
    18     6     5    1
    19     1     3   am
    20     1     5    1
    21     3     4    1
    22     5    13    1
    23    15    13    1
    24    13    14    1

@<TRIPOS>MOLECULE
ZINC37780085_replica-1.pdb
 21 22 0 0 0
SMALL
GASTEIGER

@<TRIPOS>ATOM
      1  C5         8.5410   36.7580   59.3440 C.ar    0  <0>0        0.1515
      2  C6         8.5740   38.1400   59.2590 C.ar    0  <0>0        0.0382
      3  C7         8.5150   38.7590   58.0240 C.ar    0  <0>0        0.0032
      4  C8         8.4220   38.0020   56.8710 C.ar    0  <0>0        0.0015
      5  C9         8.3900   36.6230   56.9460 C.ar    0  <0>0        0.0174
      6  C10        8.4540   35.9940   58.1820 C.ar    0  <0>0        0.0791
      7  N1         8.4260   34.5970   58.2610 N.pl3   0  <0>0       -0.3297
      8  H16        9.2560   34.0960   58.2810 H       0  <0>0        0.1469
      9  C11        7.1430   33.8920   58.3120 C.3     0  <0>0        0.0965
     10  C16        7.1140   32.8030   57.2380 C.3     0  <0>0        0.1330
     11  C15        8.2530   31.8110   57.4880 C.3     0  <0>0        0.0313
     12  C14        8.0790   31.1710   58.8670 C.3     0  <0>0        0.0026
     13  C13        8.1060   32.2600   59.9410 C.3     0  <0>0        0.0019
     14  C12        6.9680   33.2510   59.6920 C.3     0  <0>0        0.0220
     15  O2         7.2780   33.4000   55.9500 O.3     0  <0>0       -0.3519
     16  C17        6.1040   34.0480   55.4570 C.3     0  <0>0        0.1741
     17  O1         8.5990   36.1470   60.5580 O.3     0  <0>0       -0.4742
     18  C4         9.4740   36.7200   61.5310 C.3     0  <0>0        0.2053
     19  C2        10.8550   36.0730   61.4190 C.3     0  <0>0        0.0438
     20  C1        11.6350   36.3070   62.7140 C.3     0  <0>0        0.0038
     21  C3        10.6960   34.5690   61.1840 C.3     0  <0>0        0.0038
@<TRIPOS>BOND
     1    16    15    1
     2    15    10    1
     3     4     5   ar
     4     4     3   ar
     5     5     6   ar
     6    10    11    1
     7    10     9    1
     8    11    12    1
     9     3     2   ar
    10     6     7    1
    11     6     1   ar
    12     7     8    1
    13     7     9    1
    14     9    14    1
    15    12    13    1
    16     2     1   ar
    17     1    17    1
    18    14    13    1
    19    17    18    1
    20    21    19    1
    21    19    18    1
    22    19    20    1

@<TRIPOS>MOLECULE
ZINC37057549_replica-1.pdb
 22 23 0 0 0
SMALL
GASTEIGER

@<TRIPOS>ATOM
      1  C9         7.7110   36.2960   57.4290 C.ar    0  <0>0        0.0581
      2  C10        8.5920   37.3400   57.6640 C.ar    0  <0>0        0.0156
      3  C11        8.4720   38.5190   56.9530 C.ar    0  <0>0        0.0013
      4  C12        7.4730   38.6630   56.0090 C.ar    0  <0>0        0.0014
      5  C13        6.5880   37.6280   55.7690 C.ar    0  <0>0        0.0158
      6  C14        6.7060   36.4380   56.4730 C.ar    0  <0>0        0.0613
      7  N1         7.8310   35.1000   58.1470 N.pl3   0  <0>0       -0.3331
      8  H18        7.7770   34.2490   57.6850 H       0  <0>0        0.1468
      9  C6         8.0410   35.1340   59.5970 C.3     0  <0>0        0.0691
     10  C5         9.1780   34.1820   59.9710 C.3     0  <0>0        0.0195
     11  C3        10.4520   34.9880   60.2320 C.3     0  <0>0        0.0016
     12  C4        11.3020   34.2720   61.2830 C.3     0  <0>0        0.0001
     13  C2        10.0780   36.3820   60.7420 C.3     0  <0>0        0.0001
     14  C1        10.7760   36.6400   62.0790 C.3     0  <0>0        0.0000
     15  C7         6.7570   34.6980   60.3070 C.3     0  <0>0        0.0195
     16  C8         5.9320   35.9330   60.6750 C.3     0  <0>0        0.0017
     17  N2         5.8150   35.3860   56.2270 N.pl3   0  <0>0       -0.3018
     18  C18        6.1060   34.3720   55.2030 C.3     0  <0>0        0.1231
     19  C17        4.8840   34.2310   54.2940 C.3     0  <0>0        0.1636
     20  O1         3.7210   34.0100   55.0970 O.3     0  <0>0       -0.3501
     21  C16        3.4090   35.0860   55.9850 C.3     0  <0>0        0.1636
     22  C15        4.5580   35.2660   56.9820 C.3     0  <0>0        0.1231
@<TRIPOS>BOND
     1    19    20    1
     2    19    18    1
     3    20    21    1
     4    18    17    1
     5     5     4   ar
     6     5     6   ar
     7    21    22    1
     8     4     3   ar
     9    17     6    1
    10    17    22    1
    11     6     1   ar
    12     3     2   ar
    13     1     2   ar
    14     1     7    1
    15     8     7    1
    16     7     9    1
    17     9    10    1
    18     9    15    1
    19    10    11    1
    20    11    13    1
    21    11    12    1
    22    15    16    1
    23    13    14    1

@<TRIPOS>MOLECULE
ZINC23607056_replica-1.pdb
 23 25 0 0 0
SMALL
GASTEIGER

@<TRIPOS>ATOM
      1  N3         2.2520   31.5830   56.4410 N.am    0  <0>0       -0.2537
      2  C7         0.9210   31.7890   56.4020 C.2     0  <0>0        0.2396
      3  O1         0.4750   32.9080   56.5520 O.2     0  <0>0       -0.2737
      4  H8         2.6080   30.6890   56.3210 H       0  <0>0        0.1577
      5  C6         3.1150   32.6520   56.6520 C.2     0  <0>0        0.2126
      6  S1         3.6150   33.3210   58.1160 S.3     0  <0>0       -0.0596
      7  C5         4.6620   34.5810   57.4480 C.3     0  <0>0        0.1194
      8  C4         4.5420   34.3860   56.1080 C.2     0  <0>0        0.1017
      9  C15        5.4880   35.6150   58.1320 C.3     0  <0>0        0.0903
     10  C3         5.3000   35.2870   55.1440 C.3     0  <0>0        0.0727
     11  N2         3.7390   33.3870   55.7580 N.2     0  <0>0       -0.3884
     12  C2         5.7320   36.5440   55.9070 C.3     0  <0>0        0.0793
     13  N1         6.4320   36.1750   57.1440 N.3     0  <0>0       -0.2700
     14  C1         7.1570   37.3250   57.7010 C.3     0  <0>0        0.0897
     15  C8        -0.0160   30.6300   56.1730 C.3     0  <0>0        0.1473
     16  S2        -0.9180   30.8790   54.6200 S.3     0  <0>0       -0.1039
     17  C9        -0.8350   29.3090   53.8240 C.ar    0  <0>0        0.0257
     18  C14       -0.0300   28.3040   54.3470 C.ar    0  <0>0        0.0067
     19  C13        0.0300   27.0740   53.7230 C.ar    0  <0>0        0.0072
     20  C12       -0.7040   26.8440   52.5730 C.ar    0  <0>0        0.0346
     21  C11       -1.5030   27.8430   52.0460 C.ar    0  <0>0        0.0072
     22 Br         -0.6150   25.1590   51.7180 Br      0  <0>0       -0.0490
     23  C10       -1.5700   29.0740   52.6690 C.ar    0  <0>0        0.0067
@<TRIPOS>BOND
     1    22    20    1
     2    21    20   ar
     3    21    23   ar
     4    20    19   ar
     5    23    17   ar
     6    19    18   ar
     7    17    18   ar
     8    17    16    1
     9    16    15    1
    10    10    12    1
    11    10     8    1
    12    11     8    2
    13    11     5    2
    14    12    13    1
    15     8     7    1
    16    15     2    1
    17     4     1    1
    18     2     1   am
    19     2     3    2
    20     1     5    1
    21     5     6    1
    22    13    14    1
    23    13     9    1
    24     7     6    1
    25     7     9    1

@<TRIPOS>MOLECULE
ZINC47387666_replica-1.pdb
 20 20 0 0 0
SMALL
GASTEIGER

@<TRIPOS>ATOM
      1  C7        11.3430   35.5920   61.9000 C.2     0  <0>0        0.2459
      2  O1        11.4700   36.4010   62.7980 O.2     0  <0>0       -0.2701
      3  N1        12.0050   34.4200   61.9480 N.am    0  <0>0       -0.3000
      4  H5        11.9040   33.7740   61.2320 H       0  <0>0        0.1498
      5  C6        10.4590   35.8950   60.7540 C.ar    0  <0>0        0.0535
      6  C1        10.3040   34.9660   59.7240 C.ar    0  <0>0        0.0062
      7  C2         9.4780   35.2540   58.6570 C.ar    0  <0>0        0.0242
      8  C3         8.8020   36.4610   58.6080 C.ar    0  <0>0        0.1429
      9  C4         8.9520   37.3860   59.6260 C.ar    0  <0>0        0.0242
     10  C5         9.7760   37.1110   60.6970 C.ar    0  <0>0        0.0062
     11  N2         7.9180   36.7640   57.4610 N.pl3   0  <0>0        0.0577
     12  O2         8.3670   37.3030   56.4760 O.2     0  <0>0       -0.1261
     13  O3         6.7460   36.4700   57.5080 O.2     0  <0>0       -0.1261
     14  C8        12.8800   34.1200   63.0850 C.3     0  <0>0        0.1016
     15  C9        13.2200   32.6280   63.0880 C.3     0  <0>0        0.0867
     16  S1        11.7060   31.6620   63.3410 S.3     0  <0>0       -0.0396
     17  C10       12.2990   30.0860   64.0150 C.3     0  <0>0        0.4438
     18  F1        11.2090   29.2410   64.2520 F       0  <0>0       -0.1602
     19  F2        13.1650   29.4820   63.0960 F       0  <0>0       -0.1602
     20  F3        12.9790   30.3170   65.2150 F       0  <0>0       -0.1602
@<TRIPOS>BOND
     1    12    11    2
     2    11    13    2
     3    11     8    1
     4     8     7   ar
     5     8     9   ar
     6     7     6   ar
     7     9    10   ar
     8     6     5   ar
     9    10     5   ar
    10     5     1    1
    11     4     3    1
    12     1     3   am
    13     1     2    2
    14     3    14    1
    15    14    15    1
    16    15    16    1
    17    19    17    1
    18    16    17    1
    19    17    18    1
    20    17    20    1

@<TRIPOS>MOLECULE
ZINC05468517_replica-1.pdb
 21 21 0 0 0
SMALL
GASTEIGER

@<TRIPOS>ATOM
      1  C7        -0.3220   27.3020   53.8270 C.ar    0  <0>0        0.1349
      2  C8        -0.0840   26.1340   53.1160 C.ar    0  <0>0        0.0323
      3  C9        -0.6680   25.9500   51.8780 C.ar    0  <0>0       -0.0189
      4  C10       -1.4880   26.9290   51.3460 C.ar    0  <0>0       -0.0044
      5  C11       -1.7260   28.0930   52.0530 C.ar    0  <0>0       -0.0016
      6  C12       -1.1480   28.2800   53.2940 C.ar    0  <0>0        0.0112
      7  C17       -0.4100   24.6820   51.1060 C.3     0  <0>0        0.0311
      8  O2         0.2520   27.4860   55.0450 O.3     0  <0>0       -0.4660
      9  C6         0.2140   26.3830   55.9530 C.3     0  <0>0        0.2893
     10  C5         0.5840   26.8560   57.3350 C.2     0  <0>0        0.2670
     11  N1         1.3160   27.9770   57.4910 N.am    0  <0>0       -0.3029
     12  H10        1.6030   28.4800   56.7130 H       0  <0>0        0.1495
     13  O1         0.2250   26.2280   58.3070 O.2     0  <0>0       -0.2711
     14  C3         1.6760   28.4370   58.8330 C.3     0  <0>0        0.0717
     15  C4         3.1570   28.1520   59.0910 C.3     0  <0>0        0.0213
     16  C2         1.4190   29.9410   58.9440 C.3     0  <0>0        0.0196
     17  C1        -0.0310   30.2410   58.5580 C.3     0  <0>0        0.0017
     18  C13       -1.4130   29.5470   54.0660 C.3     0  <0>0        0.0218
     19  C14       -0.0870   30.2460   54.3700 C.3     0  <0>0        0.0045
     20  C15       -2.3000   30.4750   53.2320 C.3     0  <0>0        0.0045
     21  C16       -2.1230   29.2050   55.3770 C.3     0  <0>0        0.0045
@<TRIPOS>BOND
     1     7     3    1
     2     4     3   ar
     3     4     5   ar
     4     3     2   ar
     5     5     6   ar
     6     2     1   ar
     7    20    18    1
     8     6     1   ar
     9     6    18    1
    10     1     8    1
    11    18    19    1
    12    18    21    1
    13     8     9    1
    14     9    10    1
    15    12    11    1
    16    10    11   am
    17    10    13    2
    18    11    14    1
    19    17    16    1
    20    14    16    1
    21    14    15    1

@<TRIPOS>MOLECULE
ZINC41706057_replica-1.pdb
 19 21 0 0 0
SMALL
GASTEIGER

@<TRIPOS>ATOM
      1  C1         6.9240   34.4070   58.5670 C.3     0  <0>0        0.0008
      2  C2         8.2210   34.4050   57.7550 C.3     0  <0>0        0.0128
      3  C3         9.4080   34.2060   58.7030 C.3     0  <0>0        0.0447
      4  C4         9.5500   35.4210   59.5820 C.ar    0  <0>0        0.0455
      5  C5         9.0080   36.6570   59.2520 C.ar    0  <0>0        0.0482
      6  C6         9.3480   37.5670   60.3330 C.ar    0  <0>0        0.0230
      7  C7        10.0560   36.8400   61.2210 C.ar    0  <0>0        0.0812
      8  N1        10.1740   35.5530   60.7610 N.ar    0  <0>0       -0.2939
      9  C13        8.2580   36.8690   58.0100 C.2     0  <0>0        0.1742
     10  O1         7.6140   37.8760   57.8020 O.2     0  <0>0       -0.2913
     11  C14        8.3460   35.7320   57.0010 C.3     0  <0>0        0.0695
     12  C15        8.1830   33.2550   56.7480 C.3     0  <0>0        0.0008
     13  C8        10.8480   34.5250   61.4270 C.ar    0  <0>0        0.1475
     14  N2        10.2360   33.3720   61.6410 N.ar    0  <0>0       -0.2259
     15  C12       10.8370   32.3750   62.2600 C.ar    0  <0>0        0.1072
     16  C11       12.1330   32.5040   62.7210 C.ar    0  <0>0        0.0538
     17  C10       12.8090   33.7010   62.5200 C.ar    0  <0>0        0.0114
     18 Br         12.9790   31.0680   63.6130 Br      0  <0>0       -0.0474
     19  C9        12.1520   34.7270   61.8630 C.ar    0  <0>0        0.0379
@<TRIPOS>BOND
     1    12     2    1
     2    11     2    1
     3    11     9    1
     4     2     1    1
     5     2     3    1
     6    10     9    2
     7     9     5    1
     8     3     4    1
     9     5     4   ar
    10     5     6   ar
    11     4     8   ar
    12     6     7   ar
    13     8     7   ar
    14     8    13    1
    15    13    14   ar
    16    13    19   ar
    17    14    15   ar
    18    19    17   ar
    19    15    16   ar
    20    17    16   ar
    21    16    18    1

@<TRIPOS>MOLECULE
ZINC62138495_replica-1.pdb
 21 22 0 0 0
SMALL
GASTEIGER

@<TRIPOS>ATOM
      1  C8         9.3620   37.1090   60.8750 C.3     0  <0>0        0.1149
      2  C7         8.9830   36.1110   59.7780 C.3     0  <0>0        0.0572
      3  C5         8.4990   36.8600   58.5630 C.ar    0  <0>0        0.0027
      4  C4         7.8000   36.1940   57.5750 C.ar    0  <0>0        0.1390
      5  C3         7.3540   36.8810   56.4600 C.ar    0  <0>0        0.0237
      6  C2         7.6070   38.2330   56.3360 C.ar    0  <0>0        0.0017
      7  C1         8.3060   38.9000   57.3250 C.ar    0  <0>0       -0.0002
      8  C6         8.7510   38.2130   58.4390 C.ar    0  <0>0       -0.0025
      9  N1         7.5280   34.7450   57.7080 N.pl3   0  <0>0        0.0574
     10  O2         8.3140   33.9390   57.2660 O.2     0  <0>0       -0.1261
     11  O3         6.5190   34.3670   58.2560 O.2     0  <0>0       -0.1261
     12  C9        10.5230   36.5460   61.6980 C.3     0  <0>0        0.0296
     13  C10       10.9900   35.2250   61.0840 C.3     0  <0>0        0.0025
     14  C11       11.5160   34.3070   62.1900 C.3     0  <0>0        0.0001
     15  C16       10.9280   32.9060   62.0110 C.3     0  <0>0        0.0000
     16  C15       11.4540   31.9880   63.1170 C.3     0  <0>0        0.0000
     17  C14       12.9800   31.9150   63.0360 C.3     0  <0>0        0.0000
     18  C13       13.5680   33.3170   63.2140 C.3     0  <0>0        0.0000
     19  C12       13.0420   34.2340   62.1080 C.3     0  <0>0        0.0000
     20  O1         8.2370   37.3290   61.7270 O.3     0  <0>0       -0.3841
     21  H23        8.2020   36.7390   62.4930 H       0  <0>0        0.2103
@<TRIPOS>BOND
     1     6     5   ar
     2     6     7   ar
     3     5     4   ar
     4    10     9    2
     5     7     8   ar
     6     4     9    1
     7     4     3   ar
     8     9    11    2
     9     8     3   ar
    10     3     2    1
    11     2     1    1
    12     1    12    1
    13     1    20    1
    14    13    12    1
    15    13    14    1
    16    20    21    1
    17    15    14    1
    18    15    16    1
    19    19    14    1
    20    19    18    1
    21    17    16    1
    22    17    18    1

@<TRIPOS>MOLECULE
ZINC13110834_replica-1.pdb
 21 23 0 0 0
SMALL
GASTEIGER

@<TRIPOS>ATOM
      1  C9        -0.3530   31.3320   56.0510 C.2     0  <0>0        0.2125
      2  N1        -0.0300   32.6530   55.9760 N.am    0  <0>0       -0.2541
      3  H1        -0.1340   33.1350   55.1390 H       0  <0>0        0.1577
      4  C10        0.4350   33.2860   57.0710 C.2     0  <0>0        0.2342
      5  O1         0.7350   34.4670   57.0220 O.2     0  <0>0       -0.2743
      6  C11        0.5710   32.5630   58.2760 C.3     0  <0>0        0.1248
      7  C12        0.2270   31.2500   58.2960 C.2     0  <0>0        0.0972
      8  N2        -0.2290   30.6680   57.1800 N.2     0  <0>0       -0.3889
      9  C13        0.3200   30.4050   59.5400 C.3     0  <0>0        0.0550
     10  C14        1.2300   31.0660   60.5720 C.3     0  <0>0        0.0071
     11  C15        0.7750   32.5190   60.7600 C.3     0  <0>0        0.0013
     12  C16        1.0980   33.2910   59.4820 C.3     0  <0>0        0.0159
     13  S1        -0.9520   30.5010   54.6170 S.3     0  <0>0       -0.0621
     14  C8        -0.3180   28.8110   54.7930 C.3     0  <0>0        0.0918
     15  C7        -0.6610   28.0150   53.5600 C.ar    0  <0>0       -0.0148
     16  C2        -0.2420   26.7020   53.4470 C.ar    0  <0>0       -0.0250
     17  C1         0.5560   26.0670   54.5570 C.3     0  <0>0        0.0307
     18  C3        -0.5610   25.9700   52.3180 C.ar    0  <0>0       -0.0045
     19  C4        -1.2930   26.5520   51.3000 C.ar    0  <0>0       -0.0003
     20  C5        -1.7060   27.8660   51.4120 C.ar    0  <0>0       -0.0003
     21  C6        -1.3890   28.5990   52.5400 C.ar    0  <0>0       -0.0037
@<TRIPOS>BOND
     1    19    20   ar
     2    19    18   ar
     3    20    21   ar
     4    18    16   ar
     5    21    15   ar
     6    16    15   ar
     7    16    17    1
     8    15    14    1
     9    13    14    1
    10    13     1    1
    11     3     2    1
    12     2     1    1
    13     2     4   am
    14     1     8    2
    15     5     4    2
    16     4     6    1
    17     8     7    2
    18     6     7    1
    19     6    12    1
    20     7     9    1
    21    12    11    1
    22     9    10    1
    23    10    11    1

@<TRIPOS>MOLECULE
ZINC00823260_replica-1.pdb
 23 25 0 0 0
SMALL
GASTEIGER

@<TRIPOS>ATOM
      1  C7         7.1900   35.0100   58.4660 C.3     0  <0>0        0.1897
      2  N1         7.0190   33.7840   57.6670 N.am    0  <0>0       -0.2322
      3  C8         7.0280   33.8940   56.3240 C.1     0  <0>0        0.2678
      4  O1         6.8870   32.8890   55.6480 O.2     0  <0>0       -0.1931
      5  N2         7.1870   35.0600   55.7150 N.2     0  <0>0       -0.3056
      6  C9         7.3490   36.2170   56.3560 C.2     0  <0>0        0.2028
      7  N3         7.3600   36.2660   57.7200 N.pl3   0  <0>0       -0.2416
      8  C10        7.5250   37.4390   58.3760 C.2     0  <0>0        0.0690
      9  C11        7.6830   38.5960   57.6890 C.2     0  <0>0        0.0163
     10  C12        7.6770   38.5860   56.2890 C.2     0  <0>0        0.0053
     11  C13        7.5110   37.4050   55.6230 C.2     0  <0>0        0.0491
     12  H5         6.9030   32.9220   58.0960 H       0  <0>0        0.1626
     13  C6         8.3970   34.8260   59.3500 C.ar    0  <0>0        0.0158
     14  C1         9.3280   35.8410   59.4690 C.ar    0  <0>0        0.0013
     15  C2        10.4350   35.6730   60.2790 C.ar    0  <0>0        0.0294
     16  C3        10.6120   34.4870   60.9710 C.ar    0  <0>0        0.1401
     17  C4         9.6820   33.4680   60.8480 C.ar    0  <0>0        0.0294
     18  F1        11.6940   34.3210   61.7630 F       0  <0>0       -0.2042
     19  C5         8.5730   33.6410   60.0400 C.ar    0  <0>0        0.0013
     20  C14        5.9650   35.1610   59.3710 C.3     0  <0>0        0.2330
     21 Cl          4.6560   36.0170   58.4730 Cl      0  <0>0       -0.0788
     22 Cl          5.3830   33.5290   59.8700 Cl      0  <0>0       -0.0788
     23 Cl          6.4120   36.1130   60.8350 Cl      0  <0>0       -0.0788
@<TRIPOS>BOND
     1    11    10    2
     2    11     6    1
     3     4     3    2
     4     5     3    2
     5     5     6    2
     6    10     9    1
     7     3     2   am
     8     6     7    1
     9     2    12    1
    10     2     1    1
    11     9     8    2
    12     7     8    1
    13     7     1    1
    14     1    13    1
    15     1    20    1
    16    21    20    1
    17    13    14   ar
    18    13    19   ar
    19    20    22    1
    20    20    23    1
    21    14    15   ar
    22    19    17   ar
    23    15    16   ar
    24    17    16   ar
    25    16    18    1

@<TRIPOS>MOLECULE
ZINC41113276_replica-1.pdb
 22 23 0 0 0
SMALL
GASTEIGER

@<TRIPOS>ATOM
      1  C4         7.4190   37.0990   58.5160 C.3     0  <0>0        0.0986
      2  C2         7.9360   37.2970   57.0900 C.3     0  <0>0        0.0127
      3  C1         6.7500   37.4190   56.1310 C.3     0  <0>0        0.0008
      4  C3         8.7780   38.5720   57.0230 C.3     0  <0>0        0.0008
      5  C5         8.5420   36.6110   59.3940 C.ar    0  <0>0       -0.0137
      6  C10        8.7970   37.2380   60.6000 C.ar    0  <0>0       -0.0007
      7  C9         9.8230   36.7900   61.4090 C.ar    0  <0>0        0.0366
      8  C8        10.6050   35.7170   61.0070 C.ar    0  <0>0        0.1387
      9  C7        10.3500   35.0930   59.7940 C.ar    0  <0>0        0.0366
     10  C6         9.3200   35.5430   58.9900 C.ar    0  <0>0       -0.0007
     11  O1        11.6180   35.2770   61.7990 O.3     0  <0>0       -0.4714
     12  C11       11.6420   33.8820   62.1060 C.3     0  <0>0        0.2525
     13  C12        6.3080   36.0810   58.5110 C.2     0  <0>0        0.2261
     14  O2         6.4450   35.0350   57.9130 O.2     0  <0>0       -0.2748
     15  N1         5.1600   36.3340   59.1720 N.am    0  <0>0       -0.3041
     16  H16        5.0690   37.1470   59.6940 H       0  <0>0        0.1494
     17  C13        4.0510   35.3790   59.1030 C.3     0  <0>0        0.0893
     18  C14        2.8420   36.0500   58.4450 C.3     0  <0>0        0.0196
     19  C18        2.9300   35.9070   56.9150 C.3     0  <0>0        0.0017
     20  C17        1.6800   35.1160   56.4740 C.3     0  <0>0        0.0001
     21  C16        0.6560   35.3600   57.6110 C.3     0  <0>0        0.0001
     22  C15        1.5440   35.3410   58.8800 C.3     0  <0>0        0.0017
@<TRIPOS>BOND
     1     3     2    1
     2    20    19    1
     3    20    21    1
     4    19    18    1
     5     4     2    1
     6     2     1    1
     7    21    22    1
     8    14    13    2
     9    18    22    1
    10    18    17    1
    11    13     1    1
    12    13    15   am
    13     1     5    1
    14    10     5   ar
    15    10     9   ar
    16    17    15    1
    17    15    16    1
    18     5     6   ar
    19     9     8   ar
    20     6     7   ar
    21     8     7   ar
    22     8    11    1
    23    11    12    1

@<TRIPOS>MOLECULE
ZINC61123312_replica-1.pdb
 22 24 0 0 0
SMALL
GASTEIGER

@<TRIPOS>ATOM
      1  C1         2.1540   29.8010   58.8650 C.3     0  <0>0        0.0001
      2  C2         1.4110   28.4850   59.1050 C.3     0  <0>0        0.0027
      3  C3         0.0780   28.7720   59.7990 C.3     0  <0>0        0.0002
      4  C4        -0.7730   29.6840   58.9150 C.3     0  <0>0        0.0027
      5  C5        -1.0340   28.9940   57.5740 C.3     0  <0>0        0.0286
      6  C6         0.2980   28.7080   56.8790 C.3     0  <0>0        0.1069
      7  C7         1.1490   27.7960   57.7640 C.3     0  <0>0        0.0311
      8  C8         0.0410   28.0300   55.5590 C.ar    0  <0>0        0.0018
      9  C13       -0.7410   28.6610   54.5800 C.ar    0  <0>0        0.0012
     10  C12       -0.9700   28.0090   53.3400 C.ar    0  <0>0        0.0190
     11  C14       -1.3100   29.9320   54.7790 C.ar    0  <0>0        0.0204
     12  C11       -0.4190   26.7380   53.1190 C.ar    0  <0>0        0.0015
     13  C16       -1.7510   28.6630   52.3730 C.ar    0  <0>0        0.0988
     14  C10        0.3310   26.1530   54.0930 C.ar    0  <0>0       -0.0002
     15  C9         0.5600   26.7960   55.3080 C.ar    0  <0>0       -0.0020
     16  N1        -2.2590   29.8440   52.6320 N.ar    0  <0>0       -0.2423
     17  C15       -2.0560   30.4770   53.7790 C.ar    0  <0>0        0.0989
     18  O1         0.9920   29.9370   56.6550 O.3     0  <0>0       -0.3827
     19  H18        0.5080   30.7210   56.9490 H       0  <0>0        0.2107
     20  C17       -1.7770   27.6790   57.8140 C.3     0  <0>0        0.0026
     21  C18       -2.0840   27.5300   59.3050 C.3     0  <0>0        0.0001
     22  C19       -3.0870   27.6810   57.0230 C.3     0  <0>0        0.0001
@<TRIPOS>BOND
     1    13    16   ar
     2    13    10   ar
     3    16    17   ar
     4    12    10   ar
     5    12    14   ar
     6    10     9   ar
     7    17    11   ar
     8    14    15   ar
     9     9    11   ar
    10     9     8   ar
    11    15     8   ar
    12     8     6    1
    13    18     6    1
    14    18    19    1
    15     6     5    1
    16     6     7    1
    17    22    20    1
    18     5    20    1
    19     5     4    1
    20     7     2    1
    21    20    21    1
    22     1     2    1
    23     4     3    1
    24     2     3    1

@<TRIPOS>MOLECULE
ZINC27532467_replica-1.pdb
 18 19 0 0 0
SMALL
GASTEIGER

@<TRIPOS>ATOM
      1  C8        -2.4670   30.1050   54.4630 C.3     0  <0>0        0.2174
      2  O1        -1.3190   29.9160   53.6340 O.3     0  <0>0       -0.4745
      3  C5        -1.1340   28.6750   53.1110 C.ar    0  <0>0        0.1386
      4  C4        -0.3960   27.7300   53.8100 C.ar    0  <0>0        0.0366
      5  C3        -0.2090   26.4690   53.2770 C.ar    0  <0>0       -0.0011
      6  C2        -0.7550   26.1490   52.0480 C.ar    0  <0>0       -0.0217
      7  C1        -0.5490   24.7730   51.4680 C.3     0  <0>0        0.0310
      8  C7        -1.4900   27.0890   51.3500 C.ar    0  <0>0       -0.0011
      9  C6        -1.6800   28.3510   51.8780 C.ar    0  <0>0        0.0366
     10  C9        -2.0440   30.7680   55.7760 C.3     0  <0>0        0.1114
     11  S1        -0.3980   31.5030   55.5800 S.3     0  <0>0       -0.0827
     12  C10       -0.0060   32.1050   57.1880 C.ar    0  <0>0        0.1600
     13  S2         0.5950   31.2150   58.6160 S.2     0  <0>0       -0.0330
     14  C11        0.6970   32.6040   59.7340 C.ar    0  <0>0        0.1599
     15  N2         0.2830   33.5900   58.9630 N.ar    0  <0>0       -0.1339
     16  N1        -0.0710   33.3360   57.6580 N.ar    0  <0>0       -0.1339
     17  S3         1.2110   32.6440   61.4200 S.3     0  <0>0       -0.0857
     18  C12       -0.1580   33.4710   62.2760 C.3     0  <0>0        0.0762
@<TRIPOS>BOND
     1     8     9   ar
     2     8     6   ar
     3     7     6    1
     4     9     3   ar
     5     6     5   ar
     6     3     2    1
     7     3     4   ar
     8     5     4   ar
     9     2     1    1
    10     1    10    1
    11    11    10    1
    12    11    12    1
    13    12    16   ar
    14    12    13   ar
    15    16    15   ar
    16    13    14   ar
    17    15    14   ar
    18    14    17    1
    19    17    18    1

@<TRIPOS>MOLECULE
ZINC37876053_replica-1.pdb
 21 22 0 0 0
SMALL
GASTEIGER

@<TRIPOS>ATOM
      1  N1         7.3920   35.2190   58.0910 N.pl3   0  <0>0       -0.3304
      2  H5         6.4650   35.2600   58.3720 H       0  <0>0        0.1469
      3  C5         8.4120   35.5260   59.0000 C.ar    0  <0>0        0.0506
      4  C4         8.5350   36.8210   59.5020 C.ar    0  <0>0        0.0433
      5  C3         9.5480   37.1190   60.4020 C.ar    0  <0>0        0.0075
      6  C2        10.4310   36.1320   60.7990 C.ar    0  <0>0        0.0006
      7  C1        10.3100   34.8480   60.3010 C.ar    0  <0>0        0.0013
      8  C6         9.3030   34.5430   59.4040 C.ar    0  <0>0        0.0148
      9  S1         7.4070   38.0760   58.9960 S.3     0  <0>0       -0.0429
     10  C14        8.1400   38.7390   57.4750 C.3     0  <0>0        0.3707
     11  F1         9.0970   37.8420   56.9900 F       0  <0>0       -0.1852
     12  F2         7.1390   38.9170   56.5140 F       0  <0>0       -0.1852
     13  C7         7.7250   34.8350   56.7180 C.3     0  <0>0        0.1143
     14  C8         6.5960   35.2630   55.7800 C.3     0  <0>0        0.1062
     15  C13        6.0080   34.0300   55.0910 C.3     0  <0>0        0.0286
     16  C12        4.8780   34.4590   54.1540 C.3     0  <0>0        0.0025
     17  C11        3.7850   35.1620   54.9610 C.3     0  <0>0        0.0002
     18  C10        4.3720   36.3940   55.6490 C.3     0  <0>0        0.0025
     19  C9         5.5020   35.9660   56.5870 C.3     0  <0>0        0.0286
     20  O1         7.1090   36.1610   54.7930 O.3     0  <0>0       -0.3851
     21  H18        7.7870   36.7640   55.1260 H       0  <0>0        0.2103
@<TRIPOS>BOND
     1    16    17    1
     2    16    15    1
     3    20    21    1
     4    20    14    1
     5    17    18    1
     6    15    14    1
     7    18    19    1
     8    14    19    1
     9    14    13    1
    10    12    10    1
    11    13     1    1
    12    11    10    1
    13    10     9    1
    14     1     2    1
    15     1     3    1
    16     9     4    1
    17     3     8   ar
    18     3     4   ar
    19     8     7   ar
    20     4     5   ar
    21     7     6   ar
    22     5     6   ar

@<TRIPOS>MOLECULE
ZINC43763111_replica-1.pdb
 23 25 0 0 0
SMALL
GASTEIGER

@<TRIPOS>ATOM
      1  N1         0.9580   30.4990   56.2710 N.pl3   0  <0>0       -0.1367
      2  H11        1.2900   29.7340   56.7670 H       0  <0>0        0.1966
      3  S1        -0.5120   30.4230   55.5150 S.O2    0  <0>0        0.0877
      4  O1        -0.5770   31.5410   54.6390 O.2     0  <0>0       -0.1487
      5  O2        -1.4790   30.1930   56.5300 O.2     0  <0>0       -0.1487
      6  C5        -0.5010   28.9850   54.4960 C.ar    0  <0>0        0.1266
      7  C4         0.2280   27.8740   54.8770 C.ar    0  <0>0        0.0199
      8  C3         0.2360   26.7460   54.0780 C.ar    0  <0>0       -0.0029
      9  C2        -0.4840   26.7290   52.8980 C.ar    0  <0>0       -0.0218
     10  C1        -0.4740   25.4990   52.0270 C.3     0  <0>0        0.0310
     11  C7        -1.2080   27.8420   52.5150 C.ar    0  <0>0       -0.0029
     12  C6        -1.2190   28.9690   53.3150 C.ar    0  <0>0        0.0199
     13  N2         1.7250   31.6700   56.1960 N.2     0  <0>0       -0.1740
     14  C8         2.2770   32.1420   57.2500 C.2     0  <0>0        0.0549
     15  C16        3.2030   33.3110   57.1260 C.3     0  <0>0        0.0377
     16  C9         1.9850   31.5050   58.5750 C.3     0  <0>0        0.0429
     17  C15        2.7780   34.4540   58.0500 C.3     0  <0>0        0.0056
     18  C17        3.1760   33.8150   55.6820 C.3     0  <0>0        0.0060
     19  C11        2.3680   33.9640   59.4270 C.3     0  <0>0        0.0007
     20  C10        1.8880   32.5460   59.6740 C.3     0  <0>0        0.0056
     21  C12        0.8900   33.6890   59.5780 C.3     0  <0>0        0.0004
     22  C13        0.0360   33.7770   58.3110 C.3     0  <0>0        0.0000
     23  C14        0.2070   34.1430   60.8690 C.3     0  <0>0        0.0000
@<TRIPOS>BOND
     1    10     9    1
     2    11     9   ar
     3    11    12   ar
     4     9     8   ar
     5    12     6   ar
     6     8     7   ar
     7     6     7   ar
     8     6     3    1
     9     4     3    2
    10     3     1    1
    11     3     5    2
    12    18    15    1
    13    13     1    1
    14    13    14    2
    15     1     2    1
    16    15    14    1
    17    15    17    1
    18    14    16    1
    19    17    19    1
    20    22    21    1
    21    16    20    1
    22    19    21    1
    23    19    20    1
    24    21    20    1
    25    21    23    1

@<TRIPOS>MOLECULE
ZINC58376962_replica-1.pdb
 21 23 0 0 0
SMALL
GASTEIGER

@<TRIPOS>ATOM
      1  N1         6.1610   35.7580   58.4240 N.pl3   0  <0>0       -0.3051
      2  C8         6.5190   36.8540   57.5120 C.3     0  <0>0        0.1051
      3  C9         8.0460   37.0010   57.5090 C.3     0  <0>0        0.0604
      4  N2         8.5750   37.0500   58.8620 N.3     0  <0>0       -0.2989
      5  C10        8.1370   36.0710   59.8380 C.3     0  <0>0        0.0603
      6  C11        6.6190   35.8640   59.8140 C.3     0  <0>0        0.1051
      7  C12        8.4990   36.5950   61.2450 C.3     0  <0>0        0.0161
      8  C13       10.0110   36.7800   61.3480 C.3     0  <0>0        0.0014
      9  C14       10.7130   35.4380   61.1290 C.3     0  <0>0        0.0001
     10  C15       10.3460   34.8940   59.7460 C.3     0  <0>0        0.0014
     11  C16        8.8300   34.7190   59.6600 C.3     0  <0>0        0.0161
     12  C17        8.3830   38.3360   56.8110 C.3     0  <0>0        0.0175
     13  C18        8.6770   35.8760   56.6890 C.3     0  <0>0        0.0175
     14  H28        9.5680   37.2070   58.8770 H       0  <0>0        0.1232
     15  C7         5.4070   34.6680   57.9880 C.ar    0  <0>0        0.0439
     16  C2         4.0190   34.7150   58.0400 C.ar    0  <0>0       -0.0085
     17  C1         3.3260   35.9460   58.5660 C.3     0  <0>0        0.0323
     18  C3         3.2770   33.6370   57.6030 C.ar    0  <0>0       -0.0030
     19  C4         3.9120   32.5080   57.1200 C.ar    0  <0>0       -0.0002
     20  C5         5.2930   32.4550   57.0720 C.ar    0  <0>0        0.0012
     21  C6         6.0420   33.5300   57.5070 C.ar    0  <0>0        0.0142
@<TRIPOS>BOND
     1    13     3    1
     2    12     3    1
     3    20    19   ar
     4    20    21   ar
     5    19    18   ar
     6    21    15   ar
     7     3     2    1
     8     3     4    1
     9     2     1    1
    10    18    16   ar
    11    15    16   ar
    12    15     1    1
    13    16    17    1
    14     1     6    1
    15     4    14    1
    16     4     5    1
    17    11    10    1
    18    11     5    1
    19    10     9    1
    20     6     5    1
    21     5     7    1
    22     9     8    1
    23     7     8    1

@<TRIPOS>MOLECULE
ZINC01514756_replica-1.pdb
 21 23 0 0 0
SMALL
GASTEIGER

@<TRIPOS>ATOM
      1  C1        -2.5540   29.0800   56.6190 C.3     0  <0>0        0.0197
      2  C2        -1.3460   29.9380   56.3440 C.3     0  <0>0        0.1078
      3  C3        -0.3050   29.7260   55.4860 C.2     0  <0>0        0.1241
      4  N1         0.6680   30.6310   55.4050 N.2     0  <0>0       -0.3843
      5  C4         0.6430   31.7270   56.1420 C.2     0  <0>0        0.2106
      6  S1        -0.8830   31.5140   57.0480 S.3     0  <0>0       -0.0608
      7  C9        -0.2600   28.5010   54.6500 C.ar    0  <0>0        0.0605
      8  C14        0.4480   27.3770   55.0890 C.ar    0  <0>0        0.1358
      9  C13        0.4840   26.2380   54.3020 C.ar    0  <0>0        0.0372
     10  C12       -0.1760   26.2130   53.0880 C.ar    0  <0>0        0.0098
     11  C11       -0.8770   27.3240   52.6510 C.ar    0  <0>0        0.0348
     12  C10       -0.9260   28.4640   53.4270 C.ar    0  <0>0        0.0120
     13 Br         -1.7750   27.2770   50.9870 Br      0  <0>0       -0.0490
     14  O2         1.0970   27.4030   56.2830 O.3     0  <0>0       -0.5054
     15  H15        2.0550   27.2980   56.2110 H       0  <0>0        0.2922
     16  N2         1.5540   32.7690   56.1940 N.pl3   0  <0>0       -0.2736
     17  C8         0.9970   33.9200   56.9200 C.3     0  <0>0        0.1257
     18  C7         2.0120   35.0670   56.9010 C.3     0  <0>0        0.1637
     19  O1         3.2450   34.6140   57.4670 O.3     0  <0>0       -0.3501
     20  C6         3.8150   33.4950   56.7850 C.3     0  <0>0        0.1637
     21  C5         2.8190   32.3320   56.8020 C.3     0  <0>0        0.1257
@<TRIPOS>BOND
     1    13    11    1
     2    11    10   ar
     3    11    12   ar
     4    10     9   ar
     5    12     7   ar
     6     9     8   ar
     7     7     8   ar
     8     7     3    1
     9     8    14    1
    10     4     3    2
    11     4     5    2
    12     3     2    1
    13     5    16    1
    14     5     6    1
    15    16    21    1
    16    16    17    1
    17    15    14    1
    18     2     1    1
    19     2     6    1
    20    20    21    1
    21    20    19    1
    22    18    17    1
    23    18    19    1

@<TRIPOS>MOLECULE
ZINC61413330_replica-1.pdb
 18 20 0 0 0
SMALL
GASTEIGER

@<TRIPOS>ATOM
      1  C1        10.6600   34.7510   60.1490 C.ar    0  <0>0        0.0048
      2  C2         9.8870   34.8940   59.0430 C.ar    0  <0>0        0.0207
      3  C3         9.1290   36.0660   58.8590 C.ar    0  <0>0        0.0989
      4  C4         9.1770   37.0930   59.8360 C.ar    0  <0>0        0.0990
      5  C5         9.9840   36.9270   60.9730 C.ar    0  <0>0        0.0238
      6  C6        10.7180   35.7620   61.1240 C.ar    0  <0>0        0.0411
      7  N1         8.4560   38.2060   59.6610 N.ar    0  <0>0       -0.2407
      8  C12        7.7100   38.3350   58.5880 C.ar    0  <0>0        0.1195
      9  C13        7.6620   37.3240   57.6250 C.ar    0  <0>0        0.1195
     10  N2         8.3620   36.2220   57.7740 N.ar    0  <0>0       -0.2407
     11  C7        11.5680   35.5820   62.3220 C.2     0  <0>0        0.2016
     12  O1        11.7730   36.5200   63.0680 O.2     0  <0>0       -0.2860
     13  C8        12.1630   34.2760   62.6060 C.ar    0  <0>0        0.0688
     14  S1        11.3560   32.7200   62.9320 S.2     0  <0>0       -0.0769
     15  C11       12.7150   31.7560   63.1490 C.ar    0  <0>0        0.0639
     16  C10       13.7600   32.6100   62.9830 C.ar    0  <0>0        0.0138
     17 Br         12.7760   29.9070   63.5420 Br      0  <0>0       -0.0419
     18  C9        13.5060   33.9280   62.7000 C.ar    0  <0>0        0.0107
@<TRIPOS>BOND
     1     9    10   ar
     2     9     8   ar
     3    10     3   ar
     4     8     7   ar
     5     3     2   ar
     6     3     4   ar
     7     2     1   ar
     8     7     4   ar
     9     4     5   ar
    10     1     6   ar
    11     5     6   ar
    12     6    11    1
    13    11    13    1
    14    11    12    2
    15    13    18   ar
    16    13    14   ar
    17    18    16   ar
    18    14    15   ar
    19    16    15   ar
    20    15    17    1

@<TRIPOS>MOLECULE
ZINC45629132_replica-1.pdb
 21 22 0 0 0
SMALL
GASTEIGER

@<TRIPOS>ATOM
      1  C1         8.8710   37.0570   61.9570 C.3     0  <0>0       -0.0189
      2  C2        10.0920   36.7410   61.0910 C.3     0  <0>0       -0.0385
      3  C3        10.8160   35.5480   61.6600 C.ar    0  <0>0       -0.0420
      4  C8        10.4070   34.2700   61.3290 C.ar    0  <0>0       -0.0050
      5  C7        11.0720   33.1750   61.8460 C.ar    0  <0>0        0.0141
      6  C6        12.1460   33.3590   62.7070 C.ar    0  <0>0        0.0479
      7  C5        12.5510   34.6440   63.0420 C.ar    0  <0>0        0.0141
      8  C4        11.8850   35.7350   62.5180 C.ar    0  <0>0       -0.0050
      9  N1        12.8180   32.2530   63.2330 N.pl3   0  <0>0       -0.3041
     10  C9        12.0770   31.0280   63.5450 C.3     0  <0>0        0.1122
     11  C10       14.2610   32.3170   63.4740 C.3     0  <0>0        0.1122
     12  N2         9.6580   36.4410   59.7200 N.4     0  <0>0        0.3876
     13  H16       10.4600   36.4280   59.1090 H       0  <0>0       -0.0839
     14  H27        9.2040   35.5400   59.7010 H       0  <0>0       -0.0839
     15  C11        8.7150   37.4750   59.2690 C.3     0  <0>0       -0.0808
     16  C12        8.0720   37.0370   57.9520 C.3     0  <0>0       -0.0166
     17  C17        8.7240   35.7410   57.4660 C.3     0  <0>0        0.0236
     18  C16        8.2990   35.4460   56.0560 C.2     0  <0>0       -0.0308
     19  C15        7.7640   36.3170   55.2620 C.2     0  <0>0       -0.0307
     20  C14        7.4870   37.7430   55.6400 C.3     0  <0>0        0.0256
     21  C13        8.2880   38.1220   56.8880 C.3     0  <0>0        0.0029
@<TRIPOS>BOND
     1    19    20    1
     2    19    18    2
     3    20    21    1
     4    18    17    1
     5    21    16    1
     6    17    16    1
     7    16    15    1
     8    13    12    1
     9    15    12    1
    10    14    12    1
    11    12     2    1
    12     2     3    1
    13     2     1    1
    14     4     3   ar
    15     4     5   ar
    16     3     8   ar
    17     5     6   ar
    18     8     7   ar
    19     6     7   ar
    20     6     9    1
    21     9    11    1
    22     9    10    1

@<TRIPOS>MOLECULE
ZINC20593596_replica-1.pdb
 21 22 0 0 0
SMALL
GASTEIGER

@<TRIPOS>ATOM
      1  O1         8.7100   35.1890   57.4260 O.3     0  <0>0       -0.4759
      2  C6         9.1840   35.6640   58.6070 C.ar    0  <0>0        0.1342
      3  C5         8.8010   36.9200   59.0540 C.ar    0  <0>0        0.0114
      4  C4         9.2800   37.3990   60.2590 C.ar    0  <0>0       -0.0016
      5  C3        10.1520   36.6340   61.0120 C.ar    0  <0>0       -0.0044
      6  C2        10.5390   35.3840   60.5650 C.ar    0  <0>0       -0.0189
      7  C1        11.4890   34.5520   61.3870 C.3     0  <0>0        0.0311
      8  C7        10.0590   34.8970   59.3650 C.ar    0  <0>0        0.0323
      9  C15        7.8560   37.7580   58.2320 C.3     0  <0>0        0.0253
     10  C16        7.0370   38.6600   59.1560 C.3     0  <0>0        0.0048
     11  C17        8.6580   38.6210   57.2560 C.3     0  <0>0        0.0048
     12  C8         8.0230   33.9360   57.4600 C.3     0  <0>0        0.2033
     13  C9         6.7270   34.0860   58.2580 C.3     0  <0>0        0.0260
     14  C10        5.5830   34.4530   57.3100 C.3     0  <0>0       -0.0582
     15  N1         6.1370   34.8850   56.0200 N.4     0  <0>0        0.3852
     16  C14        5.0690   35.2070   55.0640 C.3     0  <0>0       -0.0816
     17  H20        6.7570   35.7810   56.1690 H       0  <0>0       -0.0844
     18  H28        6.7550   34.0790   55.5970 H       0  <0>0       -0.0844
     19  C13        4.2310   36.3660   55.6070 C.3     0  <0>0       -0.0234
     20  C12        3.6290   35.9680   56.9580 C.3     0  <0>0       -0.0043
     21  C11        4.7600   35.5890   57.9190 C.3     0  <0>0       -0.0213
@<TRIPOS>BOND
     1    16    19    1
     2    16    15    1
     3    18    15    1
     4    19    20    1
     5    15    17    1
     6    15    14    1
     7    20    21    1
     8    11     9    1
     9    14    21    1
    10    14    13    1
    11     1    12    1
    12     1     2    1
    13    12    13    1
    14     9     3    1
    15     9    10    1
    16     2     3   ar
    17     2     8   ar
    18     3     4   ar
    19     8     6   ar
    20     4     5   ar
    21     6     5   ar
    22     6     7    1

@<TRIPOS>MOLECULE
ZINC32154922_replica-1.pdb
 22 23 0 0 0
SMALL
GASTEIGER

@<TRIPOS>ATOM
      1  C8         0.5440   31.4840   55.8470 C.2     0  <0>0        0.2425
      2  O1        -0.6020   31.8350   56.0300 O.2     0  <0>0       -0.2733
      3  N2         0.8050   30.4220   55.0580 N.am    0  <0>0       -0.3026
      4  H8         1.8450   30.1030   54.8920 H       0  <0>0        0.1495
      5  C7         1.6760   32.2320   56.5020 C.3     0  <0>0        0.1736
      6  N1         2.4590   32.9270   55.4760 N.pl3   0  <0>0       -0.3253
      7  H5         2.2670   32.7310   54.4110 H       0  <0>0        0.1473
      8  C6         3.4480   33.8410   55.8520 C.ar    0  <0>0        0.0450
      9  C1         4.7020   33.3870   56.2400 C.ar    0  <0>0        0.0152
     10  C2         5.6790   34.2930   56.6040 C.ar    0  <0>0        0.0127
     11  C3         5.4070   35.6490   56.5930 C.ar    0  <0>0        0.0578
     12  C4         4.1560   36.1040   56.2120 C.ar    0  <0>0        0.0127
     13 Cl          6.6350   36.7830   57.0590 Cl      0  <0>0       -0.0822
     14  C5         3.1770   35.2030   55.8420 C.ar    0  <0>0        0.0152
     15  C9        -0.2950   29.6950   54.4200 C.3     0  <0>0        0.0938
     16  C10       -0.0820   28.1900   54.5980 C.3     0  <0>0        0.0429
     17  C11       -0.5040   27.4710   53.3420 C.2     0  <0>0       -0.0468
     18  C16       -1.4050   28.1970   52.3860 C.3     0  <0>0        0.0218
     19  C15       -1.3770   27.5110   51.0160 C.3     0  <0>0        0.0047
     20  C14       -1.6090   26.0100   51.2230 C.3     0  <0>0        0.0050
     21  C13       -0.3980   25.4280   51.9570 C.3     0  <0>0        0.0254
     22  C12       -0.0720   26.2660   53.1590 C.2     0  <0>0       -0.0346
@<TRIPOS>BOND
     1    19    20    1
     2    19    18    1
     3    20    21    1
     4    21    22    1
     5    18    17    1
     6    22    17    2
     7    17    16    1
     8     7     6    1
     9    15    16    1
    10    15     3    1
    11     4     3    1
    12     3     1   am
    13     6     8    1
    14     6     5    1
    15    14     8   ar
    16    14    12   ar
    17     1     2    2
    18     1     5    1
    19     8     9   ar
    20    12    11   ar
    21     9    10   ar
    22    11    10   ar
    23    11    13    1

@<TRIPOS>MOLECULE
ZINC32620363_replica-1.pdb
 24 27 0 0 0
SMALL
GASTEIGER

@<TRIPOS>ATOM
      1  C7         7.8380   35.9130   58.7710 C.2     0  <0>0        0.1973
      2  N1         8.1030   36.2390   57.5240 N.2     0  <0>0       -0.3464
      3  C8         7.1190   36.3190   56.6180 C.1     0  <0>0        0.0383
      4  S1         7.4770   36.7430   54.9990 S.2     0  <0>0        0.0238
      5  C9         5.7750   36.0510   57.0040 C.2     0  <0>0        0.0503
      6  C10        5.5230   35.7110   58.2790 C.2     0  <0>0        0.0366
      7  N2         6.5650   35.6470   59.1690 N.pl3   0  <0>0       -0.2610
      8  C16        4.1420   35.3940   58.7850 C.3     0  <0>0        0.0418
      9  C17        3.0810   35.9280   57.8230 C.3     0  <0>0        0.0064
     10  C18        3.4290   35.4520   56.4080 C.3     0  <0>0        0.0058
     11  C19        4.7000   36.1710   55.9590 C.3     0  <0>0        0.0375
     12  C6         8.9390   35.8330   59.7520 C.ar    0  <0>0        0.0453
     13  C1         9.1060   36.8430   60.7030 C.ar    0  <0>0        0.0062
     14  C2        10.1330   36.7610   61.6190 C.ar    0  <0>0        0.0298
     15  C3        11.0030   35.6820   61.5920 C.ar    0  <0>0        0.1401
     16  C4        10.8450   34.6790   60.6490 C.ar    0  <0>0        0.0298
     17  F1        12.0110   35.6090   62.4900 F       0  <0>0       -0.2042
     18  C5         9.8190   34.7490   59.7310 C.ar    0  <0>0        0.0062
     19  C11        6.3040   35.2850   60.5640 C.3     0  <0>0        0.1274
     20  C12        6.0970   33.7960   60.6670 C.ar    0  <0>0        0.0388
     21  C15        5.1660   33.1640   61.4050 C.ar    0  <0>0        0.1771
     22  O1         5.3090   31.8410   61.2260 O.2     0  <0>0       -0.4476
     23  C14        6.3230   31.6100   60.3770 C.ar    0  <0>0        0.1795
     24  C13        6.8380   32.7940   59.9990 C.ar    0  <0>0        0.0412
@<TRIPOS>BOND
     1     4     3    2
     2    11    10    1
     3    11     5    1
     4    10     9    1
     5     3     5    1
     6     3     2    2
     7     5     6    2
     8     2     1    2
     9     9     8    1
    10     6     8    1
    11     6     7    1
    12     1     7    1
    13     1    12    1
    14     7    19    1
    15    18    12   ar
    16    18    16   ar
    17    12    13   ar
    18    24    23   ar
    19    24    20   ar
    20    23    22   ar
    21    19    20    1
    22    16    15   ar
    23    20    21   ar
    24    13    14   ar
    25    22    21   ar
    26    15    14   ar
    27    15    17    1

@<TRIPOS>MOLECULE
ZINC57768695_replica-1.pdb
 21 22 0 0 0
SMALL
GASTEIGER

@<TRIPOS>ATOM
      1  C7         0.1830   28.6420   56.9080 C.3     0  <0>0        0.0941
      2  C8         1.0820   27.8600   57.8690 C.3     0  <0>0        0.0262
      3  N1         0.7910   29.9430   56.6210 N.am    0  <0>0       -0.3022
      4  C6         0.0760   31.0730   56.7860 C.2     0  <0>0        0.2222
      5  O1        -1.0970   31.0090   57.0890 O.2     0  <0>0       -0.2751
      6  H13        1.7110   29.9910   56.3120 H       0  <0>0        0.1497
      7  C3         0.7320   32.4160   56.5930 C.3     0  <0>0        0.0765
      8  C2         0.2390   33.3840   57.6710 C.3     0  <0>0        0.0091
      9  C1         0.9320   33.0650   58.9970 C.3     0  <0>0        0.0005
     10  C4         2.2500   32.2610   56.7010 C.3     0  <0>0        0.0091
     11  C5         2.9340   33.3900   55.9270 C.3     0  <0>0        0.0005
     12  C9         0.0240   27.8670   55.6260 C.ar    0  <0>0       -0.0048
     13  C14       -0.6990   28.4010   54.5800 C.ar    0  <0>0       -0.0073
     14  C13       -0.8470   27.6960   53.3920 C.ar    0  <0>0       -0.0264
     15  C12       -0.2710   26.4520   53.2600 C.ar    0  <0>0       -0.0262
     16  C15       -1.6560   28.3340   52.2930 C.3     0  <0>0        0.0260
     17  C11        0.4510   25.9130   54.3180 C.ar    0  <0>0       -0.0048
     18  C18       -0.3850   25.6340   52.0000 C.3     0  <0>0        0.0260
     19  C10        0.5980   26.6160   55.4960 C.ar    0  <0>0       -0.0030
     20  C17       -1.5350   26.1430   51.1340 C.3     0  <0>0        0.0050
     21  C16       -1.3730   27.6570   50.9540 C.3     0  <0>0        0.0050
@<TRIPOS>BOND
     1    21    20    1
     2    21    16    1
     3    20    18    1
     4    18    15    1
     5    16    14    1
     6    15    14   ar
     7    15    17   ar
     8    14    13   ar
     9    17    19   ar
    10    13    12   ar
    11    19    12   ar
    12    12     1    1
    13    11    10    1
    14     6     3    1
    15     7    10    1
    16     7     4    1
    17     7     8    1
    18     3     4   am
    19     3     1    1
    20     4     5    2
    21     1     2    1
    22     8     9    1

@<TRIPOS>MOLECULE
ZINC18203366_replica-1.pdb
 21 23 0 0 0
SMALL
GASTEIGER

@<TRIPOS>ATOM
      1  C1        -1.2190   25.7460   51.3520 C.2     0  <0>0       -0.0036
      2  C2        -1.8770   26.8680   50.8620 C.2     0  <0>0        0.0020
      3  C3        -1.7890   28.0700   51.5040 C.2     0  <0>0        0.0284
      4  C4        -1.0280   28.1790   52.6710 C.2     0  <0>0        0.1236
      5  C5        -0.3610   27.0350   53.1660 C.3     0  <0>0        0.1509
      6  C6        -0.4670   25.8200   52.4910 C.2     0  <0>0       -0.0103
      7  C7         0.4330   27.1730   54.3950 C.2     0  <0>0        0.2387
      8  O1         1.0310   26.2250   54.8710 O.2     0  <0>0       -0.2739
      9  N1         0.4760   28.3930   54.9780 N.am    0  <0>0       -0.2539
     10  H1         0.9900   28.5220   55.7900 H       0  <0>0        0.1577
     11  C8        -0.2010   29.4460   54.4300 C.2     0  <0>0        0.2129
     12  N2        -0.9140   29.3450   53.3360 N.2     0  <0>0       -0.3843
     13  S1        -0.1100   31.0130   55.2330 S.3     0  <0>0       -0.0621
     14  C9        -1.6660   31.1220   56.1570 C.3     0  <0>0        0.0921
     15  C10       -1.9040   29.8290   56.8960 C.ar    0  <0>0       -0.0108
     16  C15       -2.8800   28.9530   56.4590 C.ar    0  <0>0       -0.0025
     17  C14       -3.0940   27.7660   57.1330 C.ar    0  <0>0        0.0111
     18  C13       -2.3400   27.4600   58.2520 C.ar    0  <0>0        0.0577
     19  C12       -1.3680   28.3400   58.6920 C.ar    0  <0>0        0.0111
     20 Cl         -2.6140   25.9710   59.1030 Cl      0  <0>0       -0.0822
     21  C11       -1.1500   29.5250   58.0140 C.ar    0  <0>0       -0.0025
@<TRIPOS>BOND
     1     2     1    1
     2     2     3    2
     3     1     6    2
     4     3     4    1
     5     6     5    1
     6     4     5    1
     7     4    12    2
     8     5     7    1
     9    12    11    2
    10     7     8    2
    11     7     9   am
    12    11     9    1
    13    11    13    1
    14     9    10    1
    15    13    14    1
    16    14    15    1
    17    16    15   ar
    18    16    17   ar
    19    15    21   ar
    20    17    18   ar
    21    21    19   ar
    22    18    19   ar
    23    18    20    1

@<TRIPOS>MOLECULE
ZINC61840680_replica-1.pdb
 18 18 0 0 0
SMALL
GASTEIGER

@<TRIPOS>ATOM
      1  C6        -1.3800   29.2020   55.2970 C.3     0  <0>0        0.0987
      2  C5        -0.7780   29.2650   56.7030 C.3     0  <0>0        0.0220
      3  C2        -1.5050   28.2740   57.6140 C.3     0  <0>0        0.0017
      4  C1        -2.9670   28.1590   57.1790 C.3     0  <0>0        0.0001
      5  C3        -1.4400   28.7690   59.0600 C.3     0  <0>0        0.0001
      6  C4        -0.8330   26.9030   57.5140 C.3     0  <0>0        0.0001
      7  C7        -1.8640   30.5940   54.8870 C.3     0  <0>0        0.1565
      8  O1        -2.1030   31.3800   56.0560 O.3     0  <0>0       -0.3802
      9  H15       -2.9020   31.1320   56.5400 H       0  <0>0        0.2105
     10  N1        -0.3610   28.7410   54.3510 N.pl3   0  <0>0       -0.3316
     11  H16        0.5660   29.0000   54.4710 H       0  <0>0        0.1469
     12  C8        -0.7250   27.9280   53.2740 C.ar    0  <0>0        0.0509
     13  C13       -0.3270   26.5960   53.2410 C.ar    0  <0>0        0.0476
     14  C12       -0.6930   25.7950   52.1760 C.ar    0  <0>0        0.0079
     15 Br          0.7060   25.8810   54.6530 Br      0  <0>0       -0.0477
     16  C11       -1.4440   26.3190   51.1400 C.ar    0  <0>0        0.0006
     17  C10       -1.8360   27.6450   51.1680 C.ar    0  <0>0        0.0013
     18  C9        -1.4790   28.4500   52.2320 C.ar    0  <0>0        0.0148
@<TRIPOS>BOND
     1    16    17   ar
     2    16    14   ar
     3    17    18   ar
     4    14    13   ar
     5    18    12   ar
     6    13    12   ar
     7    13    15    1
     8    12    10    1
     9    10    11    1
    10    10     1    1
    11     7     1    1
    12     7     8    1
    13     1     2    1
    14     8     9    1
    15     2     3    1
    16     4     3    1
    17     6     3    1
    18     3     5    1

@<TRIPOS>MOLECULE
ZINC21515934_replica-1.pdb
 21 22 0 0 0
SMALL
GASTEIGER

@<TRIPOS>ATOM
      1  C7        -0.2160   26.9700   53.4260 C.ar    0  <0>0        0.0566
      2  C8        -0.3730   26.1340   52.3270 C.ar    0  <0>0        0.0155
      3  C9        -1.1870   26.5200   51.2810 C.ar    0  <0>0        0.0013
      4  C10       -1.8450   27.7350   51.3260 C.ar    0  <0>0        0.0013
      5  C11       -1.6910   28.5690   52.4170 C.ar    0  <0>0        0.0142
      6  C12       -0.8820   28.1870   53.4710 C.ar    0  <0>0        0.0447
      7  N1         0.6070   26.5820   54.4870 N.pl3   0  <0>0       -0.3331
      8  H14        1.5310   26.8790   54.5160 H       0  <0>0        0.1468
      9  C2         0.0770   25.7300   55.5530 C.3     0  <0>0        0.0691
     10  C1         0.6760   24.3270   55.4290 C.3     0  <0>0        0.0212
     11  C3         0.4470   26.3240   56.9130 C.3     0  <0>0        0.0195
     12  C4        -0.3110   25.5830   58.0170 C.3     0  <0>0        0.0016
     13  C5         0.3990   25.7980   59.3560 C.3     0  <0>0        0.0001
     14  C6        -1.7400   26.1210   58.1050 C.3     0  <0>0        0.0001
     15  N2        -0.7310   29.0280   54.5770 N.pl3   0  <0>0       -0.3749
     16  C17       -0.6470   30.4210   54.1240 C.3     0  <0>0        0.0726
     17  C16       -0.4010   31.3380   55.3240 C.3     0  <0>0        0.0198
     18  C15       -1.5570   31.1920   56.3170 C.3     0  <0>0        0.0034
     19  C14       -1.6820   29.7210   56.7270 C.3     0  <0>0        0.0198
     20  C13       -1.8820   28.8640   55.4750 C.3     0  <0>0        0.0726
     21  H29        0.1150   28.7840   55.0710 H       0  <0>0        0.1277
@<TRIPOS>BOND
     1     3     4   ar
     2     3     2   ar
     3     4     5   ar
     4     2     1   ar
     5     5     6   ar
     6     1     6   ar
     7     1     7    1
     8     6    15    1
     9    16    15    1
    10    16    17    1
    11     7     8    1
    12     7     9    1
    13    15    21    1
    14    15    20    1
    15    17    18    1
    16    10     9    1
    17    20    19    1
    18     9    11    1
    19    18    19    1
    20    11    12    1
    21    12    14    1
    22    12    13    1

@<TRIPOS>MOLECULE
ZINC54598019_replica-1.pdb
 22 24 0 0 0
SMALL
GASTEIGER

@<TRIPOS>ATOM
      1  C6        -1.2610   30.8310   55.8240 C.3     0  <0>0       -0.0173
      2  C7        -2.3370   29.8930   56.3760 C.3     0  <0>0        0.0022
      3  C8        -0.9500   29.3500   56.0320 C.3     0  <0>0        0.0166
      4  C9        -0.0250   28.9720   57.1940 C.3     0  <0>0        0.0043
      5  C10       -0.0810   27.4470   57.3550 C.3     0  <0>0        0.0050
      6  C11        0.5270   26.7930   56.1180 C.3     0  <0>0        0.0261
      7  C12       -0.1330   27.2840   54.8570 C.ar    0  <0>0       -0.0231
      8  C13       -0.8200   28.4800   54.8080 C.ar    0  <0>0       -0.0266
      9  C14       -1.4060   28.8990   53.6250 C.ar    0  <0>0       -0.0015
     10  C15       -1.3100   28.1220   52.4870 C.ar    0  <0>0        0.0366
     11  C16       -0.6250   26.9170   52.5330 C.ar    0  <0>0        0.1384
     12  C17       -0.0390   26.5010   53.7170 C.ar    0  <0>0        0.0323
     13  C5        -0.6290   31.8300   56.7960 C.3     0  <0>0       -0.0813
     14  N1         0.2440   32.7490   56.0530 N.4     0  <0>0        0.3838
     15  H11       -0.3190   33.4340   55.5720 H       0  <0>0       -0.0845
     16  H28        0.7860   32.2270   55.3810 H       0  <0>0       -0.0845
     17  C4         1.1490   33.4290   56.9890 C.3     0  <0>0       -0.0817
     18  C2         0.3930   34.5490   57.7070 C.3     0  <0>0       -0.0213
     19  C1         0.7070   34.5000   59.2030 C.3     0  <0>0       -0.0022
     20  C3         0.8260   35.9020   57.1380 C.3     0  <0>0       -0.0022
     21  O1        -0.5300   26.1450   51.4180 O.3     0  <0>0       -0.4714
     22  C18       -0.5080   24.7300   51.6070 C.3     0  <0>0        0.2525
@<TRIPOS>BOND
     1    21    22    1
     2    21    11    1
     3    10    11   ar
     4    10     9   ar
     5    11    12   ar
     6     9     8   ar
     7    12     7   ar
     8     8     7   ar
     9     8     3    1
    10     7     6    1
    11    16    14    1
    12    15    14    1
    13     1     3    1
    14     1     2    1
    15     1    13    1
    16     3     2    1
    17     3     4    1
    18    14    13    1
    19    14    17    1
    20     6     5    1
    21    17    18    1
    22    20    18    1
    23     4     5    1
    24    18    19    1

@<TRIPOS>MOLECULE
ZINC36573961_replica-1.pdb
 25 25 0 0 0
SMALL
GASTEIGER

@<TRIPOS>ATOM
      1  C6        -1.4050   29.2400   54.9360 C.3     0  <0>0        0.1742
      2  C5        -0.9960   28.6450   53.6140 C.2     0  <0>0       -0.0020
      3  C4        -1.8970   28.4170   52.6910 C.2     0  <0>0       -0.0286
      4  C3        -1.4880   27.8210   51.3690 C.3     0  <0>0        0.0258
      5  C2        -0.4790   26.6960   51.6070 C.3     0  <0>0        0.0047
      6  C1        -1.1650   25.3440   51.4020 C.3     0  <0>0        0.0004
      7  C7        -0.6740   30.5420   55.1490 C.2     0  <0>0        0.2448
      8  O1        -0.4580   31.2770   54.2090 O.2     0  <0>0       -0.2729
      9  N1        -0.2610   30.8880   56.3850 N.am    0  <0>0       -0.3044
     10  H11       -0.4350   30.3000   57.1360 H       0  <0>0        0.1494
     11  C8         0.4480   32.1530   56.5920 C.3     0  <0>0        0.0716
     12  C13       -0.1920   32.9130   57.7550 C.3     0  <0>0        0.0196
     13  C12        0.5490   34.2330   57.9710 C.3     0  <0>0        0.0017
     14  C11        2.0160   33.9470   58.2950 C.3     0  <0>0        0.0001
     15  C10        2.6570   33.1870   57.1330 C.3     0  <0>0        0.0017
     16  C9         1.9160   31.8670   56.9160 C.3     0  <0>0        0.0196
     17  N2        -1.0690   28.3100   56.0160 N.am    0  <0>0       -0.2697
     18  C17       -1.9870   28.0040   56.9540 C.2     0  <0>0        0.2262
     19  O2        -3.0940   28.4990   56.9030 O.2     0  <0>0       -0.2749
     20  C14        0.2670   27.7120   56.0780 C.3     0  <0>0        0.0941
     21  C15        0.3620   26.5700   55.0640 C.3     0  <0>0        0.0215
     22  C16        0.4710   25.2360   55.8060 C.3     0  <0>0        0.0018
     23  C18       -1.6420   27.0480   58.0660 C.3     0  <0>0        0.0853
     24  C19       -2.0500   27.6570   59.4090 C.3     0  <0>0        0.0096
     25  C20       -0.9310   28.5700   59.9150 C.3     0  <0>0        0.0005
@<TRIPOS>BOND
     1     4     5    1
     2     4     3    1
     3     6     5    1
     4     3     2    2
     5     2     1    1
     6     8     7    2
     7     1     7    1
     8     1    17    1
     9    21    22    1
    10    21    20    1
    11     7     9   am
    12    17    20    1
    13    17    18   am
    14     9    11    1
    15     9    10    1
    16    11    16    1
    17    11    12    1
    18    19    18    2
    19    16    15    1
    20    18    23    1
    21    15    14    1
    22    12    13    1
    23    13    14    1
    24    23    24    1
    25    24    25    1

@<TRIPOS>MOLECULE
ZINC17208107_replica-1.pdb
 22 25 0 0 0
SMALL
GASTEIGER

@<TRIPOS>ATOM
      1  C7         0.3290   29.3250   55.1450 C.3     0  <0>0        0.1397
      2  C8        -0.1510   28.6950   56.4330 C.3     0  <0>0        0.0317
      3  C9        -1.5630   28.1230   56.3230 C.3     0  <0>0        0.0028
      4  C10       -1.9310   27.4680   57.6590 C.3     0  <0>0        0.0001
      5  C11       -1.9290   28.5020   58.7830 C.3     0  <0>0        0.0000
      6  C12       -0.5280   29.1080   58.9460 C.3     0  <0>0        0.0003
      7  C13       -0.1130   29.6540   57.5920 C.3     0  <0>0        0.0073
      8  C14        0.1860   30.9030   57.4480 C.3     0  <0>0        0.0514
      9  C15        0.5060   31.7790   58.6450 C.3     0  <0>0        0.0048
     10  C16        1.9580   32.2520   58.4690 C.3     0  <0>0        0.0003
     11  C17        2.1280   32.9500   57.1210 C.3     0  <0>0        0.0050
     12  C18        1.8170   31.9940   55.9880 C.3     0  <0>0        0.0560
     13  C19        0.3650   31.5390   56.0940 C.3     0  <0>0        0.1836
     14  O1        -0.0540   30.6920   55.0490 O.3     0  <0>0       -0.3326
     15  C4        -0.2600   28.5680   53.9810 C.ar    0  <0>0        0.0046
     16  C3        -1.2270   29.1610   53.1910 C.ar    0  <0>0       -0.0019
     17  C2        -1.7670   28.4670   52.1240 C.ar    0  <0>0       -0.0002
     18  C1        -1.3400   27.1820   51.8470 C.ar    0  <0>0       -0.0000
     19  C6        -0.3720   26.5900   52.6370 C.ar    0  <0>0       -0.0002
     20  C5         0.1720   27.2850   53.7020 C.ar    0  <0>0       -0.0019
     21  O2        -0.4550   32.7080   56.0570 O.3     0  <0>0       -0.3635
     22  H24       -1.2540   32.6460   56.5990 H       0  <0>0        0.2128
@<TRIPOS>BOND
     1    18    17   ar
     2    18    19   ar
     3    17    16   ar
     4    19    20   ar
     5    16    15   ar
     6    20    15   ar
     7    15     1    1
     8    14     1    1
     9    14    13    1
    10     1     2    1
    11    12    13    1
    12    12    11    1
    13    21    13    1
    14    21    22    1
    15    13     8    1
    16     3     2    1
    17     3     4    1
    18     2     7    1
    19    11    10    1
    20     8     7    1
    21     8     9    1
    22     7     6    1
    23     4     5    1
    24    10     9    1
    25     5     6    1

@<TRIPOS>MOLECULE
ZINC03051874_replica-1.pdb
 18 20 0 0 0
SMALL
GASTEIGER

@<TRIPOS>ATOM
      1  C1         9.5420   37.2510   60.3630 C.ar    0  <0>0        0.0053
      2  C2         8.9600   38.1300   59.4760 C.ar    0  <0>0        0.0403
      3  C3         8.2440   37.6530   58.3870 C.ar    0  <0>0        0.1769
      4  C4         8.1100   36.2790   58.1860 C.ar    0  <0>0        0.1817
      5  C5         8.6960   35.3920   59.0680 C.ar    0  <0>0        0.0686
      6  C6         9.4120   35.8740   60.1680 C.ar    0  <0>0        0.0272
      7  I1         8.5040   33.3270   58.7640 I       0  <0>0       -0.0392
      8  O1         7.3670   36.0740   57.0580 O.3     0  <0>0       -0.4342
      9  C14        7.3960   37.3260   56.3480 C.3     0  <0>0        0.4294
     10  O2         7.5850   38.3050   57.3860 O.3     0  <0>0       -0.4346
     11  C7        10.0330   34.9310   61.1160 C.2     0  <0>0        0.0935
     12  N1        11.2410   35.1350   61.5340 N.2     0  <0>0       -0.2709
     13  C8        11.8580   34.1970   62.4760 C.3     0  <0>0        0.1033
     14  C13       11.1920   32.8260   62.3400 C.3     0  <0>0        0.0243
     15  C12       11.8370   31.8460   63.3220 C.3     0  <0>0        0.0020
     16  C11       13.3300   31.7210   63.0130 C.3     0  <0>0        0.0001
     17  C10       13.9960   33.0910   63.1470 C.3     0  <0>0        0.0020
     18  C9        13.3510   34.0710   62.1650 C.3     0  <0>0        0.0243
@<TRIPOS>BOND
     1     9     8    1
     2     9    10    1
     3     8     4    1
     4    10     3    1
     5     4     3   ar
     6     4     5   ar
     7     3     2   ar
     8     7     5    1
     9     5     6   ar
    10     2     1   ar
    11     6     1   ar
    12     6    11    1
    13    11    12    2
    14    12    13    1
    15    18    13    1
    16    18    17    1
    17    14    13    1
    18    14    15    1
    19    16    17    1
    20    16    15    1

@<TRIPOS>MOLECULE
ZINC51689643_replica-1.pdb
 28 29 0 0 0
SMALL
GASTEIGER

@<TRIPOS>ATOM
      1  C6         9.8290   35.1050   60.2880 C.3     0  <0>0        0.0963
      2  C7         9.8580   36.6170   60.5200 C.3     0  <0>0        0.0126
      3  C8         8.9950   37.3140   59.4660 C.3     0  <0>0        0.0221
      4  C9         7.5470   36.8310   59.5990 C.3     0  <0>0        0.0950
      5  N2         7.5280   35.3640   59.5220 N.am    0  <0>0       -0.2637
      6  C10        8.3910   34.5970   60.4300 C.3     0  <0>0        0.1040
      7  C11        6.7330   34.7330   58.6350 C.2     0  <0>0        0.3042
      8  O2         6.7960   33.5240   58.5140 O.2     0  <0>0       -0.2526
      9  N3         5.8690   35.4410   57.8810 N.am    0  <0>0       -0.2861
     10  H21        5.8630   36.4090   57.9310 H       0  <0>0        0.1512
     11  C5        10.7060   34.4240   61.3070 C.2     0  <0>0        0.2237
     12  N1        11.6520   35.1280   61.9600 N.am    0  <0>0       -0.3043
     13  H12       11.7670   36.0720   61.7750 H       0  <0>0        0.1494
     14  O1        10.5610   33.2420   61.5390 O.2     0  <0>0       -0.2751
     15  C4        12.5050   34.4660   62.9510 C.3     0  <0>0        0.0894
     16  C3        13.8370   34.0840   62.3020 C.3     0  <0>0        0.0212
     17  C2        14.4470   32.8970   63.0520 C.3     0  <0>0        0.0017
     18  C1        13.3910   31.8030   63.2200 C.3     0  <0>0        0.0001
     19  C12        4.9380   34.7470   56.9860 C.3     0  <0>0        0.1013
     20  C13        3.5350   34.8870   57.5160 C.ar    0  <0>0        0.0251
     21  S1         2.0750   33.9510   57.0920 S.2     0  <0>0       -0.0892
     22  C16        0.9220   34.7800   58.1740 C.ar    0  <0>0        0.0352
     23  C15        1.7120   35.7050   58.7700 C.ar    0  <0>0        0.0072
     24  C14        3.0520   35.7590   58.4340 C.ar    0  <0>0        0.0043
     25  C17        5.0200   35.3650   55.5880 C.3     0  <0>0        0.0210
     26  C18        4.6490   34.3100   54.5430 C.3     0  <0>0        0.0020
     27  C19        4.0470   36.5420   55.4920 C.3     0  <0>0        0.0020
     28  C20        6.4450   35.8580   55.3300 C.3     0  <0>0        0.0020
@<TRIPOS>BOND
     1    26    25    1
     2    28    25    1
     3    27    25    1
     4    25    19    1
     5    19    20    1
     6    19     9    1
     7    21    20   ar
     8    21    22   ar
     9    20    24   ar
    10     9    10    1
    11     9     7   am
    12    22    23   ar
    13    24    23   ar
    14     8     7    2
    15     7     5   am
    16     3     4    1
    17     3     2    1
    18     5     4    1
    19     5     6    1
    20     1     6    1
    21     1     2    1
    22     1    11    1
    23    11    14    2
    24    11    12   am
    25    13    12    1
    26    12    15    1
    27    16    15    1
    28    16    17    1
    29    17    18    1

@<TRIPOS>MOLECULE
ZINC66335528_replica-1.pdb
 23 23 0 0 0
SMALL
GASTEIGER

@<TRIPOS>ATOM
      1  C9        -1.1930   29.6400   56.2680 C.3     0  <0>0        0.0807
      2  C10       -2.3610   29.0460   57.0570 C.3     0  <0>0        0.0218
      3  C8        -1.3430   31.1610   56.2000 C.3     0  <0>0        0.1045
      4  C7        -0.1770   31.8130   56.8970 C.2     0  <0>0        0.2241
      5  N1         0.3020   32.9910   56.4510 N.am    0  <0>0       -0.3059
      6  H15       -0.1040   33.4180   55.6810 H       0  <0>0        0.1494
      7  O1         0.3310   31.2770   57.8600 O.2     0  <0>0       -0.2750
      8  C3         1.4370   33.6240   57.1280 C.3     0  <0>0        0.0715
      9  C2         2.6680   33.5690   56.2210 C.3     0  <0>0        0.0196
     10  C1         3.7040   32.6180   56.8250 C.3     0  <0>0        0.0017
     11  C4         1.0960   35.0830   57.4390 C.3     0  <0>0        0.0180
     12  C5         1.1530   35.3080   58.9510 C.3     0  <0>0        0.0017
     13  C6         2.1060   36.0010   56.7480 C.3     0  <0>0        0.0017
     14  N2        -1.1910   29.0900   54.9110 N.am    0  <0>0       -0.3055
     15  C11       -0.2840   28.1530   54.5640 C.2     0  <0>0        0.2219
     16  O2         0.5280   27.7680   55.3770 O.2     0  <0>0       -0.2751
     17  H21       -1.8410   29.3990   54.2610 H       0  <0>0        0.1494
     18  C12       -0.2820   27.5870   53.1680 C.3     0  <0>0        0.0765
     19  C17       -0.3490   26.0600   53.2370 C.3     0  <0>0        0.0091
     20  C16       -0.3470   25.4840   51.8190 C.3     0  <0>0        0.0005
     21  C15       -1.5600   26.0160   51.0510 C.3     0  <0>0        0.0000
     22  C14       -1.4930   27.5420   50.9830 C.3     0  <0>0        0.0005
     23  C13       -1.4950   28.1180   52.4000 C.3     0  <0>0        0.0091
@<TRIPOS>BOND
     1    22    21    1
     2    22    23    1
     3    21    20    1
     4    20    19    1
     5    23    18    1
     6    18    19    1
     7    18    15    1
     8    17    14    1
     9    15    14   am
    10    15    16    2
    11    14     1    1
    12     6     5    1
    13     3     1    1
    14     3     4    1
    15     9    10    1
    16     9     8    1
    17     1     2    1
    18     5     4   am
    19     5     8    1
    20    13    11    1
    21     4     7    2
    22     8    11    1
    23    11    12    1

@<TRIPOS>MOLECULE
ZINC66368286_replica-1.pdb
 22 22 0 0 0
SMALL
GASTEIGER

@<TRIPOS>ATOM
      1  N1         4.6120   35.3800   59.5380 N.am    0  <0>0       -0.2906
      2  C7         5.7280   35.3400   58.7820 C.2     0  <0>0        0.3007
      3  O1         5.6970   34.8360   57.6770 O.2     0  <0>0       -0.2528
      4  N2         6.8790   35.8610   59.2530 N.am    0  <0>0       -0.2903
      5  H16        4.6370   35.7830   60.4190 H       0  <0>0        0.1509
      6  H17        6.9040   36.2640   60.1360 H       0  <0>0        0.1509
      7  C8         8.0920   35.8190   58.4340 C.3     0  <0>0        0.0812
      8  C13        8.8390   37.1480   58.5590 C.3     0  <0>0        0.1130
      9  C12        9.2200   37.3830   60.0210 C.3     0  <0>0        0.0102
     10  C11       10.1220   36.2430   60.5020 C.3     0  <0>0        0.0004
     11  C10        9.3750   34.9140   60.3770 C.3     0  <0>0        0.0017
     12  C9         8.9930   34.6800   58.9140 C.3     0  <0>0        0.0199
     13  C14        7.9380   38.2870   58.0780 C.3     0  <0>0        0.3990
     14  F1         7.0860   37.8150   57.0740 F       0  <0>0       -0.1700
     15  F2         7.1770   38.7640   59.1500 F       0  <0>0       -0.1700
     16  F3         8.7290   39.3240   57.5700 F       0  <0>0       -0.1700
     17  C3         3.3620   34.8140   59.0250 C.3     0  <0>0        0.0730
     18  C2         2.4210   35.9470   58.6100 C.3     0  <0>0        0.0196
     19  C1         2.4270   36.0810   57.0860 C.3     0  <0>0        0.0017
     20  C4         2.6970   33.9740   60.1180 C.3     0  <0>0        0.0180
     21  C5         1.1880   34.2280   60.1090 C.3     0  <0>0        0.0017
     22  C6         2.9670   32.4910   59.8570 C.3     0  <0>0        0.0017
@<TRIPOS>BOND
     1    14    13    1
     2    19    18    1
     3    16    13    1
     4     3     2    2
     5    13     8    1
     6    13    15    1
     7     7     8    1
     8     7    12    1
     9     7     4    1
    10     8     9    1
    11    18    17    1
    12     2     4   am
    13     2     1   am
    14    12    11    1
    15    17     1    1
    16    17    20    1
    17     4     6    1
    18     1     5    1
    19    22    20    1
    20     9    10    1
    21    21    20    1
    22    11    10    1

@<TRIPOS>MOLECULE
ZINC05070399_replica-1.pdb
 22 24 0 0 0
SMALL
GASTEIGER

@<TRIPOS>ATOM
      1  N1         7.4080   35.5430   57.9440 N.am    0  <0>0       -0.3025
      2  C9         6.9390   36.1550   56.8370 C.2     0  <0>0        0.2460
      3  O1         7.4770   37.1660   56.4280 O.2     0  <0>0       -0.2701
      4  H16        6.9790   34.7370   58.2710 H       0  <0>0        0.1497
      5  C10        5.7780   35.5980   56.1250 C.ar    0  <0>0        0.0560
      6  C13        4.4880   35.4680   56.7830 C.ar    0  <0>0       -0.0153
      7  C12        3.5120   34.9300   56.0190 C.ar    0  <0>0        0.0035
      8  C14        4.2500   35.9210   58.2190 C.3     0  <0>0        0.0267
      9  S1         4.2850   34.6210   54.4550 S.2     0  <0>0       -0.0910
     10  C18        2.0930   34.6530   56.4050 C.3     0  <0>0        0.0326
     11  C11        5.8810   35.1850   54.8170 C.ar    0  <0>0        0.0393
     12  C17        1.4980   35.9020   57.0700 C.3     0  <0>0        0.0052
     13  C16        1.7640   35.8300   58.5700 C.3     0  <0>0        0.0007
     14  C15        3.1010   35.1260   58.8300 C.3     0  <0>0        0.0047
     15  C6         8.5640   36.0970   58.6530 C.3     0  <0>0        0.0718
     16  C5         8.0980   37.2020   59.6030 C.3     0  <0>0        0.0196
     17  C4         9.3050   37.7810   60.3440 C.3     0  <0>0        0.0017
     18  C3         9.9900   36.6720   61.1480 C.3     0  <0>0        0.0001
     19  C2        10.4560   35.5670   60.1970 C.3     0  <0>0        0.0016
     20  C1        11.1400   34.4590   61.0010 C.3     0  <0>0        0.0001
     21  C7         9.2480   34.9890   59.4560 C.3     0  <0>0        0.0180
     22  C8         8.2590   34.4080   60.4690 C.3     0  <0>0        0.0017
@<TRIPOS>BOND
     1     9    11   ar
     2     9     7   ar
     3    11     5   ar
     4     7    10    1
     5     7     6   ar
     6     5     6   ar
     7     5     2    1
     8    10    12    1
     9     3     2    2
    10     6     8    1
    11     2     1   am
    12    12    13    1
    13     1     4    1
    14     1    15    1
    15     8    14    1
    16    13    14    1
    17    15    21    1
    18    15    16    1
    19    21    19    1
    20    21    22    1
    21    16    17    1
    22    19    20    1
    23    19    18    1
    24    17    18    1

@<TRIPOS>MOLECULE
ZINC67589665_replica-1.pdb
 20 20 0 0 0
SMALL
GASTEIGER

@<TRIPOS>ATOM
      1  N1        10.5290   35.1170   61.1840 N.am    0  <0>0       -0.2904
      2  C8        10.5220   33.8730   61.7020 C.2     0  <0>0        0.3040
      3  O1         9.6240   33.1030   61.4210 O.2     0  <0>0       -0.2526
      4  N2        11.5100   33.4830   62.5310 N.am    0  <0>0       -0.2617
      5  C9        12.5370   34.4360   62.9720 C.3     0  <0>0        0.0951
      6  C10       13.9180   33.8510   62.6630 C.3     0  <0>0        0.0241
      7  C11       14.0340   32.4630   63.2990 C.3     0  <0>0        0.0331
      8  C12       12.9720   31.5360   62.7020 C.3     0  <0>0        0.1351
      9  C13       11.5760   32.0980   63.0160 C.3     0  <0>0        0.1243
     10  H17       11.2030   35.7560   61.4650 H       0  <0>0        0.1509
     11  C6         9.5190   35.5060   60.1970 C.3     0  <0>0        0.0731
     12  C7         9.9530   35.0320   58.8080 C.3     0  <0>0        0.0213
     13  C5         9.3690   37.0280   60.1920 C.3     0  <0>0        0.0196
     14  C4         7.8880   37.3960   60.3090 C.3     0  <0>0        0.0017
     15  C3         7.5500   38.4840   59.2900 C.3     0  <0>0        0.0001
     16  C2         7.5600   37.8850   57.8820 C.3     0  <0>0        0.0000
     17  C1         8.5640   38.6440   57.0110 C.3     0  <0>0        0.0000
     18  O2        13.1010   30.2340   63.2740 O.3     0  <0>0       -0.3545
     19  C14       11.9750   29.8280   64.0550 C.3     0  <0>0        0.1422
     20  C15       12.4630   29.1620   65.3440 C.3     0  <0>0        0.0346
@<TRIPOS>BOND
     1    17    16    1
     2    16    15    1
     3    12    11    1
     4    15    14    1
     5    13    11    1
     6    13    14    1
     7    11     1    1
     8     1    10    1
     9     1     2   am
    10     3     2    2
    11     2     4   am
    12     4     5    1
    13     4     9    1
    14     6     5    1
    15     6     7    1
    16     8     9    1
    17     8    18    1
    18     8     7    1
    19    18    19    1
    20    19    20    1

@<TRIPOS>MOLECULE
ZINC67589672_replica-1.pdb
 21 21 0 0 0
SMALL
GASTEIGER

@<TRIPOS>ATOM
      1  C3         0.7470   34.0400   58.8170 C.3     0  <0>0        0.1351
      2  C4         1.8720   34.7660   58.0750 C.3     0  <0>0        0.0331
      3  C5         1.9120   34.2940   56.6190 C.3     0  <0>0        0.0241
      4  C6         2.2010   32.7910   56.5820 C.3     0  <0>0        0.0951
      5  N1         1.2070   32.0970   57.4140 N.am    0  <0>0       -0.2617
      6  C7         1.0210   32.5330   58.8040 C.3     0  <0>0        0.1243
      7  C8         0.4770   31.0820   56.9090 C.2     0  <0>0        0.3040
      8  O2        -0.2760   30.4570   57.6310 O.2     0  <0>0       -0.2526
      9  N2         0.5840   30.7590   55.6040 N.am    0  <0>0       -0.2904
     10  H16        1.2370   31.2080   55.0460 H       0  <0>0        0.1509
     11  C9        -0.2880   29.7310   55.0310 C.3     0  <0>0        0.0731
     12  C10       -1.1630   30.3530   53.9420 C.3     0  <0>0        0.0213
     13  C11        0.5670   28.6180   54.4240 C.3     0  <0>0        0.0196
     14  C12       -0.2360   27.3150   54.3960 C.3     0  <0>0        0.0017
     15  C13        0.2590   26.4360   53.2450 C.3     0  <0>0        0.0001
     16  C14       -0.9020   26.1400   52.2940 C.3     0  <0>0        0.0000
     17  C15       -1.1600   27.3590   51.4070 C.3     0  <0>0        0.0000
     18  C16       -0.5490   24.9370   51.4170 C.3     0  <0>0        0.0000
     19  O1         0.6910   34.5030   60.1680 O.3     0  <0>0       -0.3545
     20  C2         0.6370   33.4550   61.1380 C.3     0  <0>0        0.1422
     21  C1        -0.4280   33.7850   62.1860 C.3     0  <0>0        0.0346
@<TRIPOS>BOND
     1    17    16    1
     2    18    16    1
     3    16    15    1
     4    15    14    1
     5    12    11    1
     6    14    13    1
     7    13    11    1
     8    11     9    1
     9    10     9    1
    10     9     7   am
    11     4     3    1
    12     4     5    1
    13     3     2    1
    14     7     5   am
    15     7     8    2
    16     5     6    1
    17     2     1    1
    18     6     1    1
    19     1    19    1
    20    19    20    1
    21    20    21    1

@<TRIPOS>MOLECULE
ZINC41623362_replica-1.pdb
 20 21 0 0 0
SMALL
GASTEIGER

@<TRIPOS>ATOM
      1  N1        11.9430   35.3440   62.5920 N.4     0  <0>0        0.3854
      2  H14       11.5180   35.9910   63.2390 H       0  <0>0       -0.0844
      3  H27       12.7600   35.7680   62.1790 H       0  <0>0       -0.0844
      4  C7        12.3330   34.1210   63.3060 C.3     0  <0>0       -0.0618
      5  C2        13.8590   34.0260   63.3580 C.3     0  <0>0       -0.0194
      6  C1        14.4170   33.9840   61.9340 C.3     0  <0>0       -0.0021
      7  C3        14.2650   32.7520   64.1020 C.3     0  <0>0       -0.0020
      8  C4        13.7030   31.5320   63.3690 C.3     0  <0>0       -0.0001
      9  C5        12.1770   31.6280   63.3180 C.3     0  <0>0       -0.0021
     10  C6        11.7700   32.9010   62.5750 C.3     0  <0>0       -0.0214
     11  C8        10.9800   35.0060   61.5340 C.3     0  <0>0       -0.0736
     12  C9        10.3560   36.2910   60.9840 C.3     0  <0>0        0.0423
     13  C10        9.5910   35.9780   59.7250 C.2     0  <0>0        0.1317
     14  S1         9.2440   34.4710   59.0590 S.3     0  <0>0       -0.0796
     15  C12        8.3350   35.0380   57.6300 C.3     0  <0>0        0.1184
     16  C11        8.3970   36.3820   57.8110 C.2     0  <0>0        0.0977
     17  N2         9.0400   36.8120   58.8780 N.2     0  <0>0       -0.4079
     18  C13        7.7610   37.3390   56.8360 C.3     0  <0>0        0.0491
     19  C14        8.5140   38.6710   56.8630 C.3     0  <0>0        0.0071
     20  C15        7.8240   36.7460   55.4260 C.3     0  <0>0        0.0071
@<TRIPOS>BOND
     1    20    18    1
     2    18    19    1
     3    18    16    1
     4    15    16    1
     5    15    14    1
     6    16    17    2
     7    17    13    2
     8    14    13    1
     9    13    12    1
    10    12    11    1
    11    11     1    1
    12     6     5    1
    13     3     1    1
    14    10     4    1
    15    10     9    1
    16     1     2    1
    17     1     4    1
    18     4     5    1
    19     9     8    1
    20     5     7    1
    21     8     7    1

@<TRIPOS>MOLECULE
ZINC50164498_replica-1.pdb
 18 18 0 0 0
SMALL
GASTEIGER

@<TRIPOS>ATOM
      1  N1        11.3830   34.4140   61.4790 N.am    0  <0>0       -0.3027
      2  C7        10.8450   35.6470   61.3870 C.2     0  <0>0        0.2424
      3  O1        11.0810   36.4780   62.2410 O.2     0  <0>0       -0.2705
      4  H14       11.1940   33.7510   60.7970 H       0  <0>0        0.1497
      5  C8         9.9670   35.9880   60.2430 C.2     0  <0>0        0.0426
      6  C12        9.8140   35.1060   59.1690 C.3     0  <0>0        0.1020
      7  C11        8.9820   35.4620   58.1230 C.2     0  <0>0        0.1714
      8  N2         8.3470   36.6180   58.1260 N.2     0  <0>0       -0.3831
      9 Cl          8.7760   34.3750   56.7850 Cl      0  <0>0       -0.0521
     10  C10        8.4680   37.4800   59.1170 C.2     0  <0>0        0.1892
     11  C9         9.2760   37.2020   60.2040 C.2     0  <0>0        0.0446
     12 Cl          7.6020   38.9830   59.0560 Cl      0  <0>0       -0.0480
     13  C4        12.2520   34.0760   62.6090 C.3     0  <0>0        0.0718
     14  C3        13.7150   34.1610   62.1710 C.3     0  <0>0        0.0196
     15  C2        14.5410   33.1390   62.9540 C.3     0  <0>0        0.0017
     16  C1        15.2850   33.8460   64.0890 C.3     0  <0>0        0.0001
     17  C5        11.9420   32.6540   63.0820 C.3     0  <0>0        0.0196
     18  C6        10.6030   32.2020   62.4970 C.3     0  <0>0        0.0017
@<TRIPOS>BOND
     1     9     7    1
     2     7     8    2
     3     7     6    1
     4     8    10    2
     5    12    10    1
     6    10    11    1
     7     6     5    1
     8    11     5    2
     9     5     2    1
    10     4     1    1
    11     2     1   am
    12     2     3    2
    13     1    13    1
    14    14    13    1
    15    14    15    1
    16    18    17    1
    17    13    17    1
    18    15    16    1

