@<TRIPOS>MOLECULE
CHEMBL262343_replica-1.pdb
 26 27 0 0 0
SMALL
GASTEIGER

@<TRIPOS>ATOM
       1  C1         12.9160   30.4680   63.4200  C.3       1 <0>        -0.1542
       2  C2         12.5160   31.8960   63.0420  C.3       1 <0>        -0.1255
       3  C3         13.7660   32.7780   62.9870  C.3       1 <0>        -0.1216
       4  C4         13.4350   34.0850   62.2640  C.3       1 <0>        -0.1205
       5  C5         11.9360   34.1360   61.9640  C.3       1 <0>        -0.1150
       6  C6         11.4460   35.5830   62.0570  C.3       1 <0>        -0.0751
       7  C7         10.5220   35.8750   60.9030  C.ar      1 <0>        -0.1044
       8  C8          9.8540   37.0840   60.8460  C.ar      1 <0>        -0.0855
       9  C9          9.0040   37.3590   59.7900  C.ar      1 <0>        -0.1782
      10  C10         8.8200   36.4200   58.7860  C.ar      1 <0>         0.0993
      11  C11         9.4930   35.2030   58.8460  C.ar      1 <0>         0.0776
      12  C12        10.3480   34.9370   59.9030  C.ar      1 <0>        -0.1079
      13  O1          9.3170   34.2790   57.8640  O.3       1 <0>        -0.4869
      14  O2          7.9850   36.6870   57.7480  O.3       1 <0>        -0.2458
      15  C13         6.6590   36.4400   57.9160  C.ar      1 <0>         0.0415
      16  C14         5.8760   36.0900   56.8240  C.ar      1 <0>        -0.1112
      17  C15         4.5290   35.8400   56.9930  C.ar      1 <0>        -0.1161
      18  C16         3.9580   35.9370   58.2570  C.ar      1 <0>         0.1668
      19  C17         4.7430   36.2860   59.3480  C.ar      1 <0>        -0.1423
      20  C18         6.0910   36.5310   59.1780  C.ar      1 <0>        -0.0963
      21  N1          2.5930   35.6830   58.4290  N.am      1 <0>        -0.6650
      22  C19         2.1810   34.4700   58.8450  C.2       1 <0>         0.4528
      23  O3          2.9860   33.5740   58.9960  O.2       1 <0>        -0.5234
      24  C20         0.7320   34.2280   59.1240  C.2       1 <0>         0.5000
      25  O4          0.3100   34.3040   60.2670  O.co2     1 <0>        -0.6364
      26  O5         -0.0280   33.9520   58.2100  O.co2     1 <0>        -0.6647
@<TRIPOS>BOND
     1     1     2 1
     2     2     3 1
     3     3     4 1
     4     4     5 1
     5     5     6 1
     6     6     7 1
     7     7    12 ar
     8     7     8 ar
     9     8     9 ar
    10     9    10 ar
    11    10    11 ar
    12    10    14 1
    13    11    12 ar
    14    11    13 1
    15    14    15 1
    16    15    20 ar
    17    15    16 ar
    18    16    17 ar
    19    17    18 ar
    20    18    19 ar
    21    18    21 1
    22    19    20 ar
    23    21    22 am
    24    22    23 2
    25    22    24 1
    26    24    25 2
    27    24    26 1

@<TRIPOS>MOLECULE
CHEMBL408149_replica-1.pdb
 28 30 0 0 0
SMALL
GASTEIGER

@<TRIPOS>ATOM
       1  C1         12.6000   30.1990   64.1870  C.3       1 <0>        -0.1553
       2  C2         12.8780   31.2630   63.1220  C.3       1 <0>        -0.1263
       3  C3         14.0590   32.1290   63.5640  C.3       1 <0>        -0.1208
       4  C4         13.9600   33.5020   62.8960  C.3       1 <0>        -0.1220
       5  C5         12.5190   33.7460   62.4410  C.3       1 <0>        -0.1134
       6  C6         12.2750   35.2500   62.3070  C.3       1 <0>        -0.0884
       7  C7         10.9950   35.4850   61.5480  C.ar      1 <0>        -0.0485
       8  C8         10.7450   34.7840   60.3820  C.ar      1 <0>        -0.1129
       9  C9          9.5720   34.9960   59.6820  C.ar      1 <0>        -0.1092
      10  C10         8.6430   35.9120   60.1480  C.ar      1 <0>         0.0393
      11  C11         8.8930   36.6170   61.3220  C.ar      1 <0>         0.1099
      12  C12        10.0690   36.3970   62.0220  C.ar      1 <0>        -0.1300
      13  O1          7.9850   37.5170   61.7830  O.3       1 <0>        -0.4858
      14  O2          7.4890   36.1220   59.4610  O.3       1 <0>        -0.2519
      15  C13         7.5600   36.7910   58.2800  C.ar      1 <0>         0.1210
      16  C14         8.2900   37.9680   58.1920  C.ar      1 <0>        -0.1974
      17  C15         8.3610   38.6460   56.9910  C.ar      1 <0>        -0.0710
      18  C16         7.7060   38.1540   55.8780  C.ar      1 <0>        -0.1456
      19  C17         6.9780   36.9820   55.9630  C.ar      1 <0>        -0.0607
      20  C18         6.9090   36.2960   57.1600  C.ar      1 <0>        -0.1166
      21  C19         6.1210   35.0140   57.2510  C.3       1 <0>         0.1058
      22  N1          4.6860   35.3140   57.1580  N.3       1 <0>        -0.5327
      23  C20         4.1130   35.5680   58.4870  C.3       1 <0>         0.0204
      24  C21         2.6350   35.9340   58.3410  C.3       1 <0>        -0.0052
      25  N2          1.9200   34.8320   57.6830  N.4       1 <0>        -0.3880
      26  C22         2.4870   34.6070   56.3470  C.3       1 <0>        -0.0013
      27  C23         3.9640   34.2300   56.4760  C.3       1 <0>         0.0235
      28  C24         0.4970   35.1770   57.5590  C.3       1 <0>        -0.0460
@<TRIPOS>BOND
     1     1     2 1
     2     2     3 1
     3     3     4 1
     4     4     5 1
     5     5     6 1
     6     6     7 1
     7     7    12 ar
     8     7     8 ar
     9     8     9 ar
    10     9    10 ar
    11    10    11 ar
    12    10    14 1
    13    11    12 ar
    14    11    13 1
    15    14    15 1
    16    15    20 ar
    17    15    16 ar
    18    16    17 ar
    19    17    18 ar
    20    18    19 ar
    21    19    20 ar
    22    20    21 1
    23    21    22 1
    24    22    27 1
    25    22    23 1
    26    23    24 1
    27    24    25 1
    28    25    26 1
    29    25    28 1
    30    26    27 1

@<TRIPOS>MOLECULE
CHEMBL405655_replica-1.pdb
 20 21 0 0 0
SMALL
GASTEIGER

@<TRIPOS>ATOM
       1  C1         12.8200   30.2670   63.6580  C.3       1 <0>        -0.1545
       2  C2         12.8300   31.6620   63.0330  C.3       1 <0>        -0.1261
       3  C3         14.1630   32.3490   63.3390  C.3       1 <0>        -0.1210
       4  C4         14.0740   33.8280   62.9540  C.3       1 <0>        -0.1215
       5  C5         12.8470   34.0510   62.0670  C.3       1 <0>        -0.1141
       6  C6         12.2360   35.4190   62.3770  C.3       1 <0>        -0.0790
       7  C7         10.9580   35.5880   61.5960  C.ar      1 <0>        -0.0933
       8  C8         10.7490   34.8460   60.4480  C.ar      1 <0>        -0.0857
       9  C9          9.5790   34.9960   59.7270  C.ar      1 <0>        -0.1770
      10  C10         8.6120   35.8920   60.1560  C.ar      1 <0>         0.0895
      11  C11         8.8220   36.6370   61.3120  C.ar      1 <0>         0.0875
      12  C12         9.9950   36.4780   62.0320  C.ar      1 <0>        -0.1053
      13  O1          7.8770   37.5180   61.7370  O.3       1 <0>        -0.4852
      14  O2          7.4610   36.0410   59.4490  O.3       1 <0>        -0.2450
      15  C13         7.5030   36.7800   58.3090  C.ar      1 <0>         0.0303
      16  C14         8.3420   37.8870   58.2160  C.ar      1 <0>        -0.0827
      17  C15         8.3490   38.6090   57.0340  C.ar      1 <0>        -0.1575
      18  C16         7.5290   38.2110   55.9940  C.ar      1 <0>         0.1014
      19  N1          6.7450   37.1580   56.1150  N.ar      1 <0>        -0.4663
      20  C17         6.7140   36.4390   57.2200  C.ar      1 <0>         0.1006
@<TRIPOS>BOND
     1     1     2 1
     2     2     3 1
     3     3     4 1
     4     4     5 1
     5     5     6 1
     6     6     7 1
     7     7    12 ar
     8     7     8 ar
     9     8     9 ar
    10     9    10 ar
    11    10    11 ar
    12    10    14 1
    13    11    12 ar
    14    11    13 1
    15    14    15 1
    16    15    20 ar
    17    15    16 ar
    18    16    17 ar
    19    17    18 ar
    20    18    19 ar
    21    19    20 ar

@<TRIPOS>MOLECULE
CHEMBL264176_replica-1.pdb
 24 25 0 0 0
SMALL
GASTEIGER

@<TRIPOS>ATOM
       1  C1         12.8110   30.3060   63.9890  C.3       1 <0>        -0.1546
       2  C2         12.7850   31.5140   63.0490  C.3       1 <0>        -0.1260
       3  C3         14.0380   32.3630   63.2740  C.3       1 <0>        -0.1212
       4  C4         13.8330   33.7470   62.6580  C.3       1 <0>        -0.1213
       5  C5         12.3520   33.9430   62.3250  C.3       1 <0>        -0.1140
       6  C6         12.0570   35.4350   62.1670  C.3       1 <0>        -0.0842
       7  C7         10.7740   35.6150   61.3980  C.ar      1 <0>        -0.0586
       8  C8         10.5580   34.8940   60.2390  C.ar      1 <0>        -0.1129
       9  C9          9.3820   35.0540   59.5290  C.ar      1 <0>        -0.1033
      10  C10         8.4160   35.9400   59.9800  C.ar      1 <0>         0.0513
      11  C11         8.6340   36.6660   61.1470  C.ar      1 <0>         0.1034
      12  C12         9.8120   36.4960   61.8560  C.ar      1 <0>        -0.1332
      13  O1          7.6890   37.5380   61.5940  O.3       1 <0>        -0.4884
      14  O2          7.2600   36.1000   59.2840  O.3       1 <0>        -0.2556
      15  C13         7.3230   36.7210   58.0760  C.ar      1 <0>         0.1038
      16  C14         7.9110   37.9710   57.9680  C.ar      1 <0>        -0.1699
      17  C15         7.9730   38.6020   56.7390  C.ar      1 <0>        -0.0955
      18  C16         7.4510   37.9880   55.6150  C.ar      1 <0>        -0.1326
      19  C17         6.8630   36.7410   55.7150  C.ar      1 <0>        -0.0884
      20  C18         6.8020   36.0990   56.9430  C.ar      1 <0>         0.1196
      21  N1          6.2120   34.8320   57.0450  N.am      1 <0>        -0.6660
      22  C19         6.9490   33.7260   56.8230  C.2       1 <0>         0.5105
      23  O3          8.1010   33.8280   56.4580  O.2       1 <0>        -0.5289
      24  C20         6.3410   32.3620   57.0280  C.3       1 <0>        -0.1715
@<TRIPOS>BOND
     1     1     2 1
     2     2     3 1
     3     3     4 1
     4     4     5 1
     5     5     6 1
     6     6     7 1
     7     7    12 ar
     8     7     8 ar
     9     8     9 ar
    10     9    10 ar
    11    10    11 ar
    12    10    14 1
    13    11    12 ar
    14    11    13 1
    15    14    15 1
    16    15    20 ar
    17    15    16 ar
    18    16    17 ar
    19    17    18 ar
    20    18    19 ar
    21    19    20 ar
    22    20    21 1
    23    21    22 am
    24    22    23 2
    25    22    24 1

@<TRIPOS>MOLECULE
CHEMBL264682_replica-1.pdb
 20 21 0 0 0
SMALL
GASTEIGER

@<TRIPOS>ATOM
       1  C1         12.3130   30.4430   63.8570  C.3       1 <0>        -0.1545
       2  C2         12.4860   31.7650   63.1070  C.3       1 <0>        -0.1260
       3  C3         13.9180   32.2720   63.2880  C.3       1 <0>        -0.1211
       4  C4         13.9610   33.7800   63.0380  C.3       1 <0>        -0.1213
       5  C5         12.9100   34.1540   61.9920  C.3       1 <0>        -0.1142
       6  C6         12.1810   35.4260   62.4330  C.3       1 <0>        -0.0782
       7  C7         10.9250   35.5930   61.6180  C.ar      1 <0>        -0.0962
       8  C8         10.7490   34.8560   60.4610  C.ar      1 <0>        -0.0866
       9  C9          9.5990   35.0060   59.7090  C.ar      1 <0>        -0.1772
      10  C10         8.6180   35.8960   60.1160  C.ar      1 <0>         0.0937
      11  C11         8.7940   36.6380   61.2800  C.ar      1 <0>         0.0836
      12  C12         9.9480   36.4780   62.0310  C.ar      1 <0>        -0.1062
      13  O1          7.8340   37.5130   61.6820  O.3       1 <0>        -0.4859
      14  O2          7.4860   36.0450   59.3770  O.3       1 <0>        -0.2514
      15  C13         7.5470   36.8240   58.2650  C.ar      1 <0>         0.0794
      16  C14         6.7410   36.5370   57.1710  C.ar      1 <0>        -0.1263
      17  C15         6.8050   37.3290   56.0420  C.ar      1 <0>        -0.1063
      18  C16         7.6700   38.4080   56.0000  C.ar      1 <0>        -0.1163
      19  C17         8.4720   38.6960   57.0890  C.ar      1 <0>        -0.1058
      20  C18         8.4090   37.9100   58.2230  C.ar      1 <0>        -0.1250
@<TRIPOS>BOND
     1     1     2 1
     2     2     3 1
     3     3     4 1
     4     4     5 1
     5     5     6 1
     6     6     7 1
     7     7    12 ar
     8     7     8 ar
     9     8     9 ar
    10     9    10 ar
    11    10    11 ar
    12    10    14 1
    13    11    12 ar
    14    11    13 1
    15    14    15 1
    16    15    20 ar
    17    15    16 ar
    18    16    17 ar
    19    17    18 ar
    20    18    19 ar
    21    19    20 ar

@<TRIPOS>MOLECULE
ZINC50005899_replica-1.pdb
 20 21 0 0 0
SMALL
GASTEIGER

@<TRIPOS>ATOM
       1  C1          0.7060   34.5170   60.0750  C.3       1 <0>        -0.1908
       2  C2          1.3750   33.5530   59.0920  C.3       1 <0>        -0.0105
       3  N1          0.3930   33.1170   58.0910  N.4       1 <0>        -0.5105
       4  C3          0.2230   31.6600   58.1750  C.3       1 <0>         0.0472
       5  C4         -0.3770   31.1490   56.8900  C.ar      1 <0>        -0.1394
       6  C5          0.1430   31.5560   55.6750  C.ar      1 <0>        -0.0949
       7  C6         -0.4030   31.0900   54.4960  C.ar      1 <0>        -0.0862
       8  C7         -1.4760   30.2100   54.5300  C.ar      1 <0>         0.1608
       9  C8         -1.9990   29.8020   55.7520  C.ar      1 <0>         0.1073
      10  C9         -1.4430   30.2680   56.9290  C.ar      1 <0>        -0.1260
      11  F1         -3.0430   28.9450   55.7900  F         1 <0>        -0.1167
      12  N2         -2.0330   29.7370   53.3360  N.pl3     1 <0>        -0.6023
      13  C10        -3.0500   30.5270   52.6390  C.3       1 <0>         0.0941
      14  C11        -1.6170   28.5130   52.8090  C.ar      1 <0>         0.1941
      15  C12        -2.0540   28.1100   51.5530  C.ar      1 <0>        -0.1807
      16  C13        -1.6390   26.8990   51.0360  C.ar      1 <0>        -0.0755
      17  C14        -0.7920   26.0860   51.7660  C.ar      1 <0>        -0.1245
      18  C15        -0.3560   26.4840   53.0160  C.ar      1 <0>        -0.0732
      19  C16        -0.7610   27.6960   53.5380  C.ar      1 <0>        -0.1750
      20  C17        -0.3430   24.7640   51.1970  C.3       1 <0>        -0.1134
@<TRIPOS>BOND
     1     1     2 1
     2     2     3 1
     3     3     4 1
     4     4     5 1
     5     5    10 ar
     6     5     6 ar
     7     6     7 ar
     8     7     8 ar
     9     8     9 ar
    10     8    12 1
    11     9    10 ar
    12     9    11 1
    13    12    13 1
    14    12    14 1
    15    14    19 ar
    16    14    15 ar
    17    15    16 ar
    18    16    17 ar
    19    17    18 ar
    20    17    20 1
    21    18    19 ar

@<TRIPOS>MOLECULE
CHEMBL407324_replica-1.pdb
 26 27 0 0 0
SMALL
GASTEIGER

@<TRIPOS>ATOM
       1  C1         12.6470   30.3360   64.2830  C.3       1 <0>        -0.1543
       2  C2         12.9490   31.3070   63.1400  C.3       1 <0>        -0.1254
       3  C3         14.1160   32.2140   63.5360  C.3       1 <0>        -0.1218
       4  C4         13.9710   33.5670   62.8360  C.3       1 <0>        -0.1201
       5  C5         12.4990   33.8130   62.5040  C.3       1 <0>        -0.1151
       6  C6         12.2630   35.3130   62.3110  C.3       1 <0>        -0.0798
       7  C7         10.9800   35.5260   61.5500  C.ar      1 <0>        -0.0684
       8  C8         10.7430   34.8210   60.3850  C.ar      1 <0>        -0.1147
       9  C9          9.5670   35.0120   59.6840  C.ar      1 <0>        -0.1062
      10  C10         8.6230   35.9140   60.1490  C.ar      1 <0>         0.0636
      11  C11         8.8620   36.6260   61.3210  C.ar      1 <0>         0.1034
      12  C12        10.0400   36.4240   62.0220  C.ar      1 <0>        -0.1347
      13  O1          7.9380   37.5110   61.7820  O.3       1 <0>        -0.4876
      14  O2          7.4670   36.1050   59.4590  O.3       1 <0>        -0.2542
      15  C13         7.5260   36.8050   58.2950  C.ar      1 <0>         0.0847
      16  C14         8.1570   38.0370   58.2570  C.ar      1 <0>        -0.1661
      17  C15         8.2160   38.7470   57.0720  C.ar      1 <0>        -0.1197
      18  C16         7.6460   38.2300   55.9220  C.ar      1 <0>        -0.1268
      19  C17         7.0140   37.0020   55.9510  C.ar      1 <0>        -0.1095
      20  C18         6.9560   36.2810   57.1360  C.ar      1 <0>         0.1468
      21  N1          6.3230   35.0340   57.1670  N.am      1 <0>        -0.6537
      22  C19         7.0150   33.9200   56.8530  C.2       1 <0>         0.4520
      23  O3          8.1550   34.0070   56.4480  O.2       1 <0>        -0.5258
      24  C20         6.3760   32.5760   57.0040  C.2       1 <0>         0.5000
      25  O4          5.2110   32.4910   57.3560  O.co2     1 <0>        -0.6391
      26  O5          7.0200   31.5650   56.7750  O.co2     1 <0>        -0.6654
@<TRIPOS>BOND
     1     1     2 1
     2     2     3 1
     3     3     4 1
     4     4     5 1
     5     5     6 1
     6     6     7 1
     7     7    12 ar
     8     7     8 ar
     9     8     9 ar
    10     9    10 ar
    11    10    11 ar
    12    10    14 1
    13    11    12 ar
    14    11    13 1
    15    14    15 1
    16    15    20 ar
    17    15    16 ar
    18    16    17 ar
    19    17    18 ar
    20    18    19 ar
    21    19    20 ar
    22    20    21 1
    23    21    22 am
    24    22    23 2
    25    22    24 1
    26    24    25 2
    27    24    26 1

@<TRIPOS>MOLECULE
CHEMBL264679_replica-1.pdb
 20 21 0 0 0
SMALL
GASTEIGER

@<TRIPOS>ATOM
       1  C1         12.8190   30.2530   63.8840  C.3       1 <0>        -0.1545
       2  C2         12.7520   31.5480   63.0720  C.3       1 <0>        -0.1260
       3  C3         14.0350   32.3530   63.2890  C.3       1 <0>        -0.1212
       4  C4         13.8030   33.8060   62.8690  C.3       1 <0>        -0.1211
       5  C5         12.3240   34.0110   62.5360  C.3       1 <0>        -0.1140
       6  C6         12.0570   35.4980   62.2940  C.3       1 <0>        -0.0828
       7  C7         10.7970   35.6570   61.4820  C.ar      1 <0>        -0.0587
       8  C8         10.6270   34.9250   60.3230  C.ar      1 <0>        -0.1143
       9  C9          9.4730   35.0680   59.5750  C.ar      1 <0>        -0.0975
      10  C10         8.4830   35.9450   59.9880  C.ar      1 <0>         0.0639
      11  C11         8.6550   36.6820   61.1570  C.ar      1 <0>         0.1160
      12  C12         9.8120   36.5300   61.9040  C.ar      1 <0>        -0.1344
      13  O1          7.6870   37.5450   61.5660  O.3       1 <0>        -0.4912
      14  O2          7.3470   36.0870   59.2540  O.3       1 <0>        -0.2459
      15  C13         7.4090   36.8350   58.1240  C.ar      1 <0>         0.3205
      16  C14         8.2540   37.9370   58.0740  C.ar      1 <0>        -0.1865
      17  C15         8.3090   38.6910   56.9170  C.ar      1 <0>        -0.0419
      18  C16         7.5130   38.3160   55.8430  C.ar      1 <0>        -0.2081
      19  C17         6.6960   37.2090   55.9620  C.ar      1 <0>         0.1389
      20  N1          6.6690   36.5060   57.0780  N.ar      1 <0>        -0.5246
@<TRIPOS>BOND
     1     1     2 1
     2     2     3 1
     3     3     4 1
     4     4     5 1
     5     5     6 1
     6     6     7 1
     7     7    12 ar
     8     7     8 ar
     9     8     9 ar
    10     9    10 ar
    11    10    11 ar
    12    10    14 1
    13    11    12 ar
    14    11    13 1
    15    14    15 1
    16    15    20 ar
    17    15    16 ar
    18    16    17 ar
    19    17    18 ar
    20    18    19 ar
    21    19    20 ar

@<TRIPOS>MOLECULE
CHEMBL404984_replica-1.pdb
 21 22 0 0 0
SMALL
GASTEIGER

@<TRIPOS>ATOM
       1  C1         12.7480   30.0990   63.8160  C.3       1 <0>        -0.1545
       2  C2         12.7830   31.4420   63.0840  C.3       1 <0>        -0.1260
       3  C3         14.0630   32.1940   63.4580  C.3       1 <0>        -0.1211
       4  C4         13.9090   33.6720   63.0960  C.3       1 <0>        -0.1213
       5  C5         12.4250   34.0040   62.9300  C.3       1 <0>        -0.1142
       6  C6         12.2780   35.4120   62.3490  C.3       1 <0>        -0.0779
       7  C7         10.9680   35.5180   61.6110  C.ar      1 <0>        -0.0971
       8  C8         10.6990   34.6630   60.5590  C.ar      1 <0>        -0.0872
       9  C9          9.4980   34.7560   59.8790  C.ar      1 <0>        -0.1755
      10  C10         8.5630   35.7080   60.2530  C.ar      1 <0>         0.0969
      11  C11         8.8350   36.5690   61.3110  C.ar      1 <0>         0.0827
      12  C12        10.0380   36.4670   61.9920  C.ar      1 <0>        -0.1068
      13  O1          7.9200   37.5050   61.6810  O.3       1 <0>        -0.4862
      14  O2          7.3810   35.8010   59.5850  O.3       1 <0>        -0.2526
      15  C13         7.3920   36.3570   58.3440  C.ar      1 <0>         0.1288
      16  C14         6.5860   35.8340   57.3420  C.ar      1 <0>        -0.1851
      17  C15         6.5960   36.3980   56.0810  C.ar      1 <0>        -0.0567
      18  C16         7.4060   37.4850   55.8140  C.ar      1 <0>        -0.1959
      19  C17         8.2140   38.0120   56.8130  C.ar      1 <0>         0.2300
      20  C18         8.2010   37.4500   58.0820  C.ar      1 <0>        -0.2063
      21  N1          9.0330   39.1110   56.5420  N.pl3     1 <0>        -0.8745
@<TRIPOS>BOND
     1     1     2 1
     2     2     3 1
     3     3     4 1
     4     4     5 1
     5     5     6 1
     6     6     7 1
     7     7    12 ar
     8     7     8 ar
     9     8     9 ar
    10     9    10 ar
    11    10    11 ar
    12    10    14 1
    13    11    12 ar
    14    11    13 1
    15    14    15 1
    16    15    20 ar
    17    15    16 ar
    18    16    17 ar
    19    17    18 ar
    20    18    19 ar
    21    19    20 ar
    22    19    21 1

@<TRIPOS>MOLECULE
ZINC37333972_replica-1.pdb
 21 22 0 0 0
SMALL
GASTEIGER

@<TRIPOS>ATOM
       1  C1         14.8120   33.0720   63.4340  C.3       1 <0>        -0.1181
       2  C2         13.4340   33.2040   62.8390  C.ar      1 <0>        -0.0961
       3  C3         13.1070   34.3240   62.0950  C.ar      1 <0>        -0.0916
       4  C4         11.8460   34.4490   61.5500  C.ar      1 <0>        -0.1466
       5  C5         10.9030   33.4470   61.7460  C.ar      1 <0>         0.1441
       6  C6         11.2340   32.3230   62.4920  C.ar      1 <0>        -0.1371
       7  C7         12.5000   32.2030   63.0310  C.ar      1 <0>        -0.0600
       8  C8         12.8620   30.9810   63.8360  C.3       1 <0>        -0.1201
       9  N1          9.6250   33.5700   61.1960  N.pl3     1 <0>        -0.6683
      10  C9          9.3380   34.6220   60.3320  C.ar      1 <0>         0.2811
      11  C10         9.5120   35.9360   60.7490  C.ar      1 <0>        -0.1912
      12  C11         9.2260   36.9770   59.8900  C.ar      1 <0>         0.0023
      13  C12         8.7640   36.7240   58.6090  C.ar      1 <0>        -0.2362
      14  C13         8.5850   35.4270   58.1770  C.ar      1 <0>         0.0277
      15  C14         8.8750   34.3620   59.0330  C.ar      1 <0>        -0.1004
      16  C15         8.6970   33.0120   58.5880  C.1       1 <0>         0.2495
      17  N2          8.5550   31.9420   58.2360  N.1       1 <0>        -0.4046
      18  C16         8.4570   37.8720   57.6830  C.3       1 <0>         0.5148
      19  F1          8.9540   37.5870   56.4060  F         1 <0>        -0.1760
      20  F2          7.0720   38.0580   57.6140  F         1 <0>        -0.1761
      21  F3          9.0600   39.0370   58.1690  F         1 <0>        -0.1761
@<TRIPOS>BOND
     1     1     2 1
     2     2     7 ar
     3     2     3 ar
     4     3     4 ar
     5     4     5 ar
     6     5     6 ar
     7     5     9 1
     8     6     7 ar
     9     7     8 1
    10     9    10 1
    11    10    15 ar
    12    10    11 ar
    13    11    12 ar
    14    12    13 ar
    15    13    14 ar
    16    13    18 1
    17    14    15 ar
    18    15    16 1
    19    16    17 3
    20    18    19 1
    21    18    20 1
    22    18    21 1

@<TRIPOS>MOLECULE
CHEMBL404983_replica-1.pdb
 24 25 0 0 0
SMALL
GASTEIGER

@<TRIPOS>ATOM
       1  C1         12.7330   30.2630   63.6520  C.3       1 <0>        -0.1546
       2  C2         12.9350   31.6610   63.0620  C.3       1 <0>        -0.1260
       3  C3         14.2580   32.2410   63.5680  C.3       1 <0>        -0.1211
       4  C4         14.4680   33.6300   62.9650  C.3       1 <0>        -0.1213
       5  C5         13.2930   33.9710   62.0450  C.3       1 <0>        -0.1142
       6  C6         12.6030   35.2400   62.5470  C.3       1 <0>        -0.0784
       7  C7         11.2960   35.4230   61.8180  C.ar      1 <0>        -0.0952
       8  C8         10.9820   34.6030   60.7500  C.ar      1 <0>        -0.0868
       9  C9          9.7850   34.7650   60.0790  C.ar      1 <0>        -0.1782
      10  C10         8.8970   35.7530   60.4750  C.ar      1 <0>         0.0923
      11  C11         9.2130   36.5780   61.5500  C.ar      1 <0>         0.0852
      12  C12        10.4120   36.4050   62.2220  C.ar      1 <0>        -0.1067
      13  O1          8.3440   37.5480   61.9440  O.3       1 <0>        -0.4864
      14  O2          7.7190   35.9150   59.8150  O.3       1 <0>        -0.2483
      15  C13         7.7650   36.3200   58.5190  C.ar      1 <0>         0.1012
      16  C14         8.4150   37.5000   58.1820  C.ar      1 <0>        -0.1472
      17  C15         8.4620   37.9110   56.8640  C.ar      1 <0>        -0.0862
      18  C16         7.8630   37.1520   55.8770  C.ar      1 <0>        -0.1180
      19  C17         7.2110   35.9710   56.2090  C.ar      1 <0>         0.1578
      20  C18         7.1660   35.5520   57.5320  C.ar      1 <0>        -0.1473
      21  N1          6.6030   35.2020   55.2100  N.am      1 <0>        -0.6753
      22  C19         5.2940   35.3690   54.9350  C.2       1 <0>         0.5120
      23  O3          4.6250   36.1280   55.6050  O.2       1 <0>        -0.5233
      24  C20         4.6620   34.6130   53.7950  C.3       1 <0>        -0.1721
@<TRIPOS>BOND
     1     1     2 1
     2     2     3 1
     3     3     4 1
     4     4     5 1
     5     5     6 1
     6     6     7 1
     7     7    12 ar
     8     7     8 ar
     9     8     9 ar
    10     9    10 ar
    11    10    11 ar
    12    10    14 1
    13    11    12 ar
    14    11    13 1
    15    14    15 1
    16    15    20 ar
    17    15    16 ar
    18    16    17 ar
    19    17    18 ar
    20    18    19 ar
    21    19    20 ar
    22    19    21 1
    23    21    22 am
    24    22    23 2
    25    22    24 1

@<TRIPOS>MOLECULE
ZINC00131525_replica-1.pdb
 25 27 0 0 0
SMALL
GASTEIGER

@<TRIPOS>ATOM
       1  C1         11.3920   35.9550   62.1560  C.3       1 <0>        -0.1431
       2  C2         10.8230   35.0430   61.0660  C.3       1 <0>        -0.0789
       3  C3          9.8330   35.8140   60.2330  C.ar      1 <0>        -0.0609
       4  C4          9.6970   37.1600   60.4030  C.ar      1 <0>        -0.0860
       5  C5          8.7930   37.8910   59.6400  C.ar      1 <0>        -0.1095
       6  C6          8.0090   37.2760   58.7090  C.ar      1 <0>        -0.0847
       7  C7          8.1190   35.8930   58.5140  C.ar      1 <0>        -0.1160
       8  C8          9.0420   35.1470   59.2840  C.ar      1 <0>         0.1590
       9  N1          9.1570   33.8220   59.1060  N.ar      1 <0>        -0.4675
      10  C9          8.4330   33.1760   58.2290  C.ar      1 <0>         0.1824
      11  C10         7.4910   33.8340   57.4210  C.ar      1 <0>        -0.1923
      12  C11         7.3210   35.2200   57.5560  C.ar      1 <0>         0.2869
      13  N2          6.4090   35.9050   56.7830  N.pl3     1 <0>        -0.6912
      14  C12         5.0570   35.9140   57.1420  C.ar      1 <0>         0.2143
      15  C13         4.0780   36.0440   56.1660  C.ar      1 <0>        -0.1599
      16  C14         2.7440   36.0460   56.5230  C.ar      1 <0>        -0.1049
      17  C15         2.3820   35.9320   57.8550  C.ar      1 <0>         0.0479
      18  C16         3.3570   35.8080   58.8310  C.ar      1 <0>        -0.1054
      19  C17         4.6920   35.7990   58.4780  C.ar      1 <0>        -0.1486
      20  F1          1.0770   35.9400   58.2020  F         1 <0>        -0.1433
      21  C18         6.6940   33.0790   56.4430  C.2       1 <0>         0.5132
      22  O1          6.6420   33.4490   55.2860  O.2       1 <0>        -0.4855
      23  O2          6.0180   31.9790   56.8300  O.3       1 <0>        -0.3544
      24  C19         4.9080   32.1740   57.7440  C.3       1 <0>         0.0658
      25  C20         3.6240   32.4110   56.9460  C.3       1 <0>        -0.1542
@<TRIPOS>BOND
     1     1     2 1
     2     2     3 1
     3     3     8 ar
     4     3     4 ar
     5     4     5 ar
     6     5     6 ar
     7     6     7 ar
     8     7    12 ar
     9     7     8 ar
    10     8     9 ar
    11     9    10 ar
    12    10    11 ar
    13    11    12 ar
    14    11    21 1
    15    12    13 1
    16    13    14 1
    17    14    19 ar
    18    14    15 ar
    19    15    16 ar
    20    16    17 ar
    21    17    18 ar
    22    17    20 1
    23    18    19 ar
    24    21    22 2
    25    21    23 1
    26    23    24 1
    27    24    25 1

@<TRIPOS>MOLECULE
CHEMBL405653_replica-1.pdb
 28 30 0 0 0
SMALL
GASTEIGER

@<TRIPOS>ATOM
       1  C1         15.3540   33.7260   64.4300  C.3       1 <0>        -0.1544
       2  C2         14.8750   33.7900   62.9780  C.3       1 <0>        -0.1260
       3  C3         13.6270   32.9190   62.8150  C.3       1 <0>        -0.1210
       4  C4         12.3780   33.7640   63.0760  C.3       1 <0>        -0.1214
       5  C5         11.8170   34.2700   61.7450  C.3       1 <0>        -0.1139
       6  C6         11.2360   35.6720   61.9360  C.3       1 <0>        -0.0783
       7  C7         10.3500   36.0120   60.7670  C.ar      1 <0>        -0.0950
       8  C8         10.2240   35.1230   59.7140  C.ar      1 <0>        -0.0866
       9  C9          9.4110   35.4300   58.6400  C.ar      1 <0>        -0.1761
      10  C10         8.7200   36.6310   58.6130  C.ar      1 <0>         0.0936
      11  C11         8.8460   37.5250   59.6720  C.ar      1 <0>         0.0862
      12  C12         9.6590   37.2100   60.7490  C.ar      1 <0>        -0.1068
      13  O1          8.1700   38.7060   59.6520  O.3       1 <0>        -0.4856
      14  O2          7.9190   36.9340   57.5570  O.3       1 <0>        -0.2480
      15  C13         6.9580   36.0400   57.2090  C.ar      1 <0>         0.1026
      16  C14         6.9000   35.5540   55.9080  C.ar      1 <0>        -0.1429
      17  C15         5.9240   34.6430   55.5530  C.ar      1 <0>        -0.0845
      18  C16         5.0020   34.2130   56.4880  C.ar      1 <0>        -0.1342
      19  C17         5.0550   34.6950   57.7890  C.ar      1 <0>         0.1530
      20  C18         6.0390   35.6060   58.1500  C.ar      1 <0>        -0.1212
      21  N1          4.1220   34.2600   58.7350  N.am      1 <0>        -0.6555
      22  C19         2.9630   34.9290   58.8950  C.2       1 <0>         0.5983
      23  O3          2.7620   35.9560   58.2760  O.2       1 <0>        -0.4805
      24  C20         1.9380   34.4160   59.8240  C.2       1 <0>         0.0104
      25  C21         2.0310   33.2860   60.5770  C.2       1 <0>        -0.1909
      26  C22         0.8440   33.1610   61.3180  C.2       1 <0>         0.0773
      27  N2          0.0710   34.1670   61.0250  N.2       1 <0>        -0.2868
      28  O4          0.7430   34.9830   60.0830  O.3       1 <0>        -0.0713
@<TRIPOS>BOND
     1     1     2 1
     2     2     3 1
     3     3     4 1
     4     4     5 1
     5     5     6 1
     6     6     7 1
     7     7    12 ar
     8     7     8 ar
     9     8     9 ar
    10     9    10 ar
    11    10    11 ar
    12    10    14 1
    13    11    12 ar
    14    11    13 1
    15    14    15 1
    16    15    20 ar
    17    15    16 ar
    18    16    17 ar
    19    17    18 ar
    20    18    19 ar
    21    19    20 ar
    22    19    21 1
    23    21    22 am
    24    22    23 2
    25    22    24 1
    26    24    28 1
    27    24    25 2
    28    25    26 1
    29    26    27 2
    30    27    28 1

@<TRIPOS>MOLECULE
ZINC56838400_replica-1.pdb
 25 27 0 0 0
SMALL
GASTEIGER

@<TRIPOS>ATOM
       1  C1          7.6680   29.9690   58.1880  C.3       1 <0>        -0.1386
       2  C2          6.6260   30.1750   59.2890  C.3       1 <0>         0.1279
       3  C3          6.5680   28.9330   60.1850  C.3       1 <0>         0.0488
       4  O1          5.7340   29.2050   61.3130  O.3       1 <0>        -0.3761
       5  C4          6.2130   30.2530   62.1580  C.3       1 <0>         0.0463
       6  C5          6.2540   31.5630   61.3640  C.3       1 <0>         0.0762
       7  N1          7.0060   31.3300   60.1200  N.am      1 <0>        -0.6298
       8  C6          8.0110   32.1480   59.7520  C.2       1 <0>         0.7130
       9  O2          8.5530   32.0000   58.6750  O.2       1 <0>        -0.5686
      10  N2          8.4170   33.1300   60.5810  N.am      1 <0>        -0.7415
      11  C7          9.4320   34.0900   60.1380  C.3       1 <0>         0.2524
      12  C8          8.7880   35.4350   59.9160  C.ar      1 <0>        -0.1024
      13  C9          9.1670   36.2130   58.8380  C.ar      1 <0>        -0.0829
      14  C10         8.5770   37.4460   58.6330  C.ar      1 <0>        -0.1478
      15  C11         7.6050   37.9010   59.5080  C.ar      1 <0>         0.1048
      16  C12         7.2260   37.1200   60.5870  C.ar      1 <0>        -0.1470
      17  C13         7.8140   35.8860   60.7860  C.ar      1 <0>        -0.0717
      18  F1          7.0270   39.1060   59.3090  F         1 <0>        -0.1363
      19  C14        10.5010   34.2130   61.1930  C.ar      1 <0>        -0.1015
      20  C15        11.0610   35.4460   61.4700  C.ar      1 <0>        -0.0732
      21  C16        12.0400   35.5590   62.4380  C.ar      1 <0>        -0.1540
      22  C17        12.4610   34.4370   63.1310  C.ar      1 <0>         0.1013
      23  C18        11.8990   33.2030   62.8530  C.ar      1 <0>        -0.1506
      24  C19        10.9160   33.0930   61.8880  C.ar      1 <0>        -0.0691
      25  F2         13.4180   34.5470   64.0770  F         1 <0>        -0.1388
@<TRIPOS>BOND
     1     1     2 1
     2     2     7 1
     3     2     3 1
     4     3     4 1
     5     4     5 1
     6     5     6 1
     7     6     7 1
     8     7     8 am
     9     8     9 2
    10     8    10 am
    11    10    11 1
    12    11    12 1
    13    11    19 1
    14    12    17 ar
    15    12    13 ar
    16    13    14 ar
    17    14    15 ar
    18    15    16 ar
    19    15    18 1
    20    16    17 ar
    21    19    24 ar
    22    19    20 ar
    23    20    21 ar
    24    21    22 ar
    25    22    23 ar
    26    22    25 1
    27    23    24 ar

@<TRIPOS>MOLECULE
CHEMBL428967_replica-1.pdb
 28 30 0 0 0
SMALL
GASTEIGER

@<TRIPOS>ATOM
       1  C1         12.7970   31.1580   63.2110  C.3       1 <0>        -0.1547
       2  C2         14.0630   31.8080   63.7710  C.3       1 <0>        -0.1259
       3  C3         14.1740   33.2410   63.2470  C.3       1 <0>        -0.1213
       4  C4         12.7900   33.8930   63.2460  C.3       1 <0>        -0.1211
       5  C5         12.6080   34.7030   61.9610  C.3       1 <0>        -0.1142
       6  C6         11.7610   35.9430   62.2560  C.3       1 <0>        -0.0842
       7  C7         10.5130   35.9120   61.4120  C.ar      1 <0>        -0.0576
       8  C8         10.4390   35.0620   60.3230  C.ar      1 <0>        -0.1129
       9  C9          9.2970   35.0300   59.5450  C.ar      1 <0>        -0.1022
      10  C10         8.2220   35.8480   59.8560  C.ar      1 <0>         0.0495
      11  C11         8.2980   36.7020   60.9530  C.ar      1 <0>         0.1047
      12  C12         9.4430   36.7260   61.7310  C.ar      1 <0>        -0.1331
      13  O1          7.2460   37.5080   61.2630  O.3       1 <0>        -0.4889
      14  O2          7.0980   35.8180   59.0920  O.3       1 <0>        -0.2542
      15  C13         7.2120   36.1400   57.7760  C.ar      1 <0>         0.1127
      16  C14         7.6690   37.3950   57.4060  C.ar      1 <0>        -0.1697
      17  C15         7.7850   37.7200   56.0670  C.ar      1 <0>        -0.0884
      18  C16         7.4470   36.7970   55.0950  C.ar      1 <0>        -0.1322
      19  C17         6.9910   35.5430   55.4560  C.ar      1 <0>        -0.0846
      20  C18         6.8770   35.2070   56.7970  C.ar      1 <0>         0.1127
      21  N1          6.4200   33.9360   57.1650  N.am      1 <0>        -0.6448
      22  C19         7.2620   32.8840   57.1370  C.2       1 <0>         0.5973
      23  O3          8.3940   33.0220   56.7180  O.2       1 <0>        -0.4888
      24  C20         6.8080   31.5640   57.6160  C.2       1 <0>         0.0144
      25  C21         7.6070   30.5200   57.9680  C.2       1 <0>        -0.1949
      26  C22         6.7790   29.4570   58.3650  C.2       1 <0>         0.0766
      27  N2          5.5390   29.8420   58.2590  N.2       1 <0>        -0.2895
      28  O4          5.5290   31.1790   57.7910  O.3       1 <0>        -0.0705
@<TRIPOS>BOND
     1     1     2 1
     2     2     3 1
     3     3     4 1
     4     4     5 1
     5     5     6 1
     6     6     7 1
     7     7    12 ar
     8     7     8 ar
     9     8     9 ar
    10     9    10 ar
    11    10    11 ar
    12    10    14 1
    13    11    12 ar
    14    11    13 1
    15    14    15 1
    16    15    20 ar
    17    15    16 ar
    18    16    17 ar
    19    17    18 ar
    20    18    19 ar
    21    19    20 ar
    22    20    21 1
    23    21    22 am
    24    22    23 2
    25    22    24 1
    26    24    28 1
    27    24    25 2
    28    25    26 1
    29    26    27 2
    30    27    28 1

@<TRIPOS>MOLECULE
CHEMBL505886_replica-1.pdb
 22 23 0 0 0
SMALL
GASTEIGER

@<TRIPOS>ATOM
       1  C1         12.0860   29.3240   64.7640  C.3       1 <0>        -0.1544
       2  C2         12.8310   29.7940   63.5140  C.3       1 <0>        -0.1261
       3  C3         12.7470   31.3190   63.4120  C.3       1 <0>        -0.1214
       4  C4         14.1180   31.9270   63.7090  C.3       1 <0>        -0.1211
       5  C5         14.0960   33.4220   63.3830  C.3       1 <0>        -0.1205
       6  C6         12.6490   33.8830   63.2000  C.3       1 <0>        -0.1208
       7  C7         12.5580   34.8060   61.9830  C.3       1 <0>        -0.1141
       8  C8         11.6690   36.0060   62.3190  C.3       1 <0>        -0.0782
       9  C9         10.4510   35.9930   61.4320  C.ar      1 <0>        -0.0961
      10  C10        10.4440   35.2260   60.2820  C.ar      1 <0>        -0.0867
      11  C11         9.3290   35.2100   59.4640  C.ar      1 <0>        -0.1773
      12  C12         8.2150   35.9640   59.7970  C.ar      1 <0>         0.0938
      13  C13         8.2210   36.7350   60.9560  C.ar      1 <0>         0.0836
      14  C14         9.3410   36.7410   61.7740  C.ar      1 <0>        -0.1062
      15  O1          7.1310   37.4760   61.2880  O.3       1 <0>        -0.4859
      16  O2          7.1180   35.9490   58.9950  O.3       1 <0>        -0.2514
      17  C15         7.2070   36.5510   57.7800  C.ar      1 <0>         0.0794
      18  C16         7.0110   35.8120   56.6220  C.ar      1 <0>        -0.1263
      19  C17         7.1020   36.4270   55.3890  C.ar      1 <0>        -0.1063
      20  C18         7.3900   37.7780   55.3080  C.ar      1 <0>        -0.1162
      21  C19         7.5860   38.5160   56.4600  C.ar      1 <0>        -0.1058
      22  C20         7.4900   37.9070   57.6970  C.ar      1 <0>        -0.1250
@<TRIPOS>BOND
     1     1     2 1
     2     2     3 1
     3     3     4 1
     4     4     5 1
     5     5     6 1
     6     6     7 1
     7     7     8 1
     8     8     9 1
     9     9    14 ar
    10     9    10 ar
    11    10    11 ar
    12    11    12 ar
    13    12    13 ar
    14    12    16 1
    15    13    14 ar
    16    13    15 1
    17    16    17 1
    18    17    22 ar
    19    17    18 ar
    20    18    19 ar
    21    19    20 ar
    22    20    21 ar
    23    21    22 ar

@<TRIPOS>MOLECULE
CHEMBL262360_replica-1.pdb
 24 25 0 0 0
SMALL
GASTEIGER

@<TRIPOS>ATOM
       1  C1         14.0090   32.0050   63.6100  C.3       1 <0>        -0.1545
       2  C2         14.5320   33.3040   62.9930  C.3       1 <0>        -0.1259
       3  C3         13.3890   34.0260   62.2780  C.3       1 <0>        -0.1212
       4  C4         12.0670   33.3240   62.5920  C.3       1 <0>        -0.1212
       5  C5         10.9690   33.8700   61.6750  C.3       1 <0>        -0.1143
       6  C6         11.0970   35.3910   61.5750  C.3       1 <0>        -0.0780
       7  C7         10.1970   35.9000   60.4790  C.ar      1 <0>        -0.0963
       8  C8          9.9830   35.1330   59.3500  C.ar      1 <0>        -0.0868
       9  C9          9.1580   35.5950   58.3420  C.ar      1 <0>        -0.1789
      10  C10         8.5450   36.8320   58.4610  C.ar      1 <0>         0.0929
      11  C11         8.7600   37.6060   59.5980  C.ar      1 <0>         0.0844
      12  C12         9.5840   37.1330   60.6070  C.ar      1 <0>        -0.1065
      13  O1          8.1610   38.8200   59.7200  O.3       1 <0>        -0.4862
      14  O2          7.7340   37.2890   57.4700  O.3       1 <0>        -0.2478
      15  C13         6.5820   36.6110   57.2240  C.ar      1 <0>         0.0675
      16  C14         6.2320   36.2890   55.9200  C.ar      1 <0>        -0.1145
      17  C15         5.0620   35.6000   55.6700  C.ar      1 <0>        -0.1067
      18  C16         4.2360   35.2290   56.7230  C.ar      1 <0>         0.1442
      19  C17         4.5880   35.5510   58.0270  C.ar      1 <0>        -0.1292
      20  C18         5.7610   36.2360   58.2770  C.ar      1 <0>        -0.0993
      21  N1          3.0490   34.5300   56.4700  N.am      1 <0>        -0.6751
      22  C19         3.0510   33.1820   56.4490  C.2       1 <0>         0.5110
      23  O3          4.0950   32.5760   56.5710  O.2       1 <0>        -0.5243
      24  C20         1.7580   32.4290   56.2750  C.3       1 <0>        -0.1701
@<TRIPOS>BOND
     1     1     2 1
     2     2     3 1
     3     3     4 1
     4     4     5 1
     5     5     6 1
     6     6     7 1
     7     7    12 ar
     8     7     8 ar
     9     8     9 ar
    10     9    10 ar
    11    10    11 ar
    12    10    14 1
    13    11    12 ar
    14    11    13 1
    15    14    15 1
    16    15    20 ar
    17    15    16 ar
    18    16    17 ar
    19    17    18 ar
    20    18    19 ar
    21    18    21 1
    22    19    20 ar
    23    21    22 am
    24    22    23 2
    25    22    24 1

@<TRIPOS>MOLECULE
CHEMBL264417_replica-1.pdb
 23 24 0 0 0
SMALL
GASTEIGER

@<TRIPOS>ATOM
       1  C1         13.7620   31.8360   63.5740  C.3       1 <0>        -0.1546
       2  C2         14.3730   33.0920   62.9530  C.3       1 <0>        -0.1261
       3  C3         13.2560   34.0050   62.4410  C.3       1 <0>        -0.1211
       4  C4         11.9080   33.3030   62.6040  C.3       1 <0>        -0.1215
       5  C5         10.9160   33.8580   61.5800  C.3       1 <0>        -0.1143
       6  C6         11.0290   35.3830   61.5360  C.3       1 <0>        -0.0805
       7  C7         10.1570   35.9190   60.4290  C.ar      1 <0>        -0.0878
       8  C8          9.9570   35.1700   59.2850  C.ar      1 <0>        -0.0855
       9  C9          9.1580   35.6570   58.2670  C.ar      1 <0>        -0.1767
      10  C10         8.5570   36.9000   58.3920  C.ar      1 <0>         0.0866
      11  C11         8.7600   37.6540   59.5440  C.ar      1 <0>         0.0929
      12  C12         9.5570   37.1570   60.5620  C.ar      1 <0>        -0.1051
      13  O1          8.1730   38.8740   59.6710  O.3       1 <0>        -0.4850
      14  O2          7.7720   37.3800   57.3920  O.3       1 <0>        -0.2492
      15  C13         6.6350   36.6990   57.0900  C.ar      1 <0>         0.1393
      16  C14         5.7330   36.3720   58.0920  C.ar      1 <0>        -0.1269
      17  C15         4.5790   35.6810   57.7810  C.ar      1 <0>        -0.0389
      18  C16         4.3220   35.3140   56.4740  C.ar      1 <0>        -0.0503
      19  C17         5.2190   35.6380   55.4730  C.ar      1 <0>        -0.0385
      20  C18         6.3730   36.3350   55.7760  C.ar      1 <0>        -0.1255
      21  N1          3.0830   34.5740   56.1440  N.pl3     1 <0>         0.0317
      22  O3          3.1490   33.4980   55.5950  O.2       1 <0>        -0.1517
      23  O4          2.0040   35.0450   56.4220  O.3       1 <0>        -0.1518
@<TRIPOS>BOND
     1     1     2 1
     2     2     3 1
     3     3     4 1
     4     4     5 1
     5     5     6 1
     6     6     7 1
     7     7    12 ar
     8     7     8 ar
     9     8     9 ar
    10     9    10 ar
    11    10    11 ar
    12    10    14 1
    13    11    12 ar
    14    11    13 1
    15    14    15 1
    16    15    20 ar
    17    15    16 ar
    18    16    17 ar
    19    17    18 ar
    20    18    19 ar
    21    18    21 1
    22    19    20 ar
    23    21    22 2
    24    21    23 1

@<TRIPOS>MOLECULE
ZINC00952461_replica-1.pdb
 31 34 0 0 0
SMALL
GASTEIGER

@<TRIPOS>ATOM
       1  C1          8.1540   36.1200   55.2770  C.3       1 <0>        -0.1332
       2  C2          7.6760   35.8230   56.6740  C.2       1 <0>         0.2371
       3  C3          7.8110   36.7480   57.6360  C.3       1 <0>        -0.0310
       4  C4          7.3490   36.4890   59.0390  C.3       1 <0>         0.0531
       5  C5          6.3970   35.3200   59.0910  C.2       1 <0>        -0.2671
       6  C6          6.3190   34.4480   58.0630  C.2       1 <0>         0.1819
       7  N1          7.1070   34.6080   56.9550  N.2       1 <0>        -0.5186
       8  C7          5.3670   33.2790   58.1050  C.3       1 <0>        -0.0690
       9  C8          5.1690   32.8290   59.5540  C.3       1 <0>        -0.0586
      10  C9          4.6380   34.0140   60.3660  C.3       1 <0>        -0.1486
      11  C10         5.5970   35.1660   60.2360  C.2       1 <0>         0.4012
      12  O1          5.6820   35.9760   61.1370  O.2       1 <0>        -0.4629
      13  C11         6.5080   32.3680   60.1320  C.3       1 <0>        -0.1510
      14  C12         4.1620   31.6770   59.6060  C.3       1 <0>        -0.1416
      15  C13         8.5490   36.1890   59.9000  C.ar      1 <0>        -0.1337
      16  C14         9.3430   35.0930   59.6190  C.ar      1 <0>        -0.0483
      17  C15        10.4430   34.8160   60.4070  C.ar      1 <0>        -0.1467
      18  C16        10.7490   35.6370   61.4820  C.ar      1 <0>         0.1381
      19  C17         9.9470   36.7320   61.7660  C.ar      1 <0>        -0.2055
      20  C18         8.8510   37.0090   60.9710  C.ar      1 <0>        -0.0763
      21  O2         11.8310   35.3670   62.2600  O.3       1 <0>        -0.3065
      22  C19        12.8030   34.4650   61.7290  C.3       1 <0>         0.1027
      23  C20        12.8350   33.2120   62.5650  C.ar      1 <0>        -0.1104
      24  C21        14.0170   32.8080   63.1580  C.ar      1 <0>        -0.0645
      25  C22        14.0490   31.6590   63.9250  C.ar      1 <0>        -0.1565
      26  C23        12.8960   30.9110   64.0990  C.ar      1 <0>         0.1115
      27  C24        11.7130   31.3170   63.5050  C.ar      1 <0>        -0.1563
      28  C25        11.6840   32.4670   62.7390  C.ar      1 <0>        -0.0641
      29  F1         12.9250   29.7880   64.8490  F         1 <0>        -0.1357
      30  C26         8.4050   38.0120   57.3170  C.1       1 <0>         0.2144
      31  N2          8.8750   39.0140   57.0630  N.1       1 <0>        -0.3803
@<TRIPOS>BOND
     1     1     2 1
     2     2     7 2
     3     2     3 1
     4     3     4 1
     5     3    30 1
     6     4     5 1
     7     4    15 1
     8     5    11 1
     9     5     6 2
    10     6     8 1
    11     6     7 1
    12     8     9 1
    13     9    10 1
    14     9    13 1
    15     9    14 1
    16    10    11 1
    17    11    12 2
    18    15    20 ar
    19    15    16 ar
    20    16    17 ar
    21    17    18 ar
    22    18    19 ar
    23    18    21 1
    24    19    20 ar
    25    21    22 1
    26    22    23 1
    27    23    28 ar
    28    23    24 ar
    29    24    25 ar
    30    25    26 ar
    31    26    27 ar
    32    26    29 1
    33    27    28 ar
    34    30    31 3

@<TRIPOS>MOLECULE
ZINC66360615_replica-1.pdb
 29 31 0 0 0
SMALL
GASTEIGER

@<TRIPOS>ATOM
       1  C1         -1.3950   27.0380   51.0990  C.3       1 <0>        -0.1168
       2  C2         -1.1920   27.8480   52.3540  C.ar      1 <0>        -0.0828
       3  C3         -1.9030   29.0180   52.5450  C.ar      1 <0>        -0.1188
       4  C4         -1.7160   29.7600   53.6960  C.ar      1 <0>        -0.0957
       5  C5         -0.8180   29.3320   54.6570  C.ar      1 <0>        -0.0964
       6  C6         -0.1080   28.1620   54.4660  C.ar      1 <0>        -0.0977
       7  C7         -0.2980   27.4170   53.3160  C.ar      1 <0>        -0.1215
       8  C8         -0.6150   30.1410   55.9110  C.3       1 <0>         0.2542
       9  C9         -1.1070   29.3570   57.1000  C.ar      1 <0>        -0.1276
      10  C10        -2.1480   28.4590   56.9530  C.ar      1 <0>        -0.0707
      11  C11        -2.6010   27.7410   58.0410  C.ar      1 <0>        -0.1470
      12  C12        -2.0090   27.9180   59.2830  C.ar      1 <0>         0.1329
      13  C13        -0.9640   28.8180   59.4290  C.ar      1 <0>        -0.2028
      14  C14        -0.5110   29.5320   58.3360  C.ar      1 <0>        -0.0601
      15  O1         -2.4530   27.2120   60.3560  O.3       1 <0>        -0.3165
      16  C15        -2.3580   27.8440   61.6350  C.3       1 <0>         0.0257
      17  N1          0.8110   30.4350   56.0760  N.am      1 <0>        -0.7332
      18  C16         1.2200   31.7060   56.2610  C.2       1 <0>         0.7080
      19  O2          0.4060   32.6080   56.2920  O.2       1 <0>        -0.5600
      20  N2          2.5310   31.9770   56.4120  N.am      1 <0>        -0.6838
      21  C17         2.9680   33.3040   56.4870  C.ar      1 <0>         0.1737
      22  C18         3.3050   33.9920   55.3290  C.ar      1 <0>        -0.1294
      23  C19         3.7350   35.3020   55.4060  C.ar      1 <0>        -0.0972
      24  C20         3.8310   35.9280   56.6350  C.ar      1 <0>        -0.1409
      25  C21         3.4960   35.2470   57.7900  C.ar      1 <0>        -0.0751
      26  C22         3.0590   33.9380   57.7190  C.ar      1 <0>        -0.1275
      27  C23         2.6890   33.1970   58.9780  C.3       1 <0>         0.1070
      28  O3          1.8850   34.0390   59.8080  O.3       1 <0>        -0.3832
      29  C24         0.4800   33.8540   59.6340  C.3       1 <0>         0.0301
@<TRIPOS>BOND
     1     1     2 1
     2     2     7 ar
     3     2     3 ar
     4     3     4 ar
     5     4     5 ar
     6     5     6 ar
     7     5     8 1
     8     6     7 ar
     9     8     9 1
    10     8    17 1
    11     9    14 ar
    12     9    10 ar
    13    10    11 ar
    14    11    12 ar
    15    12    13 ar
    16    12    15 1
    17    13    14 ar
    18    15    16 1
    19    17    18 am
    20    18    19 2
    21    18    20 am
    22    20    21 1
    23    21    26 ar
    24    21    22 ar
    25    22    23 ar
    26    23    24 ar
    27    24    25 ar
    28    25    26 ar
    29    26    27 1
    30    27    28 1
    31    28    29 1

@<TRIPOS>MOLECULE
CHEMBL261355_replica-1.pdb
 28 30 0 0 0
SMALL
GASTEIGER

@<TRIPOS>ATOM
       1  C1         12.9260   30.5280   63.4200  C.3       1 <0>        -0.1548
       2  C2         12.3320   31.8770   63.0080  C.3       1 <0>        -0.1264
       3  C3         13.3990   32.9650   63.1370  C.3       1 <0>        -0.1206
       4  C4         13.1760   34.0280   62.0600  C.3       1 <0>        -0.1220
       5  C5         11.6760   34.1910   61.8070  C.3       1 <0>        -0.1134
       6  C6         11.3010   35.6710   61.8940  C.3       1 <0>        -0.0810
       7  C7         10.3440   36.0140   60.7820  C.ar      1 <0>        -0.0890
       8  C8         10.1310   35.1150   59.7540  C.ar      1 <0>        -0.0873
       9  C9          9.2540   35.4240   58.7310  C.ar      1 <0>        -0.1772
      10  C10         8.5870   36.6390   58.7350  C.ar      1 <0>         0.0882
      11  C11         8.8010   37.5450   59.7690  C.ar      1 <0>         0.0883
      12  C12         9.6770   37.2250   60.7940  C.ar      1 <0>        -0.1051
      13  O1          8.1480   38.7370   59.7770  O.3       1 <0>        -0.4854
      14  O2          7.7240   36.9450   57.7290  O.3       1 <0>        -0.2533
      15  C13         6.5070   36.3400   57.7250  C.ar      1 <0>         0.0973
      16  C14         5.6770   36.4420   58.8310  C.ar      1 <0>        -0.1249
      17  C15         4.4410   35.8250   58.8250  C.ar      1 <0>        -0.1036
      18  C16         4.0310   35.1070   57.7170  C.ar      1 <0>        -0.0951
      19  C17         4.8570   35.0040   56.6120  C.ar      1 <0>        -0.0786
      20  C18         6.0910   35.6240   56.6120  C.ar      1 <0>        -0.1223
      21  C19         2.6820   34.4350   57.7120  C.3       1 <0>         0.0979
      22  N1          2.2290   34.2380   59.0950  N.3       1 <0>        -0.5349
      23  C20         2.4400   32.8490   59.5260  C.3       1 <0>         0.0188
      24  C21         2.0110   32.7000   60.9870  C.3       1 <0>        -0.0023
      25  N2          0.5940   33.0620   61.1210  N.4       1 <0>        -0.3883
      26  C22         0.4020   34.4590   60.7110  C.3       1 <0>        -0.0023
      27  C23         0.8180   34.6220   59.2470  C.3       1 <0>         0.0249
      28  C24         0.1780   32.9010   62.5210  C.3       1 <0>        -0.0459
@<TRIPOS>BOND
     1     1     2 1
     2     2     3 1
     3     3     4 1
     4     4     5 1
     5     5     6 1
     6     6     7 1
     7     7    12 ar
     8     7     8 ar
     9     8     9 ar
    10     9    10 ar
    11    10    11 ar
    12    10    14 1
    13    11    12 ar
    14    11    13 1
    15    14    15 1
    16    15    20 ar
    17    15    16 ar
    18    16    17 ar
    19    17    18 ar
    20    18    19 ar
    21    18    21 1
    22    19    20 ar
    23    21    22 1
    24    22    27 1
    25    22    23 1
    26    23    24 1
    27    24    25 1
    28    25    26 1
    29    25    28 1
    30    26    27 1

@<TRIPOS>MOLECULE
CHEMBL260399_replica-1.pdb
 28 30 0 0 0
SMALL
GASTEIGER

@<TRIPOS>ATOM
       1  C1         14.1290   32.1820   63.5560  C.3       1 <0>        -0.1545
       2  C2         14.4100   33.4760   62.7890  C.3       1 <0>        -0.1260
       3  C3         13.1030   34.2500   62.5990  C.3       1 <0>        -0.1210
       4  C4         11.9330   33.2660   62.5440  C.3       1 <0>        -0.1214
       5  C5         10.8210   33.8440   61.6660  C.3       1 <0>        -0.1139
       6  C6         11.1430   35.3010   61.3280  C.3       1 <0>        -0.0786
       7  C7         10.1510   35.8140   60.3150  C.ar      1 <0>        -0.0951
       8  C8          9.8540   35.0560   59.1970  C.ar      1 <0>        -0.0866
       9  C9          8.9440   35.5200   58.2650  C.ar      1 <0>        -0.1783
      10  C10         8.3290   36.7480   58.4510  C.ar      1 <0>         0.0918
      11  C11         8.6280   37.5100   59.5760  C.ar      1 <0>         0.0855
      12  C12         9.5360   37.0360   60.5100  C.ar      1 <0>        -0.1066
      13  O1          8.0260   38.7160   59.7630  O.3       1 <0>        -0.4858
      14  O2          7.4350   37.2070   57.5350  O.3       1 <0>        -0.2478
      15  C13         6.2890   36.5000   57.3510  C.ar      1 <0>         0.0744
      16  C14         5.5030   36.1590   58.4420  C.ar      1 <0>        -0.1145
      17  C15         4.3380   35.4410   58.2570  C.ar      1 <0>        -0.1218
      18  C16         3.9540   35.0610   56.9780  C.ar      1 <0>         0.1393
      19  C17         4.7410   35.4030   55.8870  C.ar      1 <0>        -0.1023
      20  C18         5.9030   36.1250   56.0730  C.ar      1 <0>        -0.0988
      21  N1          2.7730   34.3310   56.7890  N.am      1 <0>        -0.6556
      22  C19         2.8020   32.9840   56.8150  C.2       1 <0>         0.5993
      23  O3          3.8630   32.4010   56.9240  O.2       1 <0>        -0.4834
      24  C20         1.5460   32.2190   56.7120  C.2       1 <0>         0.0097
      25  C21         1.2100   31.1250   57.4500  C.2       1 <0>        -0.1908
      26  C22        -0.0650   30.7020   57.0400  C.2       1 <0>         0.0769
      27  N2         -0.4800   31.5040   56.1000  N.2       1 <0>        -0.2867
      28  O4          0.5220   32.4790   55.8770  O.3       1 <0>        -0.0713
@<TRIPOS>BOND
     1     1     2 1
     2     2     3 1
     3     3     4 1
     4     4     5 1
     5     5     6 1
     6     6     7 1
     7     7    12 ar
     8     7     8 ar
     9     8     9 ar
    10     9    10 ar
    11    10    11 ar
    12    10    14 1
    13    11    12 ar
    14    11    13 1
    15    14    15 1
    16    15    20 ar
    17    15    16 ar
    18    16    17 ar
    19    17    18 ar
    20    18    19 ar
    21    18    21 1
    22    19    20 ar
    23    21    22 am
    24    22    23 2
    25    22    24 1
    26    24    28 1
    27    24    25 2
    28    25    26 1
    29    26    27 2
    30    27    28 1

@<TRIPOS>MOLECULE
CHEMBL263646_replica-1.pdb
 26 27 0 0 0
SMALL
GASTEIGER

@<TRIPOS>ATOM
       1  C1         13.1890   31.3850   63.2970  C.3       1 <0>        -0.1537
       2  C2         14.2810   32.4500   63.4120  C.3       1 <0>        -0.1260
       3  C3         13.8910   33.6720   62.5780  C.3       1 <0>        -0.1208
       4  C4         12.4330   34.0390   62.8610  C.3       1 <0>        -0.1213
       5  C5         11.7840   34.5750   61.5840  C.3       1 <0>        -0.1136
       6  C6         10.9420   35.8080   61.9180  C.3       1 <0>        -0.0756
       7  C7         10.1120   36.1890   60.7200  C.ar      1 <0>        -0.1033
       8  C8         10.0460   35.3430   59.6280  C.ar      1 <0>        -0.0855
       9  C9          9.2870   35.6870   58.5260  C.ar      1 <0>        -0.1746
      10  C10         8.5890   36.8850   58.5130  C.ar      1 <0>         0.1020
      11  C11         8.6550   37.7370   59.6110  C.ar      1 <0>         0.0804
      12  C12         9.4140   37.3820   60.7150  C.ar      1 <0>        -0.1080
      13  O1          7.9730   38.9130   59.6030  O.3       1 <0>        -0.4843
      14  O2          7.8420   37.2270   57.4290  O.3       1 <0>        -0.2484
      15  C13         6.9170   36.3360   56.9860  C.ar      1 <0>         0.0957
      16  C14         7.1210   35.6570   55.7920  C.ar      1 <0>        -0.1645
      17  C15         6.1820   34.7500   55.3400  C.ar      1 <0>        -0.0877
      18  C16         5.0350   34.5170   56.0750  C.ar      1 <0>        -0.1521
      19  C17         4.8240   35.1930   57.2710  C.ar      1 <0>         0.1761
      20  C18         5.7710   36.1000   57.7280  C.ar      1 <0>        -0.1288
      21  N1          3.6650   34.9560   58.0130  N.am      1 <0>        -0.6648
      22  C19         2.5060   35.5460   57.6580  C.2       1 <0>         0.4511
      23  O3          2.4860   36.3420   56.7430  O.2       1 <0>        -0.5211
      24  C20         1.2450   35.2170   58.3910  C.2       1 <0>         0.5006
      25  O4          1.2290   35.2270   59.6120  O.co2     1 <0>        -0.6359
      26  O5          0.2320   34.9400   57.7710  O.co2     1 <0>        -0.6652
@<TRIPOS>BOND
     1     1     2 1
     2     2     3 1
     3     3     4 1
     4     4     5 1
     5     5     6 1
     6     6     7 1
     7     7    12 ar
     8     7     8 ar
     9     8     9 ar
    10     9    10 ar
    11    10    11 ar
    12    10    14 1
    13    11    12 ar
    14    11    13 1
    15    14    15 1
    16    15    20 ar
    17    15    16 ar
    18    16    17 ar
    19    17    18 ar
    20    18    19 ar
    21    19    20 ar
    22    19    21 1
    23    21    22 am
    24    22    23 2
    25    22    24 1
    26    24    25 2
    27    24    26 1

@<TRIPOS>MOLECULE
CHEMBL264175_replica-1.pdb
 21 22 0 0 0
SMALL
GASTEIGER

@<TRIPOS>ATOM
       1  C1         13.4760   31.7280   63.3520  C.3       1 <0>        -0.1545
       2  C2         14.4500   32.8970   63.1870  C.3       1 <0>        -0.1260
       3  C3         13.8260   33.9570   62.2780  C.3       1 <0>        -0.1211
       4  C4         12.3390   34.1020   62.6110  C.3       1 <0>        -0.1213
       5  C5         11.5820   34.5750   61.3670  C.3       1 <0>        -0.1140
       6  C6         10.8410   35.8750   61.6860  C.3       1 <0>        -0.0775
       7  C7          9.9880   36.2690   60.5070  C.ar      1 <0>        -0.0995
       8  C8          9.9000   35.4320   59.4100  C.ar      1 <0>        -0.0875
       9  C9          9.1190   35.7890   58.3270  C.ar      1 <0>        -0.1776
      10  C10         8.4220   36.9870   58.3380  C.ar      1 <0>         0.0945
      11  C11         8.5110   37.8290   59.4430  C.ar      1 <0>         0.0801
      12  C12         9.2910   37.4630   60.5290  C.ar      1 <0>        -0.1067
      13  O1          7.8300   39.0050   59.4600  O.3       1 <0>        -0.4863
      14  O2          7.6550   37.3390   57.2730  O.3       1 <0>        -0.2455
      15  C13         6.7650   36.4290   56.7980  C.ar      1 <0>         0.0159
      16  C14         6.9220   35.9030   55.5240  C.ar      1 <0>        -0.0730
      17  C15         6.0170   34.9780   55.0400  C.ar      1 <0>        -0.1865
      18  C16         4.9490   34.5760   55.8310  C.ar      1 <0>         0.2215
      19  C17         4.7910   35.1020   57.1050  C.ar      1 <0>        -0.1860
      20  C18         5.7000   36.0220   57.5900  C.ar      1 <0>        -0.0717
      21  N1          4.0310   33.6390   55.3420  N.pl3     1 <0>        -0.8751
@<TRIPOS>BOND
     1     1     2 1
     2     2     3 1
     3     3     4 1
     4     4     5 1
     5     5     6 1
     6     6     7 1
     7     7    12 ar
     8     7     8 ar
     9     8     9 ar
    10     9    10 ar
    11    10    11 ar
    12    10    14 1
    13    11    12 ar
    14    11    13 1
    15    14    15 1
    16    15    20 ar
    17    15    16 ar
    18    16    17 ar
    19    17    18 ar
    20    18    19 ar
    21    18    21 1
    22    19    20 ar

@<TRIPOS>MOLECULE
ZINC40742067_replica-1.pdb
 27 28 0 0 0
SMALL
GASTEIGER

@<TRIPOS>ATOM
      1  C3         4.8410   35.6410   58.2910 C.ar    0  <0>0        0.1727
      2  C4         3.4760   35.8580   58.1920 C.ar    0  <0>0        0.0338
      3  C5         2.8570   35.8290   56.9570 C.ar    0  <0>0       -0.0397
      4  C6         3.5990   35.5830   55.8150 C.ar    0  <0>0        0.0083
      5  C7         4.9620   35.3650   55.9060 C.ar    0  <0>0        0.0942
      6  C8         5.5880   35.4010   57.1420 C.ar    0  <0>0        0.1831
      7 Cl          5.8890   35.0570   54.4710 Cl      0  <0>0       -0.0790
      8  O2         6.9300   35.1930   57.2320 O.3     0  <0>0       -0.4667
      9  C9         7.7650   36.3530   57.2690 C.3     0  <0>0        0.2330
     10  C10        8.6440   36.2990   58.4920 C.ar    0  <0>0        0.0319
     11  C15        8.5750   37.3060   59.4380 C.ar    0  <0>0        0.0594
     12  C14        9.3780   37.2540   60.5630 C.ar    0  <0>0        0.0408
     13 Cl          7.4750   38.6310   59.2180 Cl      0  <0>0       -0.0824
     14  C13       10.2580   36.1990   60.7360 C.ar    0  <0>0        0.1410
     15  C12       10.3300   35.1960   59.7860 C.ar    0  <0>0        0.0295
     16  F1        11.0460   36.1510   61.8330 F       0  <0>0       -0.2041
     17  C11        9.5240   35.2460   58.6640 C.ar    0  <0>0        0.0025
     18  O1         5.4500   35.6700   59.5050 O.3     0  <0>0       -0.4724
     19  C2         5.2750   34.5280   60.3460 C.3     0  <0>0        0.2057
     20  C1         6.5750   33.7220   60.3890 C.3     0  <0>0        0.0512
     21  C16        1.3730   36.0640   56.8530 C.3     0  <0>0       -0.0541
     22  N1         0.7310   34.8870   56.2510 N.4     0  <0>0        0.3878
     23  H15       -0.2640   35.0400   56.1950 H       0  <0>0       -0.0839
     24  H23        1.1020   34.7380   55.3260 H       0  <0>0       -0.0839
     25  C17        0.9980   33.7060   57.0820 C.3     0  <0>0       -0.0616
     26  C18       -0.0850   33.5820   58.1560 C.3     0  <0>0       -0.0234
     27  C19        0.9900   32.4530   56.2040 C.3     0  <0>0       -0.0234
@<TRIPOS>BOND
     1     7     5    1
     2    24    22    1
     3     4     5   ar
     4     4     3   ar
     5     5     6   ar
     6    23    22    1
     7    27    25    1
     8    22    21    1
     9    22    25    1
    10    21     3    1
    11     3     2   ar
    12    25    26    1
    13     6     8    1
    14     6     1   ar
    15     8     9    1
    16     9    10    1
    17     2     1   ar
    18     1    18    1
    19    10    17   ar
    20    10    11   ar
    21    17    15   ar
    22    13    11    1
    23    11    12   ar
    24    18    19    1
    25    15    14   ar
    26    19    20    1
    27    12    14   ar
    28    14    16    1


@<TRIPOS>MOLECULE
CHEMBL259138_replica-1.pdb
 20 21 0 0 0
SMALL
GASTEIGER

@<TRIPOS>ATOM
       1  C1         12.9500   30.5890   63.3980  C.3       1 <0>        -0.1546
       2  C2         12.5290   32.0130   63.0330  C.3       1 <0>        -0.1261
       3  C3         13.7600   32.9220   63.0180  C.3       1 <0>        -0.1211
       4  C4         13.4560   34.1810   62.2040  C.3       1 <0>        -0.1214
       5  C5         11.9790   34.1850   61.8050  C.3       1 <0>        -0.1142
       6  C6         11.3960   35.5840   62.0220  C.3       1 <0>        -0.0792
       7  C7         10.4720   35.9250   60.8820  C.ar      1 <0>        -0.0918
       8  C8         10.2960   35.0290   59.8440  C.ar      1 <0>        -0.0857
       9  C9          9.4490   35.3370   58.7970  C.ar      1 <0>        -0.1760
      10  C10         8.7710   36.5470   58.7860  C.ar      1 <0>         0.0913
      11  C11         8.9470   37.4490   59.8320  C.ar      1 <0>         0.0887
      12  C12         9.7960   37.1310   60.8810  C.ar      1 <0>        -0.1055
      13  O1          8.2860   38.6360   59.8260  O.3       1 <0>        -0.4854
      14  O2          7.9370   36.8510   57.7560  O.3       1 <0>        -0.2496
      15  C13         6.7450   36.2080   57.6900  C.ar      1 <0>         0.1297
      16  C14         6.4450   35.3670   56.6210  C.ar      1 <0>        -0.1825
      17  C15         5.2210   34.7310   56.5900  C.ar      1 <0>         0.1164
      18  N1          4.3410   34.9120   57.5560  N.ar      1 <0>        -0.4821
      19  C16         4.5870   35.7000   58.5860  C.ar      1 <0>         0.1168
      20  C17         5.7910   36.3670   58.6920  C.ar      1 <0>        -0.1811
@<TRIPOS>BOND
     1     1     2 1
     2     2     3 1
     3     3     4 1
     4     4     5 1
     5     5     6 1
     6     6     7 1
     7     7    12 ar
     8     7     8 ar
     9     8     9 ar
    10     9    10 ar
    11    10    11 ar
    12    10    14 1
    13    11    12 ar
    14    11    13 1
    15    14    15 1
    16    15    20 ar
    17    15    16 ar
    18    16    17 ar
    19    17    18 ar
    20    18    19 ar
    21    19    20 ar

@<TRIPOS>MOLECULE
ZINC01835659_replica-1.pdb
 29 31 0 0 0
SMALL
GASTEIGER

@<TRIPOS>ATOM
       1  C1         14.3480   32.5960   63.4470  C.3       1 <0>        -0.1825
       2  C2         12.9840   32.0460   63.0200  C.3       1 <0>         0.0779
       3  C3         12.6900   30.7590   63.7940  C.3       1 <0>        -0.1519
       4  O1         11.9720   33.0140   63.3030  O.3       1 <0>        -0.3083
       5  C4         11.2890   33.5200   62.2430  C.ar      1 <0>         0.1430
       6  C5         10.3560   32.7350   61.5790  C.ar      1 <0>        -0.2089
       7  C6          9.6630   33.2510   60.5010  C.ar      1 <0>        -0.0752
       8  C7          9.8990   34.5490   60.0830  C.ar      1 <0>        -0.1266
       9  C8         10.8290   35.3320   60.7410  C.ar      1 <0>        -0.0652
      10  C9         11.5190   34.8230   61.8240  C.ar      1 <0>        -0.1501
      11  C10         9.1420   35.1080   58.9060  C.3       1 <0>         0.0188
      12  C11         8.6020   33.9590   58.0530  C.3       1 <0>        -0.1406
      13  C12         8.3170   34.4650   56.6380  C.3       1 <0>        -0.0116
      14  N1          6.9620   34.0630   56.2370  N.4       1 <0>        -0.5079
      15  C13         6.0850   35.2410   56.2280  C.3       1 <0>         0.0470
      16  C14         4.9840   35.0570   57.2400  C.ar      1 <0>        -0.1676
      17  C15         4.0740   36.0730   57.4640  C.ar      1 <0>        -0.0931
      18  C16         3.0640   35.9030   58.3920  C.ar      1 <0>        -0.1145
      19  C17         2.9630   34.7170   59.0970  C.ar      1 <0>        -0.0828
      20  C18         3.8740   33.7010   58.8720  C.ar      1 <0>        -0.1146
      21  C19         4.8810   33.8700   57.9410  C.ar      1 <0>        -0.0933
      22  C20         7.9930   35.9480   59.4020  C.ar      1 <0>        -0.1255
      23  C21         7.0740   35.4130   60.2830  C.ar      1 <0>        -0.0838
      24  C22         6.0200   36.1830   60.7380  C.ar      1 <0>        -0.1524
      25  C23         5.8830   37.4910   60.3130  C.ar      1 <0>        -0.0727
      26  C24         6.8000   38.0330   59.4330  C.ar      1 <0>        -0.2027
      27  C25         7.8610   37.2630   58.9790  C.ar      1 <0>         0.1348
      28  O2          8.7680   37.7950   58.1160  O.3       1 <0>        -0.3170
      29  C26         8.2580   38.3590   56.9060  C.3       1 <0>         0.0243
@<TRIPOS>BOND
     1     1     2 1
     2     2     3 1
     3     2     4 1
     4     4     5 1
     5     5    10 ar
     6     5     6 ar
     7     6     7 ar
     8     7     8 ar
     9     8     9 ar
    10     8    11 1
    11     9    10 ar
    12    11    12 1
    13    11    22 1
    14    12    13 1
    15    13    14 1
    16    14    15 1
    17    15    16 1
    18    16    21 ar
    19    16    17 ar
    20    17    18 ar
    21    18    19 ar
    22    19    20 ar
    23    20    21 ar
    24    22    27 ar
    25    22    23 ar
    26    23    24 ar
    27    24    25 ar
    28    25    26 ar
    29    26    27 ar
    30    27    28 1
    31    28    29 1

@<TRIPOS>MOLECULE
ZINC35667924_replica-1.pdb
 29 31 0 0 0
SMALL
GASTEIGER

@<TRIPOS>ATOM
       1  C1          9.1210   34.4950   57.9220  C.3       1 <0>        -0.1201
       2  C2          9.5600   35.2590   59.1450  C.ar      1 <0>        -0.0812
       3  C3         10.4200   34.6730   60.0540  C.ar      1 <0>        -0.1226
       4  C4         10.8230   35.3730   61.1760  C.ar      1 <0>        -0.1192
       5  C5         10.3640   36.6590   61.3900  C.ar      1 <0>        -0.1261
       6  C6          9.5040   37.2450   60.4800  C.ar      1 <0>        -0.0919
       7  C7          9.1050   36.5460   59.3560  C.ar      1 <0>        -0.0880
       8  C8          8.1700   37.1880   58.3620  C.3       1 <0>         0.1037
       9  O1          6.8710   37.3150   58.9430  O.3       1 <0>        -0.3148
      10  C9          5.8610   36.6310   58.3470  C.ar      1 <0>         0.1073
      11  C10         5.9300   36.3370   56.9900  C.ar      1 <0>        -0.2136
      12  C11         4.9090   35.6440   56.3800  C.ar      1 <0>        -0.0856
      13  C12         3.7980   35.2350   57.1290  C.ar      1 <0>        -0.0408
      14  C13         3.7340   35.5350   58.4970  C.ar      1 <0>        -0.0725
      15  C14         4.7630   36.2230   59.0970  C.ar      1 <0>        -0.1429
      16  C15         2.7060   34.4960   56.4850  C.2       1 <0>        -0.2256
      17  C16         2.6970   33.1390   56.5100  C.2       1 <0>         0.1116
      18  C17         3.7030   32.4150   57.2890  C.2       1 <0>         0.5526
      19  O2          4.7980   32.1700   56.7970  O.co2     1 <0>        -0.6719
      20  O3          3.4500   32.0560   58.4320  O.co2     1 <0>        -0.6723
      21  N1          1.7260   32.4320   55.7910  N.am      1 <0>        -0.6559
      22  C18         0.5440   32.1340   56.3670  C.2       1 <0>         0.5359
      23  O4          0.2790   32.5710   57.4700  O.2       1 <0>        -0.4602
      24  C19        -0.4290   31.2780   55.6580  C.ar      1 <0>        -0.1198
      25  C20        -1.7510   31.2040   56.0980  C.ar      1 <0>        -0.0902
      26  C21        -2.6540   30.4030   55.4310  C.ar      1 <0>        -0.1288
      27  C22        -2.2510   29.6730   54.3260  C.ar      1 <0>        -0.1020
      28  C23        -0.9430   29.7410   53.8840  C.ar      1 <0>        -0.1273
      29  C24        -0.0310   30.5440   54.5390  C.ar      1 <0>        -0.0600
@<TRIPOS>BOND
     1     1     2 1
     2     2     7 ar
     3     2     3 ar
     4     3     4 ar
     5     4     5 ar
     6     5     6 ar
     7     6     7 ar
     8     7     8 1
     9     8     9 1
    10     9    10 1
    11    10    15 ar
    12    10    11 ar
    13    11    12 ar
    14    12    13 ar
    15    13    14 ar
    16    13    16 1
    17    14    15 ar
    18    16    17 2
    19    17    18 1
    20    17    21 1
    21    18    19 2
    22    18    20 1
    23    21    22 am
    24    22    23 2
    25    22    24 1
    26    24    29 ar
    27    24    25 ar
    28    25    26 ar
    29    26    27 ar
    30    27    28 ar
    31    28    29 ar

@<TRIPOS>MOLECULE
ZINC04869058_replica-1.pdb
 25 27 0 0 0
SMALL
GASTEIGER

@<TRIPOS>ATOM
       1  C1          5.3980   34.0050   54.4160  C.3       1 <0>        -0.1797
       2  C2          6.2420   33.7810   55.6720  C.3       1 <0>         0.1177
       3  N1          6.3880   35.0460   56.3950  N.pl3     1 <0>        -0.6165
       4  C3          5.4810   36.1610   56.1110  C.3       1 <0>         0.1597
       5  C4          4.2180   35.9980   56.9180  C.ar      1 <0>        -0.1075
       6  C5          2.9850   36.1440   56.3090  C.ar      1 <0>        -0.1043
       7  C6          1.8260   35.9900   57.0480  C.ar      1 <0>        -0.1196
       8  C7          1.9010   35.7010   58.3970  C.ar      1 <0>        -0.1165
       9  C8          3.1340   35.5600   59.0080  C.ar      1 <0>        -0.1224
      10  C9          4.2920   35.7090   58.2670  C.ar      1 <0>        -0.1053
      11  C10         7.3890   35.1890   57.3560  C.ar      1 <0>         0.2369
      12  C11         7.9440   36.4410   57.6000  C.ar      1 <0>        -0.2048
      13  C12         8.9280   36.5860   58.5530  C.ar      1 <0>        -0.0310
      14  C13         9.3760   35.4730   59.2680  C.ar      1 <0>        -0.1132
      15  C14         8.8200   34.2150   59.0170  C.ar      1 <0>        -0.0415
      16  C15         7.8320   34.0780   58.0660  C.ar      1 <0>        -0.2004
      17  C16        10.4340   35.6220   60.2840  C.2       1 <0>         0.1057
      18  N2         10.7910   34.6020   61.0040  N.2       1 <0>        -0.2463
      19  N3         11.7970   34.7430   61.9690  N.pl3     1 <0>        -0.5866
      20  C17        12.3710   33.6120   62.5480  C.ar      1 <0>         0.2162
      21  C18        13.7230   33.6030   62.8700  C.ar      1 <0>        -0.1610
      22  C19        14.2860   32.4830   63.4490  C.ar      1 <0>        -0.0833
      23  C20        13.5100   31.3670   63.6980  C.ar      1 <0>        -0.1671
      24  C21        12.1650   31.3700   63.3740  C.ar      1 <0>        -0.0790
      25  C22        11.5940   32.4880   62.8000  C.ar      1 <0>        -0.1864
@<TRIPOS>BOND
     1     1     2 1
     2     2     3 1
     3     3     4 1
     4     3    11 1
     5     4     5 1
     6     5    10 ar
     7     5     6 ar
     8     6     7 ar
     9     7     8 ar
    10     8     9 ar
    11     9    10 ar
    12    11    16 ar
    13    11    12 ar
    14    12    13 ar
    15    13    14 ar
    16    14    15 ar
    17    14    17 1
    18    15    16 ar
    19    17    18 2
    20    18    19 1
    21    19    20 1
    22    20    25 ar
    23    20    21 ar
    24    21    22 ar
    25    22    23 ar
    26    23    24 ar
    27    24    25 ar

@<TRIPOS>MOLECULE
ZINC54500248_replica-1.pdb
 26 27 0 0 0
SMALL
GASTEIGER

@<TRIPOS>ATOM
       1  C1          2.6400   31.0140   58.7820  C.3       1 <0>        -0.1555
       2  C2          2.1060   32.2990   58.1460  C.3       1 <0>        -0.0180
       3  C3          3.0670   33.4530   58.4420  C.3       1 <0>        -0.1546
       4  C4          1.9890   32.1090   56.6330  C.3       1 <0>        -0.1335
       5  C5          0.6390   31.5260   56.3020  C.2       1 <0>         0.5181
       6  O1         -0.2620   32.2520   55.9390  O.2       1 <0>        -0.5114
       7  N1          0.4330   30.1990   56.4100  N.am      1 <0>        -0.7341
       8  C6         -0.8800   29.6320   56.0890  C.3       1 <0>         0.2313
       9  C7         -1.3950   28.8560   57.2740  C.ar      1 <0>        -0.0840
      10  C8         -0.7730   28.9760   58.5030  C.ar      1 <0>        -0.1015
      11  C9         -1.2460   28.2640   59.5890  C.ar      1 <0>        -0.1211
      12  C10        -2.3400   27.4310   59.4460  C.ar      1 <0>        -0.1215
      13  C11        -2.9620   27.3110   58.2170  C.ar      1 <0>        -0.1196
      14  C12        -2.4920   28.0260   57.1310  C.ar      1 <0>        -0.1023
      15  C13        -0.7520   28.7130   54.9020  C.ar      1 <0>        -0.1188
      16  C14         0.0110   27.5640   54.9960  C.ar      1 <0>        -0.0700
      17  C15         0.1280   26.7200   53.9090  C.ar      1 <0>        -0.1467
      18  C16        -0.5200   27.0260   52.7220  C.ar      1 <0>         0.1265
      19  C17        -1.2850   28.1780   52.6290  C.ar      1 <0>        -0.2037
      20  C18        -1.4050   29.0170   53.7200  C.ar      1 <0>        -0.0635
      21  O2         -0.4050   26.1970   51.6500  O.3       1 <0>        -0.3182
      22  C19        -0.6130   24.8030   51.8820  C.3       1 <0>         0.0269
      23  C20         0.7280   32.6200   58.7280  C.3       1 <0>        -0.1760
      24  C21         0.5960   34.1100   58.9140  C.2       1 <0>         0.4942
      25  O3          0.3280   34.8220   57.9610  O.co2     1 <0>        -0.6809
      26  O4          0.7570   34.6040   60.0170  O.co2     1 <0>        -0.7106
@<TRIPOS>BOND
     1     1     2 1
     2     2     3 1
     3     2     4 1
     4     2    23 1
     5     4     5 1
     6     5     6 2
     7     5     7 am
     8     7     8 1
     9     8     9 1
    10     8    15 1
    11     9    14 ar
    12     9    10 ar
    13    10    11 ar
    14    11    12 ar
    15    12    13 ar
    16    13    14 ar
    17    15    20 ar
    18    15    16 ar
    19    16    17 ar
    20    17    18 ar
    21    18    19 ar
    22    18    21 1
    23    19    20 ar
    24    21    22 1
    25    23    24 1
    26    24    25 2
    27    24    26 1

@<TRIPOS>MOLECULE
ZINC40741879_replica-1.pdb
 28 29 0 0 0
SMALL
GASTEIGER

@<TRIPOS>ATOM
      1  C3        -0.1560   29.7630   57.6420 C.ar    0  <0>0        0.1727
      2  C4         0.1180   30.9820   58.2420 C.ar    0  <0>0        0.0338
      3  C5         0.0320   32.1500   57.5080 C.ar    0  <0>0       -0.0397
      4  C6        -0.3280   32.1050   56.1730 C.ar    0  <0>0        0.0083
      5  C7        -0.6030   30.8920   55.5680 C.ar    0  <0>0        0.0942
      6  C8        -0.5110   29.7170   56.2980 C.ar    0  <0>0        0.1831
      7 Cl         -1.0550   30.8410   53.8920 Cl      0  <0>0       -0.0790
      8  C17        0.3300   33.4730   58.1620 C.3     0  <0>0       -0.0541
      9  N1         0.0950   34.5590   57.2010 N.4     0  <0>0        0.3865
     10  H19        0.2870   34.2280   56.2670 H       0  <0>0       -0.0840
     11  H31       -0.8660   34.8590   57.2600 H       0  <0>0       -0.0840
     12  C18        0.9820   35.6890   57.5110 C.3     0  <0>0       -0.0813
     13  C19        2.4340   35.2070   57.5270 C.3     0  <0>0       -0.0233
     14  C20        3.0310   35.3370   56.1240 C.3     0  <0>0       -0.0021
     15  C21        4.3430   36.1180   56.1980 C.3     0  <0>0       -0.0001
     16  C22        3.2970   33.9420   55.5530 C.3     0  <0>0       -0.0001
     17  O1        -0.0710   28.6140   58.3630 O.3     0  <0>0       -0.4724
     18  C2        -1.0700   28.4010   59.3630 C.3     0  <0>0        0.2057
     19  C1        -2.1650   27.4890   58.8050 C.3     0  <0>0        0.0512
     20  O2        -0.7760   28.5230   55.7020 O.3     0  <0>0       -0.4667
     21  C9         0.3390   27.8000   55.1760 C.3     0  <0>0        0.2322
     22  C10       -0.0900   27.0420   53.9460 C.ar    0  <0>0        0.0209
     23  C15       -0.8080   27.6830   52.9540 C.ar    0  <0>0       -0.0049
     24  C14       -1.1970   26.9880   51.8240 C.ar    0  <0>0       -0.0220
     25  C13       -0.8770   25.6490   51.6910 C.ar    0  <0>0       -0.0043
     26  C16       -1.9750   27.6880   50.7400 C.3     0  <0>0        0.0310
     27  C12       -0.1630   25.0070   52.6850 C.ar    0  <0>0       -0.0005
     28  C11        0.2300   25.7030   53.8130 C.ar    0  <0>0       -0.0007
@<TRIPOS>BOND
     1    26    24    1
     2    25    24   ar
     3    25    27   ar
     4    24    23   ar
     5    27    28   ar
     6    23    22   ar
     7    28    22   ar
     8     7     5    1
     9    22    21    1
    10    21    20    1
    11    16    14    1
    12     5     4   ar
    13     5     6   ar
    14    20     6    1
    15    14    15    1
    16    14    13    1
    17     4     3   ar
    18    10     9    1
    19     6     1   ar
    20     9    11    1
    21     9    12    1
    22     9     8    1
    23     3     8    1
    24     3     2   ar
    25    12    13    1
    26     1     2   ar
    27     1    17    1
    28    17    18    1
    29    19    18    1


@<TRIPOS>MOLECULE
CHEMBL849_replica-1.pdb
 18 19 0 0 0
SMALL
GASTEIGER

@<TRIPOS>ATOM
      1  C1        10.0300   35.0350   59.3230 C.ar    0  <0>0        0.0147
      2  C2         9.1740   35.5470   58.3660 C.ar    0  <0>0        0.0415
      3  C3         8.5830   36.7850   58.5550 C.ar    0  <0>0        0.1788
      4  C4         8.8510   37.5120   59.7110 C.ar    0  <0>0        0.1692
      5  C5         9.7090   36.9960   60.6680 C.ar    0  <0>0        0.0512
      6  C6        10.2960   35.7580   60.4730 C.ar    0  <0>0        0.0609
      7 Cl         11.3710   35.1110   61.6730 Cl      0  <0>0       -0.0821
      8  O2         7.7420   37.2900   57.6120 O.3     0  <0>0       -0.4496
      9  C7         6.6120   36.5910   57.3250 C.ar    0  <0>0        0.1559
     10  C12        6.3930   36.1210   56.0370 C.ar    0  <0>0        0.0929
     11  C11        5.2450   35.4060   55.7500 C.ar    0  <0>0        0.0259
     12 Cl          7.5620   36.4260   54.7900 Cl      0  <0>0       -0.0790
     13  C10        4.3110   35.1690   56.7410 C.ar    0  <0>0        0.0587
     14  C9         4.5250   35.6410   58.0240 C.ar    0  <0>0        0.0146
     15 Cl          2.8670   34.2770   56.3750 Cl      0  <0>0       -0.0822
     16  C8         5.6730   36.3500   58.3180 C.ar    0  <0>0        0.0392
     17  O1         8.2720   38.7290   59.9010 O.3     0  <0>0       -0.5028
     18  H4         7.3980   38.8150   59.4980 H       0  <0>0        0.2923
@<TRIPOS>BOND
     1    12    10    1
     2    11    10   ar
     3    11    13   ar
     4    10     9   ar
     5    15    13    1
     6    13    14   ar
     7     9     8    1
     8     9    16   ar
     9     8     3    1
    10    14    16   ar
    11     2     3   ar
    12     2     1   ar
    13     3     4   ar
    14     1     6   ar
    15    18    17    1
    16     4    17    1
    17     4     5   ar
    18     6     5   ar
    19     6     7    1


@<TRIPOS>MOLECULE
ZINC51362871_replica-1.pdb
 21 23 0 0 0
SMALL
GASTEIGER

@<TRIPOS>ATOM
      1  C1         6.8750   35.3690   57.7410 C.3     0  <0>0        0.1369
      2  N1         7.3690   35.8950   59.0170 N.ar    0  <0>0       -0.2601
      3  C2         8.6050   35.6180   59.6000 C.ar    0  <0>0        0.1000
      4  C3         9.6840   34.8360   59.2190 C.ar    0  <0>0        0.0202
      5  C4        10.7990   34.7600   60.0300 C.ar    0  <0>0       -0.0014
      6  C5        10.8420   35.4640   61.2210 C.ar    0  <0>0       -0.0046
      7  C6         9.7720   36.2460   61.6070 C.ar    0  <0>0        0.0360
      8  C7         8.6480   36.3280   60.8000 C.ar    0  <0>0        0.1657
      9  O1         7.4740   36.9970   60.9130 O.2     0  <0>0       -0.4068
     10  C8         6.7120   36.7380   59.8390 C.ar    0  <0>0        0.4220
     11  O2         5.6020   37.1910   59.6390 O.2     0  <0>0       -0.2226
     12  C9        12.0620   35.3740   62.1010 C.3     0  <0>0        0.1036
     13 Br         11.8020   36.4910   63.6990 Br      0  <0>0       -0.0719
     14  C10       12.2760   33.9420   62.5180 C.ar    0  <0>0        0.0198
     15  C15       13.5620   33.4530   62.6800 C.ar    0  <0>0        0.1395
     16  C14       13.7590   32.1400   63.0690 C.ar    0  <0>0        0.0590
     17  F1        14.6240   34.2610   62.4630 F       0  <0>0       -0.2044
     18  C13       12.6700   31.3130   63.2840 C.ar    0  <0>0        0.1424
     19  C12       11.3860   31.8020   63.1170 C.ar    0  <0>0        0.0295
     20  F2        12.8610   30.0290   63.6600 F       0  <0>0       -0.2041
     21  C11       11.1890   33.1150   62.7340 C.ar    0  <0>0        0.0014
@<TRIPOS>BOND
     1     1     2    1
     2     2     3   ar
     3     2    10   ar
     4     4     3   ar
     5     4     5   ar
     6     3     8   ar
     7    11    10    2
     8    10     9   ar
     9     5     6   ar
    10     8     9   ar
    11     8     7   ar
    12     6     7   ar
    13     6    12    1
    14    12    14    1
    15    12    13    1
    16    17    15    1
    17    14    15   ar
    18    14    21   ar
    19    15    16   ar
    20    21    19   ar
    21    16    18   ar
    22    19    18   ar
    23    18    20    1


@<TRIPOS>MOLECULE
ZINC34731564_replica-1.pdb
 28 31 0 0 0
SMALL
GASTEIGER

@<TRIPOS>ATOM
       1  C1          1.5960   35.0040   56.7100  C.3       1 <0>        -0.1316
       2  C2          2.2250   35.8330   57.8330  C.3       1 <0>        -0.0821
       3  C3          2.7820   34.9100   58.8870  C.2       1 <0>        -0.0648
       4  C4          2.0580   34.3440   59.8350  C.2       1 <0>        -0.1296
       5  C5          2.9910   33.5030   60.6750  C.3       1 <0>        -0.0044
       6  C6          4.3420   33.6860   60.0510  C.2       1 <0>        -0.2239
       7  C7          4.2160   34.5180   58.9840  C.2       1 <0>        -0.0198
       8  C8          5.4590   34.8110   58.2360  C.2       1 <0>        -0.2235
       9  C9          5.6270   35.6750   57.0490  C.2       1 <0>         0.5709
      10  O1          4.6700   36.2520   56.5660  O.2       1 <0>        -0.4840
      11  N1          6.8510   35.8140   56.5090  N.am      1 <0>        -0.5482
      12  C10         7.9260   35.1900   57.0180  C.2       1 <0>         0.7094
      13  O2          9.0110   35.3480   56.4920  O.2       1 <0>        -0.5230
      14  N2          7.8260   34.3910   58.0990  N.am      1 <0>        -0.4904
      15  C11         6.6150   34.1980   58.7060  C.2       1 <0>         0.1046
      16  S1          6.0630   33.2700   60.1120  S.3       1 <0>         0.2098
      17  C12         9.0200   33.7270   58.6270  C.3       1 <0>         0.1531
      18  C13         9.6400   34.5850   59.6990  C.ar      1 <0>        -0.1387
      19  C14         9.3740   35.9400   59.7390  C.ar      1 <0>        -0.0566
      20  C15         9.9420   36.7280   60.7230  C.ar      1 <0>        -0.1560
      21  C16        10.7790   36.1590   61.6680  C.ar      1 <0>         0.1144
      22  C17        11.0460   34.8000   61.6250  C.ar      1 <0>        -0.1554
      23  C18        10.4720   34.0140   60.6440  C.ar      1 <0>        -0.0693
      24  F1         11.3360   36.9280   62.6280  F         1 <0>        -0.1351
      25  C19         7.0160   36.6700   55.3320  C.3       1 <0>         0.1388
      26  C20         7.0290   38.1150   55.7600  C.2       1 <0>        -0.1822
      27  C21         7.9090   38.5310   56.6380  C.2       1 <0>        -0.1532
      28  C22         0.5750   34.5070   60.0420  C.3       1 <0>        -0.0939
@<TRIPOS>BOND
     1     1     2 1
     2     2     3 1
     3     3     7 1
     4     3     4 2
     5     4     5 1
     6     4    28 1
     7     5     6 1
     8     6    16 1
     9     6     7 2
    10     7     8 1
    11     8    15 2
    12     8     9 1
    13     9    10 2
    14     9    11 am
    15    11    12 am
    16    11    25 1
    17    12    13 2
    18    12    14 am
    19    14    15 1
    20    14    17 1
    21    15    16 1
    22    17    18 1
    23    18    23 ar
    24    18    19 ar
    25    19    20 ar
    26    20    21 ar
    27    21    22 ar
    28    21    24 1
    29    22    23 ar
    30    25    26 1
    31    26    27 2

@<TRIPOS>MOLECULE
ZINC34840760_replica-1.pdb
 20 21 0 0 0
SMALL
GASTEIGER

@<TRIPOS>ATOM
       1  C1         12.3730   29.3350   64.8750  C.3       1 <0>        -0.1212
       2  C2         12.5540   30.6260   64.1180  C.ar      1 <0>        -0.0746
       3  C3         13.7940   31.2350   64.0760  C.ar      1 <0>        -0.1218
       4  C4         13.9600   32.4190   63.3820  C.ar      1 <0>        -0.1025
       5  C5         12.8860   32.9940   62.7300  C.ar      1 <0>        -0.1228
       6  C6         11.6450   32.3850   62.7710  C.ar      1 <0>        -0.0991
       7  C7         11.4810   31.1990   63.4610  C.ar      1 <0>        -0.1194
       8  C8         13.0660   34.2850   61.9750  C.3       1 <0>         0.1568
       9  N1         12.0160   35.2310   62.3660  N.pl3     1 <0>        -0.6116
      10  C9         11.9950   35.7800   63.7240  C.3       1 <0>         0.0829
      11  C10        11.0360   35.6070   61.4450  C.ar      1 <0>         0.2505
      12  C11        10.8110   34.8330   60.3130  C.ar      1 <0>        -0.1934
      13  C12         9.8410   35.2080   59.4050  C.ar      1 <0>        -0.0345
      14  C13         9.0950   36.3530   59.6200  C.ar      1 <0>        -0.2188
      15  C14         9.3170   37.1260   60.7450  C.ar      1 <0>        -0.0667
      16  C15        10.2820   36.7530   61.6600  C.ar      1 <0>        -0.1906
      17  C16         8.0380   36.7590   58.6240  C.3       1 <0>         0.0897
      18  C17         8.4070   36.2230   57.2400  C.3       1 <0>        -0.1777
      19  N2          7.9520   38.2250   58.5750  N.4       1 <0>        -0.5087
      20  C18         8.5620   38.7080   57.3280  C.3       1 <0>        -0.0514
@<TRIPOS>BOND
     1     1     2 1
     2     2     7 ar
     3     2     3 ar
     4     3     4 ar
     5     4     5 ar
     6     5     6 ar
     7     5     8 1
     8     6     7 ar
     9     8     9 1
    10     9    10 1
    11     9    11 1
    12    11    16 ar
    13    11    12 ar
    14    12    13 ar
    15    13    14 ar
    16    14    15 ar
    17    14    17 1
    18    15    16 ar
    19    17    18 1
    20    17    19 1
    21    19    20 1

@<TRIPOS>MOLECULE
ZINC13021313_replica-1.pdb
 29 31 0 0 0
SMALL
GASTEIGER

@<TRIPOS>ATOM
       1  C1          3.7860   35.8220   57.8370  C.3       1 <0>        -0.1135
       2  C2          5.0640   35.2600   57.2700  C.ar      1 <0>        -0.0165
       3  C3          5.9660   36.0770   56.6110  C.ar      1 <0>        -0.1819
       4  C4          7.1320   35.5330   56.1010  C.ar      1 <0>         0.1180
       5  N1          7.4040   34.2500   56.2370  N.ar      1 <0>        -0.4997
       6  C5          6.5740   33.4210   56.8540  C.ar      1 <0>         0.1099
       7  C6          5.3690   33.9000   57.3990  C.ar      1 <0>        -0.1170
       8  C7          4.4440   32.9860   58.0910  C.2       1 <0>         0.5010
       9  O1          4.5160   32.8470   59.2960  O.co2     1 <0>        -0.6173
      10  S1          6.9860   31.7150   56.9990  S.3       1 <0>         0.0510
      11  C8          8.5150   31.8410   57.9600  C.3       1 <0>        -0.1560
      12  C9          8.2870   32.7380   59.1500  C.2       1 <0>         0.5348
      13  O2          7.5890   32.3620   60.0670  O.2       1 <0>        -0.5095
      14  N2          8.8610   33.9570   59.1950  N.am      1 <0>        -0.7234
      15  C10         8.6390   34.8280   60.3510  C.3       1 <0>         0.2287
      16  C11         9.9320   34.9930   61.1100  C.ar      1 <0>        -0.0888
      17  C12        10.7850   33.9170   61.2630  C.ar      1 <0>        -0.1016
      18  C13        11.9720   34.0690   61.9560  C.ar      1 <0>        -0.1208
      19  C14        12.3000   35.2950   62.5030  C.ar      1 <0>        -0.1190
      20  C15        11.4440   36.3700   62.3540  C.ar      1 <0>        -0.1186
      21  C16        10.2590   36.2180   61.6580  C.ar      1 <0>        -0.1004
      22  C17         8.1590   36.1770   59.8790  C.ar      1 <0>        -0.0834
      23  C18         8.9460   36.9320   59.0290  C.ar      1 <0>        -0.1102
      24  C19         8.5020   38.1660   58.5920  C.ar      1 <0>        -0.1157
      25  C20         7.2780   38.6500   59.0130  C.ar      1 <0>        -0.1191
      26  C21         6.4950   37.8970   59.8680  C.ar      1 <0>        -0.1158
      27  C22         6.9350   36.6600   60.3010  C.ar      1 <0>        -0.1036
      28  C23         8.1120   36.4250   55.3840  C.3       1 <0>        -0.0921
      29  O3          3.5180   32.3050   57.3880  O.co2     1 <0>        -0.7391
@<TRIPOS>BOND
     1     1     2 1
     2     2     7 ar
     3     2     3 ar
     4     3     4 ar
     5     4     5 ar
     6     4    28 1
     7     5     6 ar
     8     6     7 ar
     9     6    10 1
    10     7     8 1
    11     8     9 2
    12     8    29 1
    13    10    11 1
    14    11    12 1
    15    12    13 2
    16    12    14 am
    17    14    15 1
    18    15    16 1
    19    15    22 1
    20    16    21 ar
    21    16    17 ar
    22    17    18 ar
    23    18    19 ar
    24    19    20 ar
    25    20    21 ar
    26    22    27 ar
    27    22    23 ar
    28    23    24 ar
    29    24    25 ar
    30    25    26 ar
    31    26    27 ar

@<TRIPOS>MOLECULE
ZINC02727497_replica-1.pdb
 34 37 0 0 0
SMALL
GASTEIGER

@<TRIPOS>ATOM
       1  C1          8.4740   38.7210   56.6240  C.3       1 <0>        -0.1252
       2  C2          7.6440   37.5270   57.0190  C.ar      1 <0>        -0.0620
       3  C3          6.6190   37.0960   56.1970  C.ar      1 <0>        -0.1150
       4  C4          5.8570   36.0010   56.5600  C.ar      1 <0>        -0.0568
       5  C5          6.1190   35.3380   57.7450  C.ar      1 <0>        -0.1064
       6  C6          7.1440   35.7700   58.5660  C.ar      1 <0>        -0.0851
       7  C7          7.9060   36.8640   58.2040  C.ar      1 <0>        -0.0948
       8  C8          9.0220   37.3360   59.1000  C.3       1 <0>         0.1000
       9  O1          8.8380   36.7990   60.4120  O.3       1 <0>        -0.3016
      10  C9          9.9080   36.1840   60.9820  C.ar      1 <0>         0.1258
      11  C10        10.5690   36.7860   62.0430  C.ar      1 <0>        -0.1825
      12  C11        11.6530   36.1560   62.6250  C.ar      1 <0>        -0.1123
      13  C12        12.0860   34.9330   62.1430  C.ar      1 <0>         0.0596
      14  C13        11.4300   34.3350   61.0810  C.ar      1 <0>        -0.1121
      15  C14        10.3420   34.9590   60.5000  C.ar      1 <0>        -0.1190
      16  F1         13.1490   34.3220   62.7100  F         1 <0>        -0.1403
      17  C15         5.2840   34.1480   58.1430  C.3       1 <0>        -0.0274
      18  C16         6.2000   33.0010   58.5750  C.3       1 <0>        -0.0352
      19  C17         7.2880   32.7360   57.5610  C.3       1 <0>        -0.1153
      20  C18         6.9430   31.5610   56.6490  C.3       1 <0>        -0.1213
      21  C19         6.7360   30.3160   57.5220  C.3       1 <0>        -0.0919
      22  C20         5.5840   30.5930   58.4530  C.2       1 <0>        -0.1376
      23  C21         5.3450   31.8110   58.8960  C.2       1 <0>        -0.0548
      24  C22         4.1340   32.0560   59.7230  C.2       1 <0>        -0.1442
      25  C23         3.6950   33.3280   59.8980  C.2       1 <0>         0.2540
      26  C24         4.3790   34.5280   59.3160  C.3       1 <0>         0.2105
      27  C25         5.1920   35.1710   60.3620  C.1       1 <0>         0.1947
      28  N1          5.8190   35.6670   61.1690  N.1       1 <0>        -0.3441
      29  C26         3.3610   35.4820   58.8470  C.1       1 <0>         0.1963
      30  N2          2.5760   36.2180   58.4860  N.1       1 <0>        -0.3547
      31  N3          2.5660   33.5260   60.6420  N.pl3     1 <0>        -0.8637
      32  C27         3.4390   30.9620   60.3310  C.1       1 <0>         0.2667
      33  N4          2.8880   30.0930   60.8120  N.1       1 <0>        -0.4325
      34  C28         4.7410   35.5300   55.6650  C.3       1 <0>        -0.1328
@<TRIPOS>BOND
     1     1     2 1
     2     2     7 ar
     3     2     3 ar
     4     3     4 ar
     5     4     5 ar
     6     4    34 1
     7     5     6 ar
     8     5    17 1
     9     6     7 ar
    10     7     8 1
    11     8     9 1
    12     9    10 1
    13    10    15 ar
    14    10    11 ar
    15    11    12 ar
    16    12    13 ar
    17    13    14 ar
    18    13    16 1
    19    14    15 ar
    20    17    26 1
    21    17    18 1
    22    18    23 1
    23    18    19 1
    24    19    20 1
    25    20    21 1
    26    21    22 1
    27    22    23 2
    28    23    24 1
    29    24    25 2
    30    24    32 1
    31    25    26 1
    32    25    31 1
    33    26    27 1
    34    26    29 1
    35    27    28 3
    36    29    30 3
    37    32    33 3

@<TRIPOS>MOLECULE
ZINC37778104_replica-1.pdb
 20 21 0 0 0
SMALL
GASTEIGER

@<TRIPOS>ATOM
       1  C1         17.0230   34.4880   64.1950  C.3       1 <0>        -0.1526
       2  C2         15.6110   33.9570   64.4500  C.3       1 <0>         0.0593
       3  O1         14.9180   33.8280   63.2070  O.3       1 <0>        -0.3216
       4  C3         13.7900   33.0690   63.2050  C.ar      1 <0>         0.0631
       5  C4         13.8140   31.7870   63.7300  C.ar      1 <0>        -0.1631
       6  C5         12.6660   31.0160   63.7260  C.ar      1 <0>        -0.1054
       7  C6         11.4920   31.5210   63.2000  C.ar      1 <0>        -0.1060
       8  C7         11.4590   32.7990   62.6740  C.ar      1 <0>        -0.1633
       9  C8         12.6050   33.5800   62.6790  C.ar      1 <0>         0.1895
      10  N1         12.5730   34.8770   62.1540  N.pl3     1 <0>        -0.7407
      11  C9         11.5550   35.8270   62.6110  C.3       1 <0>         0.1709
      12  C10        10.5180   36.0090   61.5330  C.ar      1 <0>        -0.1135
      13  C11        10.6810   35.3920   60.3060  C.ar      1 <0>        -0.1061
      14  C12         9.7280   35.5600   59.3160  C.ar      1 <0>         0.0895
      15  C13         8.6120   36.3430   59.5540  C.ar      1 <0>        -0.1161
      16  C14         8.4490   36.9600   60.7800  C.ar      1 <0>        -0.1259
      17  C15         9.4000   36.7880   61.7730  C.ar      1 <0>         0.1084
      18  F1          9.2380   37.3870   62.9730  F         1 <0>        -0.1266
      19  F2          9.8870   34.9580   58.1170  F         1 <0>        -0.1317
      20  C16        12.6960   29.6220   64.2970  C.3       1 <0>        -0.1086
@<TRIPOS>BOND
     1     1     2 1
     2     2     3 1
     3     3     4 1
     4     4     9 ar
     5     4     5 ar
     6     5     6 ar
     7     6     7 ar
     8     6    20 1
     9     7     8 ar
    10     8     9 ar
    11     9    10 1
    12    10    11 1
    13    11    12 1
    14    12    17 ar
    15    12    13 ar
    16    13    14 ar
    17    14    15 ar
    18    14    19 1
    19    15    16 ar
    20    16    17 ar
    21    17    18 1

@<TRIPOS>MOLECULE
ZINC07606425_replica-1.pdb
 29 32 0 0 0
SMALL
GASTEIGER

@<TRIPOS>ATOM
       1  C1         12.2710   35.2010   62.6760  C.3       1 <0>         0.0246
       2  O1         11.4360   36.2740   62.2370  O.3       1 <0>        -0.3126
       3  C2         10.4400   35.9640   61.3650  C.ar      1 <0>         0.1425
       4  C3          9.1820   36.5280   61.5180  C.ar      1 <0>        -0.1443
       5  C4          8.1720   36.2100   60.6310  C.ar      1 <0>        -0.0584
       6  C5          8.4140   35.3330   59.5900  C.ar      1 <0>        -0.1422
       7  C6          9.6660   34.7660   59.4390  C.ar      1 <0>        -0.0706
       8  C7         10.6810   35.0830   60.3200  C.ar      1 <0>        -0.2039
       9  C8          7.3100   34.9890   58.6240  C.3       1 <0>         0.2406
      10  C9          7.3680   35.9200   57.4410  C.ar      1 <0>        -0.1008
      11  C10         7.6770   35.4260   56.1870  C.ar      1 <0>        -0.1090
      12  C11         7.7250   36.2800   55.1010  C.ar      1 <0>        -0.1186
      13  C12         7.4740   37.6290   55.2700  C.ar      1 <0>        -0.1112
      14  C13         7.1700   38.1230   56.5250  C.ar      1 <0>        -0.1130
      15  C14         7.1180   37.2690   57.6100  C.ar      1 <0>        -0.0989
      16  N1          6.0140   35.1310   59.2930  N.am      1 <0>        -0.6972
      17  C15         5.2130   34.0570   59.4450  C.2       1 <0>         0.5037
      18  O2          5.5650   32.9750   59.0280  O.2       1 <0>        -0.5174
      19  C16         3.8810   34.2040   60.1340  C.3       1 <0>        -0.0280
      20  C17         1.7050   33.1420   59.9790  C.3       1 <0>        -0.0069
      21  C18         0.4200   33.9220   59.6320  C.3       1 <0>        -0.1409
      22  C19         0.7670   34.5820   58.2710  C.3       1 <0>        -0.1343
      23  C20         2.2700   34.9050   58.4560  C.3       1 <0>         0.1331
      24  C21         2.9540   35.0030   57.1160  C.2       1 <0>        -0.2552
      25  C22         3.4860   36.0900   56.5060  C.2       1 <0>        -0.0778
      26  C23         4.0710   35.9420   55.2630  C.2       1 <0>        -0.1728
      27  C24         4.0960   34.7130   54.6900  C.2       1 <0>        -0.1123
      28  S1          3.2810   33.7130   55.9250  S.3       1 <0>         0.0562
      29  N2          2.8030   33.7550   59.2140  N.4       1 <0>        -0.3850
@<TRIPOS>BOND
     1     1     2 1
     2     2     3 1
     3     3     8 ar
     4     3     4 ar
     5     4     5 ar
     6     5     6 ar
     7     6     7 ar
     8     6     9 1
     9     7     8 ar
    10     9    10 1
    11     9    16 1
    12    10    15 ar
    13    10    11 ar
    14    11    12 ar
    15    12    13 ar
    16    13    14 ar
    17    14    15 ar
    18    16    17 am
    19    17    18 2
    20    17    19 1
    21    19    29 1
    22    20    21 1
    23    20    29 1
    24    21    22 1
    25    22    23 1
    26    23    24 1
    27    23    29 1
    28    24    28 1
    29    24    25 2
    30    25    26 1
    31    26    27 2
    32    27    28 1

@<TRIPOS>MOLECULE
ZINC36926928_replica-1.pdb
 20 21 0 0 0
SMALL
GASTEIGER

@<TRIPOS>ATOM
       1  C1          8.6010   34.8200   57.2480  C.3       1 <0>        -0.1196
       2  C2          8.4790   36.2680   57.6450  C.ar      1 <0>        -0.1030
       3  C3          8.5410   37.2570   56.6820  C.ar      1 <0>        -0.0967
       4  C4          8.4300   38.5860   57.0450  C.ar      1 <0>        -0.1248
       5  C5          8.2560   38.9320   58.3730  C.ar      1 <0>        -0.1010
       6  C6          8.1920   37.9480   59.3410  C.ar      1 <0>        -0.1408
       7  C7          8.2970   36.6110   58.9790  C.ar      1 <0>         0.1426
       8  N1          8.2270   35.6140   59.9550  N.pl3     1 <0>        -0.6664
       9  C8          9.3710   35.2440   60.6540  C.ar      1 <0>         0.2810
      10  C9         10.2030   36.2150   61.1940  C.ar      1 <0>        -0.1925
      11  C10        11.3380   35.8450   61.8890  C.ar      1 <0>         0.0028
      12  C11        11.6550   34.5070   62.0530  C.ar      1 <0>        -0.2364
      13  C12        10.8400   33.5280   61.5240  C.ar      1 <0>         0.0281
      14  C13         9.6850   33.8860   60.8240  C.ar      1 <0>        -0.1008
      15  C14         8.8320   32.8750   60.2770  C.1       1 <0>         0.2491
      16  N2          8.1540   32.0730   59.8440  N.1       1 <0>        -0.4042
      17  C15        12.8970   34.1180   62.8130  C.3       1 <0>         0.5148
      18  F1         14.0210   34.3430   62.0130  F         1 <0>        -0.1760
      19  F2         12.9900   34.8860   63.9780  F         1 <0>        -0.1761
      20  F3         12.8300   32.7620   63.1530  F         1 <0>        -0.1760
@<TRIPOS>BOND
     1     1     2 1
     2     2     7 ar
     3     2     3 ar
     4     3     4 ar
     5     4     5 ar
     6     5     6 ar
     7     6     7 ar
     8     7     8 1
     9     8     9 1
    10     9    14 ar
    11     9    10 ar
    12    10    11 ar
    13    11    12 ar
    14    12    13 ar
    15    12    17 1
    16    13    14 ar
    17    14    15 1
    18    15    16 3
    19    17    18 1
    20    17    19 1
    21    17    20 1

@<TRIPOS>MOLECULE
ZINC35047092_replica-1.pdb
 21 22 0 0 0
SMALL
GASTEIGER

@<TRIPOS>ATOM
      1  N1        11.1880   34.5220   60.5450 N.pl3   0  <0>0       -0.3290
      2  H4        11.2790   33.7030   60.0350 H       0  <0>0        0.1471
      3  C6        10.3020   35.5160   60.1170 C.ar    0  <0>0        0.0466
      4  C1        10.0980   36.6480   60.8960 C.ar    0  <0>0        0.0153
      5  C2         9.2220   37.6270   60.4690 C.ar    0  <0>0        0.0143
      6  C3         8.5500   37.4830   59.2690 C.ar    0  <0>0        0.0801
      7  C4         8.7530   36.3560   58.4910 C.ar    0  <0>0        0.1546
      8 Cl          7.4500   38.7170   58.7370 Cl      0  <0>0       -0.0805
      9  C5         9.6270   35.3730   58.9110 C.ar    0  <0>0        0.0392
     10  N2         8.0320   36.2040   57.2080 N.pl3   0  <0>0        0.0586
     11  O1         8.4980   36.6690   56.1930 O.2     0  <0>0       -0.1261
     12  O2         6.9770   35.6150   57.1730 O.2     0  <0>0       -0.1261
     13  C7        11.9770   34.7200   61.7630 C.3     0  <0>0        0.1165
     14  C8        12.1310   33.4030   62.4810 C.ar    0  <0>0        0.0249
     15  C13       13.3830   32.9860   62.8990 C.ar    0  <0>0        0.1382
     16  C12       13.5230   31.7790   63.5630 C.ar    0  <0>0        0.0361
     17  F1        14.4660   33.7590   62.6640 F       0  <0>0       -0.2044
     18  C11       12.4140   30.9860   63.7970 C.ar    0  <0>0        0.0368
     19  C10       11.1640   31.4030   63.3730 C.ar    0  <0>0        0.0066
     20 Br         12.6060   29.3350   64.6970 Br      0  <0>0       -0.0489
     21  C9        11.0240   32.6100   62.7160 C.ar    0  <0>0        0.0001
@<TRIPOS>BOND
     1    11    10    2
     2    12    10    2
     3    10     7    1
     4     7     9   ar
     5     7     6   ar
     6     8     6    1
     7     9     3   ar
     8     6     5   ar
     9     2     1    1
    10     3     1    1
    11     3     4   ar
    12     5     4   ar
    13     1    13    1
    14    13    14    1
    15    14    21   ar
    16    14    15   ar
    17    17    15    1
    18    21    19   ar
    19    15    16   ar
    20    19    18   ar
    21    16    18   ar
    22    18    20    1


@<TRIPOS>MOLECULE
CHEMBL424724_replica-1.pdb
 28 31 0 0 0
SMALL
GASTEIGER

@<TRIPOS>ATOM
       1  C1         -0.4190   25.2690   52.1080  C.ar      1 <0>        -0.1231
       2  C2         -1.2290   25.9550   51.2210  C.ar      1 <0>        -0.1176
       3  C3         -1.6060   27.2560   51.4940  C.ar      1 <0>        -0.1139
       4  C4         -1.1720   27.8730   52.6530  C.ar      1 <0>        -0.0778
       5  C5         -0.3630   27.1870   53.5390  C.ar      1 <0>        -0.1145
       6  C6          0.0150   25.8860   53.2660  C.ar      1 <0>        -0.1181
       7  C7         -1.5820   29.2930   52.9490  C.3       1 <0>        -0.0422
       8  C8         -1.2460   29.6240   54.3790  C.ar      1 <0>        -0.0563
       9  C9         -2.1360   29.3050   55.3890  C.ar      1 <0>        -0.1259
      10  C10        -1.8310   29.6070   56.7040  C.ar      1 <0>        -0.0968
      11  C11        -0.6370   30.2290   57.0130  C.ar      1 <0>        -0.1226
      12  C12         0.2580   30.5510   56.0020  C.ar      1 <0>         0.1456
      13  C13        -0.0480   30.2400   54.6820  C.ar      1 <0>        -0.1377
      14  N1          1.4690   31.1810   56.3100  N.am      1 <0>        -0.6698
      15  C14         1.4930   32.5030   56.5710  C.2       1 <0>         0.5273
      16  O1          0.4540   33.1280   56.6340  O.2       1 <0>        -0.5084
      17  C15         2.8080   33.2050   56.7860  C.3       1 <0>        -0.1235
      18  C16         3.3880   33.7160   55.4460  C.3       1 <0>        -0.1478
      19  C17         4.8800   33.5060   55.5840  C.2       1 <0>         0.5213
      20  O2          5.7210   34.0240   54.8810  O.2       1 <0>        -0.5198
      21  N2          5.1370   32.6640   56.5990  N.am      1 <0>        -0.6155
      22  C18         3.8990   32.2090   57.2410  C.3       1 <0>         0.1165
      23  C19         6.4810   32.2520   57.0120  C.3       1 <0>         0.1616
      24  C20         6.3940   30.9400   57.7940  C.3       1 <0>        -0.1335
      25  C21         7.7970   30.5090   58.2240  C.3       1 <0>        -0.1149
      26  C22         8.4130   31.5920   59.1130  C.3       1 <0>        -0.1232
      27  C23         8.5000   32.9040   58.3310  C.3       1 <0>        -0.1149
      28  C24         7.0970   33.3350   57.9000  C.3       1 <0>        -0.1348
@<TRIPOS>BOND
     1     1     6 ar
     2     1     2 ar
     3     2     3 ar
     4     3     4 ar
     5     4     5 ar
     6     4     7 1
     7     5     6 ar
     8     7     8 1
     9     8    13 ar
    10     8     9 ar
    11     9    10 ar
    12    10    11 ar
    13    11    12 ar
    14    12    13 ar
    15    12    14 1
    16    14    15 am
    17    15    16 2
    18    15    17 1
    19    17    22 1
    20    17    18 1
    21    18    19 1
    22    19    20 2
    23    19    21 am
    24    21    22 1
    25    21    23 1
    26    23    28 1
    27    23    24 1
    28    24    25 1
    29    25    26 1
    30    26    27 1
    31    27    28 1

@<TRIPOS>MOLECULE
ZINC11785388_replica-1.pdb
 27 30 0 0 0
SMALL
GASTEIGER

@<TRIPOS>ATOM
       1  C1          1.5740   35.5450   58.7170  C.3       1 <0>        -0.0943
       2  C2          2.5520   34.6730   59.4600  C.2       1 <0>         0.1152
       3  C3          3.8900   34.8640   59.5440  C.2       1 <0>        -0.2426
       4  C4          4.4240   33.8360   60.3270  C.2       1 <0>         0.0608
       5  N1          3.4430   33.0520   60.6950  N.2       1 <0>        -0.2981
       6  N2          2.2530   33.5560   60.1570  N.pl3     1 <0>        -0.3741
       7  C5          0.9180   32.9790   60.3260  C.3       1 <0>         0.0998
       8  C6          4.6650   35.9920   58.9120  C.3       1 <0>         0.1317
       9  N3          6.1040   35.7120   59.0100  N.pl3     1 <0>        -0.4831
      10  C7          6.7380   36.5670   60.0230  C.3       1 <0>         0.0574
      11  C8          7.8080   35.8240   60.7940  C.3       1 <0>        -0.1075
      12  C9          9.0790   35.5100   60.0280  C.3       1 <0>        -0.0204
      13  S1          8.7170   34.2820   58.7300  S.3       1 <0>        -0.1201
      14  C10         7.9560   35.2870   57.4800  C.ar      1 <0>        -0.1136
      15  C11         6.7360   35.8730   57.7630  C.ar      1 <0>         0.1462
      16  C12         6.1130   36.6470   56.7900  C.ar      1 <0>        -0.1677
      17  C13         6.7230   36.8240   55.5610  C.ar      1 <0>        -0.0824
      18  C14         7.9470   36.2410   55.2910  C.ar      1 <0>        -0.1391
      19  C15         8.5720   35.4660   56.2550  C.ar      1 <0>        -0.0584
      20  C16        10.1120   34.9530   60.9740  C.ar      1 <0>        -0.1098
      21  C17        10.2120   33.5870   61.1610  C.ar      1 <0>        -0.0470
      22  C18        11.1610   33.0750   62.0250  C.ar      1 <0>        -0.1567
      23  C19        12.0070   33.9300   62.7110  C.ar      1 <0>         0.1332
      24  C20        11.9050   35.2980   62.5270  C.ar      1 <0>        -0.1889
      25  C21        10.9570   35.8100   61.6590  C.ar      1 <0>         0.1410
      26  F1         10.8560   37.1450   61.4790  F         1 <0>        -0.1266
      27  F2         12.9320   33.4290   63.5580  F         1 <0>        -0.1284
@<TRIPOS>BOND
     1     1     2 1
     2     2     6 1
     3     2     3 2
     4     3     4 1
     5     3     8 1
     6     4     5 2
     7     5     6 1
     8     6     7 1
     9     8     9 1
    10     9    15 1
    11     9    10 1
    12    10    11 1
    13    11    12 1
    14    12    13 1
    15    12    20 1
    16    13    14 1
    17    14    19 ar
    18    14    15 ar
    19    15    16 ar
    20    16    17 ar
    21    17    18 ar
    22    18    19 ar
    23    20    25 ar
    24    20    21 ar
    25    21    22 ar
    26    22    23 ar
    27    23    24 ar
    28    23    27 1
    29    24    25 ar
    30    25    26 1

@<TRIPOS>MOLECULE
ZINC40354523_replica-1.pdb
 27 28 0 0 0
SMALL
GASTEIGER

@<TRIPOS>ATOM
       1  C1          7.5960   38.4320   57.8240  C.3       1 <0>        -0.1519
       2  C2          8.0500   38.3650   59.2850  C.3       1 <0>        -0.1267
       3  C3          6.9900   37.6370   60.1140  C.3       1 <0>        -0.1363
       4  C4          7.5510   36.2960   60.5930  C.3       1 <0>         0.0474
       5  C5          6.6070   35.1880   60.2020  C.2       1 <0>         0.3957
       6  O1          6.4480   34.2380   60.9410  O.2       1 <0>        -0.4058
       7  C6          5.8840   35.2560   58.9320  C.ar      1 <0>        -0.1721
       8  C7          4.5670   35.7430   58.8960  C.ar      1 <0>        -0.1134
       9  C8          3.8920   35.8050   57.6990  C.ar      1 <0>         0.1009
      10  C9          4.5140   35.3850   56.5180  C.ar      1 <0>        -0.0447
      11  C10         5.8170   34.9030   56.5460  C.ar      1 <0>        -0.2059
      12  C11         6.5080   34.8400   57.7420  C.ar      1 <0>         0.1802
      13  O2          7.7810   34.3740   57.7680  O.3       1 <0>        -0.2820
      14  C12         8.6810   34.8890   56.7850  C.3       1 <0>         0.0192
      15  S1          3.6420   35.4680   54.9890  S.3       1 <0>        -0.0591
      16  C13         4.7390   34.6320   53.8110  C.3       1 <0>        -0.1612
      17  O3          2.6160   36.2760   57.6630  O.3       1 <0>        -0.3038
      18  C14         1.6270   35.5220   58.3680  C.3       1 <0>         0.0224
      19  O4          8.8260   36.0700   59.9890  O.3       1 <0>        -0.2912
      20  C15         9.8270   35.6380   60.8040  C.ar      1 <0>         0.0462
      21  C16        10.5520   36.5480   61.5560  C.ar      1 <0>        -0.1601
      22  C17        11.5690   36.1080   62.3830  C.ar      1 <0>        -0.1413
      23  C18        11.8640   34.7610   62.4650  C.ar      1 <0>        -0.0698
      24  C19        11.1450   33.8460   61.7190  C.ar      1 <0>        -0.1700
      25  C20        10.1200   34.2790   60.8910  C.ar      1 <0>         0.2034
      26  N1          9.3860   33.3540   60.1390  N.pl3     1 <0>        -0.8733
      27  C21        12.9740   34.2870   63.3680  C.3       1 <0>        -0.1124
@<TRIPOS>BOND
     1     1     2 1
     2     2     3 1
     3     3     4 1
     4     4     5 1
     5     4    19 1
     6     5     6 2
     7     5     7 1
     8     7    12 ar
     9     7     8 ar
    10     8     9 ar
    11     9    10 ar
    12     9    17 1
    13    10    11 ar
    14    10    15 1
    15    11    12 ar
    16    12    13 1
    17    13    14 1
    18    15    16 1
    19    17    18 1
    20    19    20 1
    21    20    25 ar
    22    20    21 ar
    23    21    22 ar
    24    22    23 ar
    25    23    24 ar
    26    23    27 1
    27    24    25 ar
    28    25    26 1

@<TRIPOS>MOLECULE
ZINC41463136_replica-1.pdb
 21 22 0 0 0
SMALL
GASTEIGER

@<TRIPOS>ATOM
       1  C1          8.4370   38.3560   57.0290  C.3       1 <0>        -0.1387
       2  C2          8.1140   36.9020   57.3780  C.3       1 <0>        -0.0306
       3  C3          6.6210   36.7710   57.6900  C.3       1 <0>        -0.1388
       4  C4          8.4680   36.0020   56.1930  C.3       1 <0>        -0.1452
       5  C5          8.9180   36.4850   58.5830  C.ar      1 <0>        -0.0718
       6  C6          9.0590   37.3480   59.6520  C.ar      1 <0>        -0.1186
       7  C7          9.7970   36.9650   60.7570  C.ar      1 <0>        -0.1062
       8  C8         10.3930   35.7190   60.7920  C.ar      1 <0>        -0.0716
       9  C9         10.2500   34.8540   59.7230  C.ar      1 <0>        -0.1142
      10  C10         9.5100   35.2360   58.6190  C.ar      1 <0>        -0.1134
      11  C11        11.1980   35.3010   61.9960  C.3       1 <0>        -0.0418
      12  C12        12.4150   34.4940   61.5400  C.3       1 <0>        -0.0703
      13  C13        12.5470   33.2590   62.3930  C.ar      1 <0>        -0.0938
      14  C14        13.7770   32.9120   62.9220  C.ar      1 <0>        -0.0896
      15  C15        13.8980   31.7800   63.7040  C.ar      1 <0>        -0.1513
      16  C16        12.7880   30.9920   63.9580  C.ar      1 <0>         0.0951
      17  C17        11.5580   31.3400   63.4270  C.ar      1 <0>        -0.1498
      18  C18        11.4380   32.4760   62.6490  C.ar      1 <0>        -0.0853
      19  F1         12.9060   29.8840   64.7220  F         1 <0>        -0.1395
      20  C19        11.6650   36.5460   62.7540  C.3       1 <0>         0.0793
      21  O1         12.0830   36.1740   64.0690  O.3       1 <0>        -0.5680
@<TRIPOS>BOND
     1     1     2 1
     2     2     3 1
     3     2     4 1
     4     2     5 1
     5     5    10 ar
     6     5     6 ar
     7     6     7 ar
     8     7     8 ar
     9     8     9 ar
    10     8    11 1
    11     9    10 ar
    12    11    12 1
    13    11    20 1
    14    12    13 1
    15    13    18 ar
    16    13    14 ar
    17    14    15 ar
    18    15    16 ar
    19    16    17 ar
    20    16    19 1
    21    17    18 ar
    22    20    21 1

@<TRIPOS>MOLECULE
ZINC57656983_replica-1.pdb
 23 24 0 0 0
SMALL
GASTEIGER

@<TRIPOS>ATOM
       1  C1         -0.4810   24.9460   51.5110  C.3       1 <0>        -0.1099
       2  C2         -0.4070   25.9850   52.5990  C.ar      1 <0>        -0.1363
       3  C3          0.2310   25.6930   53.7910  C.ar      1 <0>        -0.0712
       4  C4          0.3000   26.6440   54.7890  C.ar      1 <0>        -0.1855
       5  C5         -0.2730   27.8950   54.5970  C.ar      1 <0>         0.2138
       6  C6         -0.9130   28.1850   53.4000  C.ar      1 <0>        -0.1832
       7  C7         -0.9740   27.2310   52.4020  C.ar      1 <0>        -0.0404
       8  C8         -1.6630   27.5460   51.0990  C.3       1 <0>        -0.1183
       9  N1         -0.2050   28.8580   55.6060  N.pl3     1 <0>        -0.7498
      10  C9         -1.4360   29.3920   56.1930  C.3       1 <0>         0.1977
      11  C10        -1.3000   30.9040   56.3770  C.3       1 <0>        -0.0258
      12  N2         -0.3480   31.4320   55.3950  N.pl3     1 <0>        -0.0098
      13  O1         -0.6520   31.4840   54.2260  O.2       1 <0>        -0.1458
      14  O2          0.7400   31.8160   55.7540  O.3       1 <0>        -0.1636
      15  C11        -1.6750   28.7440   57.5330  C.ar      1 <0>        -0.1191
      16  C12        -1.0220   29.2150   58.6560  C.ar      1 <0>        -0.0887
      17  C13        -1.2420   28.6210   59.8850  C.ar      1 <0>        -0.1169
      18  C14        -2.1130   27.5540   59.9890  C.ar      1 <0>        -0.0614
      19  C15        -2.7680   27.0830   58.8670  C.ar      1 <0>        -0.1120
      20  C16        -2.5510   27.6800   57.6390  C.ar      1 <0>        -0.1003
      21  C17        -2.3520   26.9050   61.3280  C.3       1 <0>        -0.0609
      22  C18        -1.0220   26.4140   61.9020  C.3       1 <0>        -0.1451
      23  C19        -2.9760   27.9230   62.2850  C.3       1 <0>        -0.1455
@<TRIPOS>BOND
     1     1     2 1
     2     2     7 ar
     3     2     3 ar
     4     3     4 ar
     5     4     5 ar
     6     5     6 ar
     7     5     9 1
     8     6     7 ar
     9     7     8 1
    10     9    10 1
    11    10    11 1
    12    10    15 1
    13    11    12 1
    14    12    13 2
    15    12    14 1
    16    15    20 ar
    17    15    16 ar
    18    16    17 ar
    19    17    18 ar
    20    18    19 ar
    21    18    21 1
    22    19    20 ar
    23    21    22 1
    24    21    23 1

@<TRIPOS>MOLECULE
ZINC13730043_replica-1.pdb
 30 32 0 0 0
SMALL
GASTEIGER

@<TRIPOS>ATOM
       1  C1          9.8790   36.7570   61.6200  C.3       1 <0>        -0.1591
       2  C2          9.9630   36.3030   60.1620  C.3       1 <0>        -0.1354
       3  C3         10.6750   34.9490   60.0900  C.3       1 <0>        -0.1418
       4  C4         10.2360   34.0800   61.2700  C.3       1 <0>         0.0827
       5  C5         11.4530   33.5390   61.9750  C.ar      1 <0>        -0.1403
       6  C6         11.3870   32.3260   62.6350  C.ar      1 <0>        -0.1165
       7  C7         12.5050   31.8280   63.2790  C.ar      1 <0>        -0.0967
       8  C8         13.6860   32.5460   63.2680  C.ar      1 <0>        -0.0875
       9  C9         13.7510   33.7610   62.6110  C.ar      1 <0>        -0.1055
      10  C10        12.6340   34.2580   61.9650  C.ar      1 <0>        -0.0890
      11  C11         8.1230   33.4530   60.2690  C.3       1 <0>         0.0547
      12  C12         7.5960   32.4940   59.2320  C.ar      1 <0>        -0.1402
      13  C13         8.0580   31.1920   59.1970  C.ar      1 <0>        -0.1167
      14  C14         7.5730   30.3070   58.2520  C.ar      1 <0>        -0.0721
      15  C15         6.6320   30.7260   57.3300  C.ar      1 <0>        -0.1691
      16  C16         6.1690   32.0310   57.3550  C.ar      1 <0>         0.1266
      17  C17         6.6530   32.9200   58.3110  C.ar      1 <0>         0.0791
      18  O1          6.2010   34.2010   58.3410  O.3       1 <0>        -0.3250
      19  C18         6.7270   35.0970   57.3600  C.3       1 <0>         0.1147
      20  C19         6.9720   36.4450   57.9900  C.ar      1 <0>        -0.1298
      21  C20         6.4080   36.7480   59.2140  C.ar      1 <0>        -0.0672
      22  C21         6.6370   37.9820   59.7950  C.ar      1 <0>        -0.1281
      23  C22         7.4220   38.9170   59.1460  C.ar      1 <0>        -0.0826
      24  C23         7.9820   38.6180   57.9180  C.ar      1 <0>        -0.1472
      25  C24         7.7580   37.3810   57.3390  C.ar      1 <0>         0.1076
      26  F1          8.3050   37.0870   56.1390  F         1 <0>        -0.1358
      27  O2          5.2430   32.4440   56.4480  O.3       1 <0>        -0.2992
      28  C25         3.8780   32.4430   56.8670  C.3       1 <0>         0.0500
      29  C26         3.0860   33.4490   56.0320  C.3       1 <0>        -0.1546
      30  N1          9.4180   32.9590   60.7700  N.4       1 <0>        -0.5181
@<TRIPOS>BOND
     1     1     2 1
     2     2     3 1
     3     3     4 1
     4     4     5 1
     5     4    30 1
     6     5    10 ar
     7     5     6 ar
     8     6     7 ar
     9     7     8 ar
    10     8     9 ar
    11     9    10 ar
    12    11    12 1
    13    11    30 1
    14    12    17 ar
    15    12    13 ar
    16    13    14 ar
    17    14    15 ar
    18    15    16 ar
    19    16    17 ar
    20    16    27 1
    21    17    18 1
    22    18    19 1
    23    19    20 1
    24    20    25 ar
    25    20    21 ar
    26    21    22 ar
    27    22    23 ar
    28    23    24 ar
    29    24    25 ar
    30    25    26 1
    31    27    28 1
    32    28    29 1

@<TRIPOS>MOLECULE
ZINC04867356_replica-1.pdb
 23 24 0 0 0
SMALL
GASTEIGER

@<TRIPOS>ATOM
       1  C1          8.0860   38.7440   56.6700  C.3       1 <0>        -0.1736
       2  C2          7.1950   37.6180   56.1420  C.3       1 <0>         0.1151
       3  N1          6.8280   36.7270   57.2460  N.pl3     1 <0>        -0.6207
       4  C3          5.5120   36.0830   57.2600  C.3       1 <0>         0.1150
       5  C4          5.6770   34.5900   57.5470  C.3       1 <0>        -0.1739
       6  C5          7.7300   36.4920   58.2840  C.ar      1 <0>         0.2514
       7  C6          8.8650   35.7190   58.0550  C.ar      1 <0>        -0.2105
       8  C7          9.7600   35.4840   59.0750  C.ar      1 <0>        -0.0259
       9  C8          9.5290   36.0190   60.3440  C.ar      1 <0>        -0.1432
      10  C9          8.3890   36.8030   60.5720  C.ar      1 <0>         0.1945
      11  C10         7.4930   37.0290   59.5430  C.ar      1 <0>        -0.2341
      12  O1          8.1600   37.3320   61.8030  O.3       1 <0>        -0.4793
      13  C11        10.4850   35.7700   61.4380  C.2       1 <0>         0.1083
      14  N2         11.4470   34.9120   61.2760  N.2       1 <0>        -0.2258
      15  N3         12.3560   34.6750   62.3160  N.pl3     1 <0>        -0.5850
      16  C12        12.5180   33.3820   62.8200  C.ar      1 <0>         0.1866
      17  C13        11.4180   32.5460   62.9610  C.ar      1 <0>        -0.1074
      18  C14        11.5810   31.2680   63.4590  C.ar      1 <0>        -0.1205
      19  C15        12.8410   30.8200   63.8200  C.ar      1 <0>         0.0792
      20  C16        13.9400   31.6490   63.6810  C.ar      1 <0>        -0.1477
      21  C17        13.7840   32.9270   63.1770  C.ar      1 <0>         0.0568
      22  F1         14.8580   33.7360   63.0380  F         1 <0>        -0.1354
      23  F2         12.9970   29.5690   64.3080  F         1 <0>        -0.1352
@<TRIPOS>BOND
     1     1     2 1
     2     2     3 1
     3     3     4 1
     4     3     6 1
     5     4     5 1
     6     6    11 ar
     7     6     7 ar
     8     7     8 ar
     9     8     9 ar
    10     9    10 ar
    11     9    13 1
    12    10    11 ar
    13    10    12 1
    14    13    14 2
    15    14    15 1
    16    15    16 1
    17    16    21 ar
    18    16    17 ar
    19    17    18 ar
    20    18    19 ar
    21    19    20 ar
    22    19    23 1
    23    20    21 ar
    24    21    22 1

@<TRIPOS>MOLECULE
ZINC21816164_replica-1.pdb
 20 21 0 0 0
SMALL
GASTEIGER

@<TRIPOS>ATOM
       1  C1         11.4230   31.2400   63.4690  C.ar      1 <0>        -0.1362
       2  C2         12.5760   30.6860   63.9950  C.ar      1 <0>        -0.0687
       3  C3         13.7810   31.3500   63.8710  C.ar      1 <0>        -0.1929
       4  C4         13.8330   32.5780   63.2270  C.ar      1 <0>         0.1216
       5  C5         12.6750   33.1300   62.6990  C.ar      1 <0>        -0.1128
       6  C6         11.4730   32.4600   62.8210  C.ar      1 <0>        -0.0645
       7  C7         12.7290   34.4610   61.9930  C.3       1 <0>         0.1731
       8  N1         11.4860   35.1950   62.2410  N.pl3     1 <0>        -0.7495
       9  C8         10.6950   35.6160   61.1670  C.ar      1 <0>         0.2156
      10  C9         10.0720   36.8570   61.2070  C.ar      1 <0>        -0.1757
      11  C10         9.2940   37.2730   60.1450  C.ar      1 <0>        -0.1014
      12  C11         9.1280   36.4490   59.0430  C.ar      1 <0>         0.0319
      13  C12         9.7430   35.2100   59.0040  C.ar      1 <0>        -0.1020
      14  C13        10.5260   34.7920   60.0620  C.ar      1 <0>        -0.1695
      15  F1          8.3630   36.8560   58.0070  F         1 <0>        -0.1471
      16  O1         15.0160   33.2350   63.1080  O.3       1 <0>        -0.3044
      17  C14        15.5190   33.8810   64.2790  C.3       1 <0>         0.6035
      18  F2         16.6980   34.5650   63.9650  F         1 <0>        -0.1643
      19  F3         15.7840   32.9220   65.2630  F         1 <0>        -0.1643
      20  F4         14.5670   34.7890   64.7560  F         1 <0>        -0.1285
@<TRIPOS>BOND
     1     1     6 ar
     2     1     2 ar
     3     2     3 ar
     4     3     4 ar
     5     4     5 ar
     6     4    16 1
     7     5     6 ar
     8     5     7 1
     9     7     8 1
    10     8     9 1
    11     9    14 ar
    12     9    10 ar
    13    10    11 ar
    14    11    12 ar
    15    12    13 ar
    16    12    15 1
    17    13    14 ar
    18    16    17 1
    19    17    18 1
    20    17    19 1
    21    17    20 1

@<TRIPOS>MOLECULE
ZINC21511525_replica-1.pdb
 20 21 0 0 0
SMALL
GASTEIGER

@<TRIPOS>ATOM
       1  C1         14.9230   33.7040   62.8930  C.3       1 <0>        -0.1087
       2  C2         13.7660   32.7670   63.1210  C.ar      1 <0>        -0.1652
       3  C3         13.9460   31.6120   63.8550  C.ar      1 <0>        -0.0724
       4  C4         12.8860   30.7470   64.0600  C.ar      1 <0>        -0.1791
       5  C5         11.6400   31.0410   63.5360  C.ar      1 <0>        -0.0761
       6  C6         11.4520   32.1980   62.8050  C.ar      1 <0>        -0.2014
       7  C7         12.5150   33.0670   62.5970  C.ar      1 <0>         0.2247
       8  N1         12.3270   34.2370   61.8590  N.pl3     1 <0>        -0.7522
       9  C8         11.2400   35.1550   62.2040  C.3       1 <0>         0.1932
      10  C9         11.8210   36.4130   62.8530  C.3       1 <0>        -0.1644
      11  C10        10.4880   35.5360   60.9550  C.ar      1 <0>        -0.0538
      12  C11        10.3450   34.6210   59.9280  C.ar      1 <0>        -0.1373
      13  C12         9.6510   34.9660   58.7830  C.ar      1 <0>        -0.0755
      14  C13         9.1080   36.2290   58.6570  C.ar      1 <0>        -0.1898
      15  C14         9.2500   37.1500   59.6860  C.ar      1 <0>         0.1110
      16  C15         9.9430   36.8000   60.8360  C.ar      1 <0>        -0.1256
      17  O1          8.7130   38.3930   59.5670  O.3       1 <0>        -0.3189
      18  C16         7.9430   38.6560   58.3920  C.3       1 <0>         0.4093
      19  F1          6.9780   39.6300   58.6740  F         1 <0>        -0.1985
      20  F2          8.7850   39.1150   57.3740  F         1 <0>        -0.1985
@<TRIPOS>BOND
     1     1     2 1
     2     2     7 ar
     3     2     3 ar
     4     3     4 ar
     5     4     5 ar
     6     5     6 ar
     7     6     7 ar
     8     7     8 1
     9     8     9 1
    10     9    10 1
    11     9    11 1
    12    11    16 ar
    13    11    12 ar
    14    12    13 ar
    15    13    14 ar
    16    14    15 ar
    17    15    16 ar
    18    15    17 1
    19    17    18 1
    20    18    19 1
    21    18    20 1

@<TRIPOS>MOLECULE
ZINC40263888_replica-1.pdb
 21 22 0 0 0
SMALL
GASTEIGER

@<TRIPOS>ATOM
       1  C1          2.1590   35.9390   58.5260  C.3       1 <0>        -0.1452
       2  C2          3.2500   35.2830   57.6780  C.3       1 <0>        -0.0589
       3  C3          2.9200   35.4610   56.1940  C.3       1 <0>        -0.1451
       4  C4          4.5770   35.9310   57.9780  C.ar      1 <0>        -0.0724
       5  C5          5.4890   36.1400   56.9610  C.ar      1 <0>        -0.1108
       6  C6          6.7070   36.7340   57.2370  C.ar      1 <0>        -0.1043
       7  C7          7.0110   37.1210   58.5280  C.ar      1 <0>        -0.1168
       8  C8          6.0980   36.9130   59.5450  C.ar      1 <0>        -0.1069
       9  C9          4.8790   36.3220   59.2690  C.ar      1 <0>        -0.1135
      10  C10         8.3380   37.7680   58.8290  C.3       1 <0>         0.1936
      11  C11         9.2010   36.8090   59.6090  C.ar      1 <0>        -0.1344
      12  C12         9.5660   35.6000   59.0480  C.ar      1 <0>        -0.0747
      13  C13        10.3570   34.7180   59.7600  C.ar      1 <0>        -0.1293
      14  C14        10.7840   35.0480   61.0380  C.ar      1 <0>         0.1067
      15  C15        10.4150   36.2620   61.5980  C.ar      1 <0>        -0.1858
      16  C16         9.6290   37.1430   60.8800  C.ar      1 <0>        -0.0682
      17  O1         11.5600   34.1820   61.7410  O.3       1 <0>        -0.3203
      18  C17        12.7430   34.7120   62.3410  C.3       1 <0>         0.4116
      19  F1         12.7290   34.4450   63.7150  F         1 <0>        -0.1977
      20  F2         13.8680   34.1140   61.7620  F         1 <0>        -0.1973
      21  O2          8.1270   38.9530   59.6000  O.3       1 <0>        -0.5454
@<TRIPOS>BOND
     1     1     2 1
     2     2     3 1
     3     2     4 1
     4     4     9 ar
     5     4     5 ar
     6     5     6 ar
     7     6     7 ar
     8     7     8 ar
     9     7    10 1
    10     8     9 ar
    11    10    11 1
    12    10    21 1
    13    11    16 ar
    14    11    12 ar
    15    12    13 ar
    16    13    14 ar
    17    14    15 ar
    18    14    17 1
    19    15    16 ar
    20    17    18 1
    21    18    19 1
    22    18    20 1

@<TRIPOS>MOLECULE
ZINC11733711_replica-1.pdb
 21 22 0 0 0
SMALL
GASTEIGER

@<TRIPOS>ATOM
       1  C1         11.4640   32.8140   62.7070  C.3       1 <0>        -0.1448
       2  C2         11.9390   34.2620   62.5740  C.3       1 <0>        -0.0585
       3  C3         13.4120   34.2800   62.1620  C.3       1 <0>        -0.1444
       4  C4         11.1160   34.9680   61.5280  C.ar      1 <0>        -0.0779
       5  C5         10.7240   34.2950   60.3860  C.ar      1 <0>        -0.1194
       6  C6          9.9670   34.9420   59.4270  C.ar      1 <0>        -0.1100
       7  C7          9.6020   36.2620   59.6110  C.ar      1 <0>        -0.0828
       8  C8          9.9980   36.9370   60.7510  C.ar      1 <0>        -0.1132
       9  C9         10.7500   36.2890   61.7110  C.ar      1 <0>        -0.1146
      10  C10         8.7760   36.9670   58.5660  C.3       1 <0>        -0.0715
      11  C11         7.3260   37.0700   59.0440  C.3       1 <0>        -0.0100
      12  C12         7.0200   38.5180   59.4350  C.3       1 <0>        -0.1447
      13  C13         7.1240   36.1600   60.2570  C.3       1 <0>         0.0853
      14  O1          6.5090   36.9010   61.3120  O.3       1 <0>        -0.5646
      15  C14         6.4010   36.6430   57.9340  C.ar      1 <0>        -0.0675
      16  C15         5.1610   36.1100   58.2340  C.ar      1 <0>        -0.0866
      17  C16         4.3100   35.7220   57.2170  C.ar      1 <0>        -0.1501
      18  C17         4.7030   35.8590   55.8960  C.ar      1 <0>         0.0916
      19  C18         5.9470   36.3880   55.5970  C.ar      1 <0>        -0.1506
      20  C19         6.7940   36.7810   56.6160  C.ar      1 <0>        -0.0877
      21  F1          3.8740   35.4760   54.9010  F         1 <0>        -0.1414
@<TRIPOS>BOND
     1     1     2 1
     2     2     3 1
     3     2     4 1
     4     4     9 ar
     5     4     5 ar
     6     5     6 ar
     7     6     7 ar
     8     7     8 ar
     9     7    10 1
    10     8     9 ar
    11    10    11 1
    12    11    12 1
    13    11    13 1
    14    11    15 1
    15    13    14 1
    16    15    20 ar
    17    15    16 ar
    18    16    17 ar
    19    17    18 ar
    20    18    19 ar
    21    18    21 1
    22    19    20 ar

@<TRIPOS>MOLECULE
CHEMBL264434_replica-1.pdb
 21 22 0 0 0
SMALL
GASTEIGER

@<TRIPOS>ATOM
       1  C1         13.3090   31.4290   63.3500  C.3       1 <0>        -0.1546
       2  C2         14.2600   32.6260   63.3220  C.3       1 <0>        -0.1260
       3  C3         13.7360   33.6700   62.3330  C.3       1 <0>        -0.1212
       4  C4         12.2980   34.0430   62.7000  C.3       1 <0>        -0.1211
       5  C5         11.5690   34.5510   61.4550  C.3       1 <0>        -0.1140
       6  C6         10.8710   35.8740   61.7760  C.3       1 <0>        -0.0834
       7  C7         10.0350   36.3000   60.5970  C.ar      1 <0>        -0.0615
       8  C8          9.9640   35.4950   59.4750  C.ar      1 <0>        -0.1133
       9  C9          9.1980   35.8810   58.3910  C.ar      1 <0>        -0.1066
      10  C10         8.5000   37.0770   58.4260  C.ar      1 <0>         0.0578
      11  C11         8.5710   37.8870   59.5560  C.ar      1 <0>         0.1019
      12  C12         9.3360   37.4920   60.6410  C.ar      1 <0>        -0.1336
      13  O1          7.8870   39.0630   59.5960  O.3       1 <0>        -0.4880
      14  O2          7.7480   37.4600   57.3600  O.3       1 <0>        -0.2599
      15  C13         6.7980   36.5980   56.9060  C.ar      1 <0>         0.0504
      16  C14         5.8030   36.1500   57.7580  C.ar      1 <0>        -0.1396
      17  C15         4.8370   35.2750   57.2950  C.ar      1 <0>        -0.1434
      18  C16         4.8630   34.8450   55.9810  C.ar      1 <0>        -0.0999
      19  C17         5.8530   35.2890   55.1230  C.ar      1 <0>        -0.1720
      20  C18         6.8210   36.1710   55.5800  C.ar      1 <0>         0.2007
      21  N1          7.8210   36.6250   54.7130  N.pl3     1 <0>        -0.8752
@<TRIPOS>BOND
     1     1     2 1
     2     2     3 1
     3     3     4 1
     4     4     5 1
     5     5     6 1
     6     6     7 1
     7     7    12 ar
     8     7     8 ar
     9     8     9 ar
    10     9    10 ar
    11    10    11 ar
    12    10    14 1
    13    11    12 ar
    14    11    13 1
    15    14    15 1
    16    15    20 ar
    17    15    16 ar
    18    16    17 ar
    19    17    18 ar
    20    18    19 ar
    21    19    20 ar
    22    20    21 1

@<TRIPOS>MOLECULE
ZINC39288935_replica-1.pdb
 24 25 0 0 0
SMALL
GASTEIGER

@<TRIPOS>ATOM
      1  N1        12.6510   34.6540   62.2750 N.pl3   0  <0>0       -0.3295
      2  H10       13.1800   34.8260   61.4790 H       0  <0>0        0.1469
      3  C5        12.5810   33.3710   62.7980 C.ar    0  <0>0        0.0510
      4  C4        11.4030   32.6400   62.7000 C.ar    0  <0>0        0.0142
      5  C3        11.3350   31.3640   63.2190 C.ar    0  <0>0       -0.0030
      6  C2        12.4390   30.8000   63.8430 C.ar    0  <0>0       -0.0216
      7  C1        12.3490   29.4070   64.4070 C.3     0  <0>0        0.0310
      8  C7        13.6130   31.5110   63.9550 C.ar    0  <0>0        0.0034
      9  C6        13.7000   32.8030   63.4280 C.ar    0  <0>0        0.0884
     10  C8        14.9540   33.5660   63.5390 C.2     0  <0>0        0.3425
     11  O1        15.6140   33.7970   62.5460 O.2     0  <0>0       -0.2448
     12  O2        15.3700   34.0080   64.7420 O.3     0  <0>0       -0.4413
     13  C9        16.7580   34.3230   64.8740 C.3     0  <0>0        0.2560
     14  C10       11.9270   35.7510   62.9240 C.3     0  <0>0        0.1351
     15  C11       10.8760   36.3080   61.9620 C.3     0  <0>0        0.2265
     16  O3        10.8710   35.5330   60.7610 O.3     0  <0>0       -0.4736
     17  C12        9.9470   35.8590   59.8200 C.ar    0  <0>0        0.1384
     18  C17        9.2290   37.0410   59.9330 C.ar    0  <0>0        0.0335
     19  C16        8.2940   37.3740   58.9720 C.ar    0  <0>0       -0.0083
     20  C15        8.0660   36.5260   57.9030 C.ar    0  <0>0        0.0539
     21  C18        7.5180   38.6620   59.0900 C.3     0  <0>0        0.0320
     22  C14        8.7780   35.3440   57.7920 C.ar    0  <0>0        0.0142
     23 Cl          6.8860   36.9440   56.7000 Cl      0  <0>0       -0.0826
     24  C13        9.7170   35.0090   58.7480 C.ar    0  <0>0        0.0377
@<TRIPOS>BOND
     1    23    20    1
     2    22    20   ar
     3    22    24   ar
     4    20    19   ar
     5    24    17   ar
     6    19    21    1
     7    19    18   ar
     8    17    18   ar
     9    17    16    1
    10    16    15    1
    11     2     1    1
    12    15    14    1
    13     1     3    1
    14     1    14    1
    15    11    10    2
    16     4     3   ar
    17     4     5   ar
    18     3     9   ar
    19     5     6   ar
    20     9    10    1
    21     9     8   ar
    22    10    12    1
    23     6     8   ar
    24     6     7    1
    25    12    13    1


@<TRIPOS>MOLECULE
ZINC11799759_replica-1.pdb
 20 21 0 0 0
SMALL
GASTEIGER

@<TRIPOS>ATOM
       1  C1          8.3140   35.6720   56.7170  C.3       1 <0>         0.0262
       2  O1          8.3600   36.6250   57.7810  O.3       1 <0>        -0.3173
       3  C2          9.1110   36.3020   58.8670  C.ar      1 <0>         0.1294
       4  C3          9.7780   35.0870   58.9140  C.ar      1 <0>        -0.1483
       5  C4         10.5410   34.7610   60.0180  C.ar      1 <0>        -0.0659
       6  C5         10.6390   35.6440   61.0770  C.ar      1 <0>        -0.1180
       7  C6          9.9700   36.8550   61.0350  C.ar      1 <0>        -0.0738
       8  C7          9.2120   37.1880   59.9310  C.ar      1 <0>        -0.2050
       9  C8         11.4710   35.2860   62.2810  C.3       1 <0>        -0.0914
      10  C9         12.6860   34.4680   61.8370  C.3       1 <0>        -0.0553
      11  C10        12.7360   33.1800   62.6170  C.ar      1 <0>        -0.1264
      12  C11        11.6110   32.3850   62.7140  C.ar      1 <0>        -0.0811
      13  C12        11.6570   31.2060   63.4340  C.ar      1 <0>        -0.1527
      14  C13        12.8290   30.8160   64.0540  C.ar      1 <0>        -0.0795
      15  C14        13.9580   31.6040   63.9550  C.ar      1 <0>        -0.2061
      16  C15        13.9160   32.7880   63.2330  C.ar      1 <0>         0.1350
      17  O2         15.0260   33.5650   63.1340  O.3       1 <0>        -0.3126
      18  C16        15.6350   33.9850   64.3570  C.3       1 <0>         0.0259
      19  C17        11.9370   36.5470   62.9630  C.2       1 <0>         0.3515
      20  O3         11.7550   36.6960   64.1470  O.2       1 <0>        -0.4496
@<TRIPOS>BOND
     1     1     2 1
     2     2     3 1
     3     3     8 ar
     4     3     4 ar
     5     4     5 ar
     6     5     6 ar
     7     6     7 ar
     8     6     9 1
     9     7     8 ar
    10     9    10 1
    11     9    19 1
    12    10    11 1
    13    11    16 ar
    14    11    12 ar
    15    12    13 ar
    16    13    14 ar
    17    14    15 ar
    18    15    16 ar
    19    16    17 1
    20    17    18 1
    21    19    20 2

@<TRIPOS>MOLECULE
ZINC65877656_replica-1.pdb
 21 22 0 0 0
SMALL
GASTEIGER

@<TRIPOS>ATOM
      1  N1         8.1710   35.2220   60.0090 N.am    0  <0>0       -0.2536
      2  C8         8.3810   36.1340   61.1360 C.3     0  <0>0        0.1203
      3  C9         9.0240   34.2010   59.8000 C.2     0  <0>0        0.2549
      4  O1         8.9060   33.5010   58.8130 O.2     0  <0>0       -0.2695
      5  C10       10.1020   33.9310   60.7700 C.ar    0  <0>0        0.0815
      6  C15       10.0540   32.7850   61.5720 C.ar    0  <0>0        0.1475
      7  C14       11.0680   32.5350   62.4750 C.ar    0  <0>0        0.0666
      8  F1         9.0220   31.9210   61.4580 F       0  <0>0       -0.2039
      9  C13       12.1270   33.4260   62.5950 C.ar    0  <0>0        0.1410
     10  C12       12.1740   34.5690   61.8050 C.ar    0  <0>0        0.0372
     11  C11       11.1700   34.8240   60.8970 C.ar    0  <0>0        0.0099
     12  O2        13.1190   33.1790   63.4870 O.3     0  <0>0       -0.4714
     13  C16       13.6890   31.8690   63.4780 C.3     0  <0>0        0.2525
     14  C7         7.0830   35.4120   59.1490 C.ar    0  <0>0        0.0502
     15  C2         7.2180   36.2140   58.0250 C.ar    0  <0>0       -0.0077
     16  C1         8.5350   36.8830   57.7270 C.3     0  <0>0        0.0323
     17  C3         6.1430   36.3950   57.1740 C.ar    0  <0>0        0.0037
     18  C4         4.9340   35.7820   57.4460 C.ar    0  <0>0        0.0343
     19  C5         4.7950   34.9870   58.5710 C.ar    0  <0>0        0.0080
     20 Br          3.4660   36.0320   56.2820 Br      0  <0>0       -0.0490
     21  C6         5.8650   34.8020   59.4230 C.ar    0  <0>0        0.0151
@<TRIPOS>BOND
     1    20    18    1
     2    17    18   ar
     3    17    15   ar
     4    18    19   ar
     5    16    15    1
     6    15    14   ar
     7    19    21   ar
     8     4     3    2
     9    14    21   ar
    10    14     1    1
    11     3     1   am
    12     3     5    1
    13     1     2    1
    14     5    11   ar
    15     5     6   ar
    16    11    10   ar
    17     8     6    1
    18     6     7   ar
    19    10     9   ar
    20     7     9   ar
    21     9    12    1
    22    13    12    1


@<TRIPOS>MOLECULE
ZINC01403779_replica-1.pdb
 26 28 0 0 0
SMALL
GASTEIGER

@<TRIPOS>ATOM
       1  C1         13.6100   34.2270   61.8410  C.3       1 <0>        -0.1400
       2  C2         12.2430   34.3800   62.5110  C.3       1 <0>        -0.0273
       3  C3         12.3930   35.1970   63.7960  C.3       1 <0>        -0.1460
       4  C4         11.6820   32.9970   62.8480  C.3       1 <0>        -0.1399
       5  C5         11.3000   35.0890   61.5720  C.ar      1 <0>        -0.0978
       6  C6         10.9180   34.4820   60.3900  C.ar      1 <0>        -0.0778
       7  C7         10.0530   35.1290   59.5280  C.ar      1 <0>        -0.1392
       8  C8          9.5690   36.3890   59.8510  C.ar      1 <0>         0.1140
       9  C9          9.9590   36.9980   61.0350  C.ar      1 <0>        -0.1901
      10  C10        10.8190   36.3440   61.8960  C.ar      1 <0>        -0.0828
      11  O1          8.7180   37.0280   59.0050  O.3       1 <0>        -0.2594
      12  C11         7.4460   36.5620   58.9090  C.ar      1 <0>         0.1110
      13  C12         6.4830   36.9870   59.8170  C.ar      1 <0>        -0.1295
      14  C13         5.1920   36.5160   59.7230  C.ar      1 <0>        -0.0672
      15  C14         4.8500   35.6120   58.7130  C.ar      1 <0>        -0.0903
      16  C15         5.8230   35.1840   57.8060  C.ar      1 <0>        -0.0730
      17  C16         7.1120   35.6620   57.9040  C.ar      1 <0>        -0.1218
      18  C17         3.4690   35.1060   58.6100  C.2       1 <0>         0.2378
      19  C18         3.0580   34.0970   59.4230  C.2       1 <0>        -0.1221
      20  C19         1.6480   33.5740   59.3240  C.3       1 <0>        -0.0624
      21  C20         0.7010   34.7220   58.9680  C.3       1 <0>        -0.1395
      22  C21         1.2700   35.5100   57.8180  C.2       1 <0>         0.5220
      23  O2          0.5250   36.0060   57.0000  O.2       1 <0>        -0.5068
      24  N1          2.6010   35.6640   57.6880  N.am      1 <0>        -0.6531
      25  C22         3.9650   33.5290   60.3730  C.1       1 <0>         0.2569
      26  N2          4.6850   33.0790   61.1260  N.1       1 <0>        -0.4124
@<TRIPOS>BOND
     1     1     2 1
     2     2     3 1
     3     2     4 1
     4     2     5 1
     5     5    10 ar
     6     5     6 ar
     7     6     7 ar
     8     7     8 ar
     9     8     9 ar
    10     8    11 1
    11     9    10 ar
    12    11    12 1
    13    12    17 ar
    14    12    13 ar
    15    13    14 ar
    16    14    15 ar
    17    15    16 ar
    18    15    18 1
    19    16    17 ar
    20    18    24 1
    21    18    19 2
    22    19    20 1
    23    19    25 1
    24    20    21 1
    25    21    22 1
    26    22    23 2
    27    22    24 am
    28    25    26 3

@<TRIPOS>MOLECULE
ZINC22789754_replica-1.pdb
 27 29 0 0 0
SMALL
GASTEIGER

@<TRIPOS>ATOM
       1  C1          3.9200   35.7750   57.9160  C.3       1 <0>        -0.1311
       2  C2          5.0620   36.0580   58.8580  C.ar      1 <0>        -0.0439
       3  C3          5.9330   37.0980   58.5950  C.ar      1 <0>        -0.1186
       4  C4          6.9800   37.3580   59.4600  C.ar      1 <0>        -0.0871
       5  C5          7.1550   36.5780   60.5870  C.ar      1 <0>        -0.1725
       6  C6          6.2830   35.5380   60.8510  C.ar      1 <0>        -0.0867
       7  C7          5.2340   35.2820   59.9890  C.ar      1 <0>        -0.1184
       8  C8          8.2970   36.8610   61.5290  C.3       1 <0>         0.0454
       9  N1          9.5710   36.5710   60.8550  N.4       1 <0>        -0.5075
      10  C9          9.5940   35.1640   60.4360  C.3       1 <0>         0.0907
      11  C10        10.0300   35.0740   58.9720  C.3       1 <0>        -0.0870
      12  C11         8.8910   34.5370   58.1420  C.ar      1 <0>        -0.1680
      13  C12         8.5590   35.1530   56.9490  C.ar      1 <0>        -0.0619
      14  C13         7.5160   34.6640   56.1860  C.ar      1 <0>        -0.1418
      15  C14         6.8020   33.5550   56.6170  C.ar      1 <0>         0.1467
      16  C15         7.1380   32.9400   57.8150  C.ar      1 <0>        -0.2006
      17  C16         8.1860   33.4290   58.5710  C.ar      1 <0>        -0.0968
      18  O1          5.7760   33.0730   55.8690  O.3       1 <0>        -0.3102
      19  C17         5.2360   33.9430   54.8720  C.3       1 <0>         0.0230
      20  C18        10.5670   34.4000   61.2960  C.ar      1 <0>        -0.1830
      21  C19        10.3170   33.0780   61.6150  C.ar      1 <0>        -0.0804
      22  C20        11.2060   32.3750   62.4050  C.ar      1 <0>        -0.1394
      23  C21        12.3530   32.9970   62.8770  C.ar      1 <0>         0.1600
      24  C22        12.6020   34.3230   62.5550  C.ar      1 <0>        -0.1997
      25  C23        11.7130   35.0200   61.7610  C.ar      1 <0>        -0.0425
      26  O2         13.2290   32.3080   63.6550  O.3       1 <0>        -0.3081
      27  C24        13.1650   30.8820   63.5980  C.3       1 <0>         0.0211
@<TRIPOS>BOND
     1     1     2 1
     2     2     7 ar
     3     2     3 ar
     4     3     4 ar
     5     4     5 ar
     6     5     6 ar
     7     5     8 1
     8     6     7 ar
     9     8     9 1
    10     9    10 1
    11    10    11 1
    12    10    20 1
    13    11    12 1
    14    12    17 ar
    15    12    13 ar
    16    13    14 ar
    17    14    15 ar
    18    15    16 ar
    19    15    18 1
    20    16    17 ar
    21    18    19 1
    22    20    25 ar
    23    20    21 ar
    24    21    22 ar
    25    22    23 ar
    26    23    24 ar
    27    23    26 1
    28    24    25 ar
    29    26    27 1

@<TRIPOS>MOLECULE
ZINC27977620_replica-1.pdb
 24 26 0 0 0
SMALL
GASTEIGER

@<TRIPOS>ATOM
       1  C1         -0.2500   29.1870   59.5830  C.3       1 <0>        -0.1156
       2  C2          0.2880   30.5940   59.5580  C.ar      1 <0>        -0.0729
       3  C3          0.4460   31.2940   60.7380  C.ar      1 <0>        -0.1357
       4  C4          0.9410   32.5900   60.7140  C.ar      1 <0>         0.1154
       5  C5          1.2830   33.1810   59.5060  C.ar      1 <0>        -0.1947
       6  C6          1.1200   32.4830   58.3250  C.ar      1 <0>        -0.0781
       7  C7          0.6250   31.1860   58.3480  C.ar      1 <0>         0.1132
       8  N1          0.4650   30.4760   57.1520  N.am      1 <0>        -0.6782
       9  C8         -0.6360   30.6660   56.3970  C.2       1 <0>         0.5672
      10  O1         -1.4510   31.5110   56.7120  O.2       1 <0>        -0.5280
      11  C9         -0.8520   29.8460   55.1890  C.ar      1 <0>        -0.1704
      12  C10        -1.5940   30.3600   54.1170  C.ar      1 <0>        -0.0687
      13  C11        -1.7970   29.6170   52.9910  C.ar      1 <0>        -0.1311
      14  C12        -1.2780   28.3280   52.8990  C.ar      1 <0>         0.1222
      15  C13        -0.5350   27.7970   53.9720  C.ar      1 <0>        -0.1142
      16  C14        -0.3230   28.5600   55.1170  C.ar      1 <0>         0.0062
      17  C15        -0.1390   26.4470   53.5620  C.2       1 <0>        -0.1604
      18  C16        -0.6380   26.2500   52.3310  C.2       1 <0>         0.0737
      19  N2         -1.3210   27.3630   51.9210  N.pl3     1 <0>        -0.4786
      20  C17        -1.9980   27.5060   50.6300  C.3       1 <0>         0.0682
      21  C18        -0.4720   24.9900   51.5220  C.3       1 <0>        -0.0974
      22  C19         0.6740   25.4660   54.3670  C.3       1 <0>        -0.0824
      23  O2          1.0970   33.2790   61.8760  O.3       1 <0>        -0.3182
      24  C20        -0.0180   33.3060   62.7680  C.3       1 <0>         0.0237
@<TRIPOS>BOND
     1     1     2 1
     2     2     7 ar
     3     2     3 ar
     4     3     4 ar
     5     4     5 ar
     6     4    23 1
     7     5     6 ar
     8     6     7 ar
     9     7     8 1
    10     8     9 am
    11     9    10 2
    12     9    11 1
    13    11    16 ar
    14    11    12 ar
    15    12    13 ar
    16    13    14 ar
    17    14    19 1
    18    14    15 ar
    19    15    16 ar
    20    15    17 1
    21    17    18 2
    22    17    22 1
    23    18    19 1
    24    18    21 1
    25    19    20 1
    26    23    24 1

@<TRIPOS>MOLECULE
ZINC35415106_replica-1.pdb
 21 22 0 0 0
SMALL
GASTEIGER

@<TRIPOS>ATOM
      1  C1        11.0690   31.5240   63.1030 C.ar    0  <0>0        0.0272
      2  C2        10.9910   32.6960   62.3740 C.ar    0  <0>0        0.0383
      3  C3        12.1160   33.4910   62.2190 C.ar    0  <0>0        0.1360
      4  C4        13.3180   33.1080   62.7960 C.ar    0  <0>0        0.0249
      5  C5        13.3910   31.9370   63.5240 C.ar    0  <0>0        0.0237
      6  C6        12.2670   31.1450   63.6770 C.ar    0  <0>0        0.1428
      7  O3        12.0410   34.6430   61.5020 O.3     0  <0>0       -0.4709
      8  C8        11.2890   35.7160   62.0720 C.3     0  <0>0        0.2342
      9  C9        10.1060   36.0240   61.1910 C.ar    0  <0>0        0.0491
     10  C14        9.0810   36.8250   61.6650 C.ar    0  <0>0        0.1396
     11  C13        7.9970   37.1120   60.8530 C.ar    0  <0>0        0.0299
     12  F1         9.1400   37.3310   62.9160 F       0  <0>0       -0.2044
     13  C12        7.9330   36.5890   59.5750 C.ar    0  <0>0        0.0090
     14  C11        8.9550   35.7840   59.1050 C.ar    0  <0>0        0.0345
     15  C10       10.0420   35.5020   59.9140 C.ar    0  <0>0        0.0082
     16 Br          8.8680   35.0710   57.3560 Br      0  <0>0       -0.0490
     17  C7        14.5430   33.9700   62.6290 C.3     0  <0>0        0.0969
     18 Br         15.6100   33.9190   64.2800 Br      0  <0>0       -0.0755
     19  N1        12.3480   29.8910   64.4580 N.pl3   0  <0>0        0.0577
     20  O1        11.8980   28.8650   64.0030 O.2     0  <0>0       -0.1261
     21  O2        12.8650   29.8910   65.5510 O.2     0  <0>0       -0.1261
@<TRIPOS>BOND
     1    16    14    1
     2    14    13   ar
     3    14    15   ar
     4    13    11   ar
     5    15     9   ar
     6    11    10   ar
     7     9    10   ar
     8     9     8    1
     9     7     8    1
    10     7     3    1
    11    10    12    1
    12     3     2   ar
    13     3     4   ar
    14     2     1   ar
    15    17     4    1
    16    17    18    1
    17     4     5   ar
    18     1     6   ar
    19     5     6   ar
    20     6    19    1
    21    20    19    2
    22    19    21    2


@<TRIPOS>MOLECULE
ZINC34724370_replica-1.pdb
 33 37 0 0 0
SMALL
GASTEIGER

@<TRIPOS>ATOM
       1  C1          0.6920   26.1260   54.0040  C.3       1 <0>        -0.1161
       2  C2         -0.2830   27.1630   53.5120  C.ar      1 <0>        -0.0819
       3  C3         -0.7530   27.1090   52.2130  C.ar      1 <0>        -0.1112
       4  C4         -1.6480   28.0600   51.7620  C.ar      1 <0>        -0.1093
       5  C5         -2.0760   29.0660   52.6100  C.ar      1 <0>        -0.0775
       6  C6         -1.6060   29.1190   53.9080  C.ar      1 <0>        -0.1075
       7  C7         -0.7140   28.1650   54.3610  C.ar      1 <0>        -0.1018
       8  C8         -2.0710   30.2150   54.8330  C.3       1 <0>         0.1539
       9  N1         -1.6130   29.9310   56.1960  N.am      1 <0>        -0.4919
      10  C9         -0.6010   30.6730   56.7400  C.2       1 <0>         0.1038
      11  C10        -0.1370   30.4350   58.0310  C.2       1 <0>        -0.2247
      12  C11         0.9600   31.3080   58.4990  C.2       1 <0>        -0.0227
      13  C12         1.3970   32.2480   57.6190  C.2       1 <0>        -0.2243
      14  S1          0.3990   32.0210   56.1710  S.3       1 <0>         0.2222
      15  C13         2.5010   33.0310   58.2620  C.3       1 <0>        -0.0044
      16  C14         2.6550   32.4240   59.6380  C.2       1 <0>        -0.1333
      17  C15         1.7690   31.4520   59.7430  C.2       1 <0>        -0.0689
      18  C16         1.5960   30.5920   60.9690  C.3       1 <0>        -0.1148
      19  C17         3.6390   32.8530   60.6970  C.3       1 <0>        -0.0917
      20  C18        -0.8060   29.3390   58.7610  C.2       1 <0>         0.5749
      21  O1         -0.4670   29.0580   59.8960  O.2       1 <0>        -0.4876
      22  N2         -1.7940   28.6550   58.1550  N.am      1 <0>        -0.5478
      23  C19        -2.1940   28.9440   56.9060  C.2       1 <0>         0.7080
      24  O2         -3.0940   28.2990   56.4050  O.2       1 <0>        -0.5193
      25  C20        -2.4560   27.5690   58.8810  C.3       1 <0>         0.1525
      26  C21        -1.8060   26.2570   58.5270  C.ar      1 <0>        -0.1319
      27  C22        -0.6240   26.2430   57.8110  C.ar      1 <0>        -0.0620
      28  C23        -0.0270   25.0400   57.4860  C.ar      1 <0>        -0.1596
      29  C24        -0.6120   23.8480   57.8800  C.ar      1 <0>         0.1104
      30  C25        -1.7950   23.8640   58.5980  C.ar      1 <0>        -0.1595
      31  C26        -2.3880   25.0690   58.9260  C.ar      1 <0>        -0.0616
      32  F1         -0.0280   22.6710   57.5630  F         1 <0>        -0.1375
      33  C27        -3.0510   30.1030   52.1170  C.3       1 <0>        -0.1214
@<TRIPOS>BOND
     1     1     2 1
     2     2     7 ar
     3     2     3 ar
     4     3     4 ar
     5     4     5 ar
     6     5     6 ar
     7     5    33 1
     8     6     7 ar
     9     6     8 1
    10     8     9 1
    11     9    23 am
    12     9    10 1
    13    10    14 1
    14    10    11 2
    15    11    12 1
    16    11    20 1
    17    12    17 1
    18    12    13 2
    19    13    14 1
    20    13    15 1
    21    15    16 1
    22    16    17 2
    23    16    19 1
    24    17    18 1
    25    20    21 2
    26    20    22 am
    27    22    23 am
    28    22    25 1
    29    23    24 2
    30    25    26 1
    31    26    31 ar
    32    26    27 ar
    33    27    28 ar
    34    28    29 ar
    35    29    30 ar
    36    29    32 1
    37    30    31 ar

@<TRIPOS>MOLECULE
ZINC49902924_replica-1.pdb
 22 23 0 0 0
SMALL
GASTEIGER

@<TRIPOS>ATOM
       1  C1          8.8550   36.9770   61.9540  C.3       1 <0>        -0.1455
       2  C2          9.9400   36.8210   60.8860  C.3       1 <0>        -0.0597
       3  C3         10.5920   35.4440   61.0180  C.3       1 <0>        -0.1452
       4  C4          9.3200   36.9550   59.5190  C.ar      1 <0>        -0.0697
       5  C5          8.7960   38.1680   59.1130  C.ar      1 <0>        -0.1114
       6  C6          8.2270   38.2910   57.8600  C.ar      1 <0>        -0.1038
       7  C7          8.1830   37.2010   57.0100  C.ar      1 <0>        -0.1237
       8  C8          8.7090   35.9870   57.4150  C.ar      1 <0>        -0.1056
       9  C9          9.2810   35.8660   58.6680  C.ar      1 <0>        -0.1141
      10  C10         7.5620   37.3350   55.6440  C.3       1 <0>         0.1412
      11  C11         6.0380   37.2970   55.7700  C.3       1 <0>         0.1000
      12  N1          5.6300   36.0360   56.3960  N.pl3     1 <0>        -0.7443
      13  C12         4.3860   35.9380   57.0240  C.ar      1 <0>         0.2177
      14  C13         3.2250   35.8860   56.2620  C.ar      1 <0>        -0.1967
      15  C14         1.9960   35.7900   56.8850  C.ar      1 <0>        -0.0770
      16  C15         1.9210   35.7450   58.2650  C.ar      1 <0>        -0.1761
      17  C16         3.0750   35.7980   59.0270  C.ar      1 <0>        -0.0691
      18  C17         4.3070   35.8880   58.4090  C.ar      1 <0>        -0.1497
      19  C18         5.5650   35.9390   59.2380  C.3       1 <0>        -0.0472
      20  C19         5.5510   37.1960   60.1090  C.3       1 <0>        -0.1440
      21  C20         5.6360   34.6990   60.1330  C.3       1 <0>        -0.1428
      22  O1          7.9990   36.2550   54.8150  O.3       1 <0>        -0.5500
@<TRIPOS>BOND
     1     1     2 1
     2     2     3 1
     3     2     4 1
     4     4     9 ar
     5     4     5 ar
     6     5     6 ar
     7     6     7 ar
     8     7     8 ar
     9     7    10 1
    10     8     9 ar
    11    10    11 1
    12    10    22 1
    13    11    12 1
    14    12    13 1
    15    13    18 ar
    16    13    14 ar
    17    14    15 ar
    18    15    16 ar
    19    16    17 ar
    20    17    18 ar
    21    18    19 1
    22    19    20 1
    23    19    21 1

@<TRIPOS>MOLECULE
CHEMBL258932_replica-1.pdb
 20 21 0 0 0
SMALL
GASTEIGER

@<TRIPOS>ATOM
       1  C1         12.9400   30.6080   63.4200  C.3       1 <0>        -0.1546
       2  C2         12.4850   32.0230   63.0580  C.3       1 <0>        -0.1260
       3  C3         13.6860   32.9710   63.0910  C.3       1 <0>        -0.1212
       4  C4         13.4250   34.1590   62.1650  C.3       1 <0>        -0.1212
       5  C5         11.9480   34.1780   61.7630  C.3       1 <0>        -0.1141
       6  C6         11.3800   35.5830   61.9750  C.3       1 <0>        -0.0837
       7  C7         10.4590   35.9300   60.8340  C.ar      1 <0>        -0.0551
       8  C8         10.3040   35.0510   59.7790  C.ar      1 <0>        -0.1143
       9  C9          9.4600   35.3650   58.7310  C.ar      1 <0>        -0.0950
      10  C10         8.7650   36.5640   58.7350  C.ar      1 <0>         0.0552
      11  C11         8.9200   37.4500   59.7990  C.ar      1 <0>         0.1183
      12  C12         9.7640   37.1260   60.8490  C.ar      1 <0>        -0.1343
      13  O1          8.2410   38.6270   59.8090  O.3       1 <0>        -0.4920
      14  O2          7.9350   36.8740   57.7050  O.3       1 <0>        -0.2361
      15  C13         6.6960   36.3210   57.6960  C.ar      1 <0>         0.2744
      16  C14         6.2940   35.5290   56.6250  C.ar      1 <0>         0.0469
      17  N1          5.0880   34.9930   56.6200  N.ar      1 <0>        -0.4031
      18  C15         4.2630   35.2080   57.6310  C.ar      1 <0>         0.0080
      19  C16         4.6600   35.9930   58.6950  C.ar      1 <0>         0.0948
      20  N2          5.8690   36.5290   58.7100  N.ar      1 <0>        -0.4814
@<TRIPOS>BOND
     1     1     2 1
     2     2     3 1
     3     3     4 1
     4     4     5 1
     5     5     6 1
     6     6     7 1
     7     7    12 ar
     8     7     8 ar
     9     8     9 ar
    10     9    10 ar
    11    10    11 ar
    12    10    14 1
    13    11    12 ar
    14    11    13 1
    15    14    15 1
    16    15    20 ar
    17    15    16 ar
    18    16    17 ar
    19    17    18 ar
    20    18    19 ar
    21    19    20 ar

@<TRIPOS>MOLECULE
CHEMBL264416_replica-1.pdb
 23 24 0 0 0
SMALL
GASTEIGER

@<TRIPOS>ATOM
       1  C1         12.9600   30.6700   63.3890  C.3       1 <0>        -0.1546
       2  C2         12.4830   32.0830   63.0480  C.3       1 <0>        -0.1262
       3  C3         13.6670   33.0500   63.1080  C.3       1 <0>        -0.1209
       4  C4         13.4280   34.2090   62.1390  C.3       1 <0>        -0.1217
       5  C5         11.9690   34.1970   61.6790  C.3       1 <0>        -0.1139
       6  C6         11.3400   35.5660   61.9430  C.3       1 <0>        -0.0804
       7  C7         10.4210   35.9250   60.8030  C.ar      1 <0>        -0.0885
       8  C8         10.2130   35.0250   59.7750  C.ar      1 <0>        -0.0856
       9  C9          9.3700   35.3500   58.7280  C.ar      1 <0>        -0.1771
      10  C10         8.7320   36.5800   58.7080  C.ar      1 <0>         0.0837
      11  C11         8.9420   37.4860   59.7430  C.ar      1 <0>         0.0928
      12  C12         9.7840   37.1520   60.7910  C.ar      1 <0>        -0.1050
      13  O1          8.3180   38.6940   59.7270  O.3       1 <0>        -0.4846
      14  O2          7.9030   36.9000   57.6790  O.3       1 <0>        -0.2419
      15  C13         6.6780   36.3140   57.6390  C.ar      1 <0>         0.0890
      16  C14         5.7970   36.4730   58.7000  C.ar      1 <0>        -0.0760
      17  C15         4.5520   35.8760   58.6570  C.ar      1 <0>        -0.1005
      18  C16         4.1830   35.1230   57.5590  C.ar      1 <0>        -0.0529
      19  C17         5.0590   34.9630   56.5010  C.ar      1 <0>        -0.0347
      20  C18         6.3030   35.5620   56.5350  C.ar      1 <0>        -0.0657
      21  N1          4.6610   34.1530   55.3270  N.pl3     1 <0>         0.0309
      22  O3          3.5010   33.8530   55.1650  O.2       1 <0>        -0.1474
      23  O4          5.4950   33.7930   54.5300  O.3       1 <0>        -0.1505
@<TRIPOS>BOND
     1     1     2 1
     2     2     3 1
     3     3     4 1
     4     4     5 1
     5     5     6 1
     6     6     7 1
     7     7    12 ar
     8     7     8 ar
     9     8     9 ar
    10     9    10 ar
    11    10    11 ar
    12    10    14 1
    13    11    12 ar
    14    11    13 1
    15    14    15 1
    16    15    20 ar
    17    15    16 ar
    18    16    17 ar
    19    17    18 ar
    20    18    19 ar
    21    19    20 ar
    22    19    21 1
    23    21    22 2
    24    21    23 1

@<TRIPOS>MOLECULE
ZINC38118083_replica-1.pdb
 22 23 0 0 0
SMALL
GASTEIGER

@<TRIPOS>ATOM
      1  C10        7.8210   37.4690   58.4140 C.3     0  <0>0        0.1216
      2  C7         8.8310   36.7040   59.2300 C.ar    0  <0>0       -0.0022
      3  C6         9.2920   37.2240   60.4250 C.ar    0  <0>0       -0.0029
      4  C5        10.2170   36.5220   61.1740 C.ar    0  <0>0       -0.0045
      5  C4        10.6800   35.2980   60.7290 C.ar    0  <0>0       -0.0225
      6  C9        10.2230   34.7790   59.5320 C.ar    0  <0>0       -0.0045
      7  C8         9.2940   35.4800   58.7850 C.ar    0  <0>0       -0.0029
      8  C2        11.6880   34.5320   61.5460 C.3     0  <0>0        0.0224
      9  C1        12.1130   35.3730   62.7520 C.3     0  <0>0        0.0047
     10  C3        11.0620   33.2220   62.0320 C.3     0  <0>0        0.0047
     11  C11        8.5010   38.6750   57.7640 C.3     0  <0>0        0.1610
     12  O1         8.8260   38.3650   56.4070 O.3     0  <0>0       -0.3799
     13  H15        9.6700   37.9060   56.2990 H       0  <0>0        0.2105
     14  N1         7.2730   36.5960   57.3730 N.pl3   0  <0>0       -0.3287
     15  H16        7.8640   36.1850   56.7230 H       0  <0>0        0.1471
     16  C12        5.8970   36.3570   57.3150 C.ar    0  <0>0        0.0449
     17  C17        5.1900   36.0830   58.4780 C.ar    0  <0>0        0.0148
     18  C16        3.8290   35.8530   58.4190 C.ar    0  <0>0        0.0080
     19  C15        3.1730   35.8830   57.2010 C.ar    0  <0>0        0.0346
     20  C14        3.8770   36.1510   56.0400 C.ar    0  <0>0        0.0080
     21 Br          1.3120   35.5620   57.1240 Br      0  <0>0       -0.0490
     22  C13        5.2360   36.3870   56.0940 C.ar    0  <0>0        0.0148
@<TRIPOS>BOND
     1    20    22   ar
     2    20    19   ar
     3    22    16   ar
     4    13    12    1
     5    12    11    1
     6    15    14    1
     7    21    19    1
     8    19    18   ar
     9    16    14    1
    10    16    17   ar
    11    14     1    1
    12    11     1    1
    13     1     2    1
    14    18    17   ar
    15     7     2   ar
    16     7     6   ar
    17     2     3   ar
    18     6     5   ar
    19     3     4   ar
    20     5     4   ar
    21     5     8    1
    22     8    10    1
    23     8     9    1


@<TRIPOS>MOLECULE
ZINC36335361_replica-1.pdb
 21 22 0 0 0
SMALL
GASTEIGER

@<TRIPOS>ATOM
       1  C1          8.4570   38.4300   57.0910  C.3       1 <0>        -0.1641
       2  C2          7.7210   37.4360   57.9930  C.3       1 <0>         0.1948
       3  C3          8.7160   36.7240   58.8730  C.ar      1 <0>        -0.0936
       4  C4          9.1920   35.4780   58.5100  C.ar      1 <0>        -0.1092
       5  C5         10.1040   34.8250   59.3170  C.ar      1 <0>        -0.1148
       6  C6         10.5410   35.4170   60.4870  C.ar      1 <0>        -0.0744
       7  C7         10.0650   36.6640   60.8500  C.ar      1 <0>        -0.1107
       8  C8          9.1570   37.3190   60.0400  C.ar      1 <0>        -0.1071
       9  C9         11.5340   34.7040   61.3680  C.3       1 <0>        -0.0588
      10  C10        11.8930   35.5960   62.5580  C.3       1 <0>        -0.1449
      11  C11        10.9220   33.3980   61.8760  C.3       1 <0>        -0.1451
      12  N1          7.0120   36.4580   57.1660  N.pl3     1 <0>        -0.7480
      13  C12         5.6480   36.2220   57.3740  C.ar      1 <0>         0.1664
      14  C13         4.7820   36.1550   56.2900  C.ar      1 <0>        -0.1497
      15  C14         3.4360   35.9230   56.4960  C.ar      1 <0>        -0.1480
      16  C15         2.9490   35.7560   57.7850  C.ar      1 <0>         0.1605
      17  C16         3.8150   35.8230   58.8680  C.ar      1 <0>        -0.1500
      18  C17         5.1620   36.0500   58.6630  C.ar      1 <0>        -0.1464
      19  N2          1.5850   35.5210   57.9940  N.pl3     1 <0>        -0.6457
      20  C18         1.0990   35.1620   59.3300  C.3       1 <0>         0.0983
      21  C19         0.6430   35.6350   56.8790  C.3       1 <0>         0.0932
@<TRIPOS>BOND
     1     1     2 1
     2     2     3 1
     3     2    12 1
     4     3     8 ar
     5     3     4 ar
     6     4     5 ar
     7     5     6 ar
     8     6     7 ar
     9     6     9 1
    10     7     8 ar
    11     9    10 1
    12     9    11 1
    13    12    13 1
    14    13    18 ar
    15    13    14 ar
    16    14    15 ar
    17    15    16 ar
    18    16    17 ar
    19    16    19 1
    20    17    18 ar
    21    19    20 1
    22    19    21 1

@<TRIPOS>MOLECULE
ZINC09833359_replica-1.pdb
 29 32 0 0 0
SMALL
GASTEIGER

@<TRIPOS>ATOM
       1  C1          9.2850   35.2820   58.3600  C.3       1 <0>        -0.1509
       2  C2          8.1710   36.2580   57.9720  C.3       1 <0>        -0.0524
       3  C3          6.9950   35.4880   57.4300  C.2       1 <0>        -0.0835
       4  C4          6.5460   35.4080   56.1500  C.2       1 <0>        -0.1468
       5  C5          5.4390   34.6380   55.8720  C.2       1 <0>        -0.0306
       6  C6          4.8220   33.9720   56.9150  C.2       1 <0>        -0.1806
       7  S1          5.8310   34.4560   58.3060  S.3       1 <0>         0.1227
       8  C7          3.6410   33.0980   56.8860  C.2       1 <0>         0.3240
       9  N1          3.2990   32.2160   57.8000  N.2       1 <0>        -0.2665
      10  N2          2.2070   31.6360   57.4430  N.2       1 <0>        -0.2090
      11  C8          1.8110   32.1180   56.2980  C.2       1 <0>         0.0619
      12  O1          2.7000   33.0540   55.9190  O.3       1 <0>        -0.2104
      13  C9          0.5780   31.7030   55.5380  C.3       1 <0>         0.1189
      14  C10        -0.7430   29.7130   55.1430  C.3       1 <0>         0.1419
      15  C11        -0.7590   28.6940   54.0330  C.ar      1 <0>        -0.1384
      16  C12        -0.0350   27.5230   54.1600  C.ar      1 <0>        -0.1198
      17  C13        -0.0530   26.5860   53.1430  C.ar      1 <0>        -0.0990
      18  C14        -0.7880   26.8250   51.9960  C.ar      1 <0>        -0.0897
      19  C15        -1.5070   27.9990   51.8680  C.ar      1 <0>        -0.1034
      20  C16        -1.4920   28.9330   52.8860  C.ar      1 <0>        -0.0851
      21  C17        -1.1690   29.0580   56.4320  C.ar      1 <0>        -0.1484
      22  C18        -2.4160   28.4700   56.5300  C.ar      1 <0>        -0.1137
      23  C19        -2.8040   27.8650   57.7120  C.ar      1 <0>        -0.1078
      24  C20        -1.9490   27.8570   58.7970  C.ar      1 <0>        -0.0487
      25  C21        -0.7040   28.4490   58.7010  C.ar      1 <0>        -0.1093
      26  C22        -0.3130   29.0490   57.5180  C.ar      1 <0>        -0.0765
      27  C23        -2.3750   27.2030   60.0860  C.3       1 <0>        -0.1304
      28  C24         7.2520   36.1520   55.0470  C.3       1 <0>        -0.1023
      29  N3          0.6230   30.2480   55.3010  N.4       1 <0>        -0.5229
@<TRIPOS>BOND
     1     1     2 1
     2     2     3 1
     3     3     7 1
     4     3     4 2
     5     4     5 1
     6     4    28 1
     7     5     6 2
     8     6     7 1
     9     6     8 1
    10     8    12 1
    11     8     9 2
    12     9    10 1
    13    10    11 2
    14    11    12 1
    15    11    13 1
    16    13    29 1
    17    14    15 1
    18    14    21 1
    19    14    29 1
    20    15    20 ar
    21    15    16 ar
    22    16    17 ar
    23    17    18 ar
    24    18    19 ar
    25    19    20 ar
    26    21    26 ar
    27    21    22 ar
    28    22    23 ar
    29    23    24 ar
    30    24    25 ar
    31    24    27 1
    32    25    26 ar

@<TRIPOS>MOLECULE
ZINC05566089_replica-1.pdb
 26 28 0 0 0
SMALL
GASTEIGER

@<TRIPOS>ATOM
       1  C1         -2.3070   30.0390   53.3680  C.3       1 <0>        -0.1016
       2  C2         -0.9820   30.0270   54.0870  C.2       1 <0>         0.1241
       3  N1         -0.4490   31.1300   54.4630  N.2       1 <0>        -0.2446
       4  N2          0.7120   31.1130   55.2460  N.pl3     1 <0>        -0.5797
       5  C3          0.6920   31.6510   56.5350  C.ar      1 <0>         0.2742
       6  C4          0.5910   33.0260   56.7130  C.ar      1 <0>        -0.1622
       7  C5          0.5670   33.5550   57.9890  C.ar      1 <0>        -0.0136
       8  C6          0.6560   32.7200   59.0880  C.ar      1 <0>        -0.0963
       9  C7          0.7620   31.3520   58.9130  C.ar      1 <0>        -0.0072
      10  C8          0.7810   30.8150   57.6410  C.ar      1 <0>        -0.1887
      11  N3          0.6360   33.2910   60.4530  N.pl3     1 <0>         0.0372
      12  O1          0.9640   32.6060   61.4040  O.2       1 <0>        -0.1715
      13  O2          0.2900   34.4460   60.6240  O.3       1 <0>        -0.1701
      14  C9         -0.2860   28.7200   54.3640  C.3       1 <0>        -0.0037
      15  C10        -0.7640   28.1660   55.6820  C.ar      1 <0>        -0.0792
      16  C11        -2.0130   28.5080   56.1640  C.ar      1 <0>        -0.1149
      17  C12        -2.4490   28.0000   57.3740  C.ar      1 <0>        -0.1151
      18  C13        -1.6370   27.1500   58.1000  C.ar      1 <0>        -0.1145
      19  C14        -0.3880   26.8070   57.6170  C.ar      1 <0>        -0.1158
      20  C15         0.0500   27.3150   56.4080  C.ar      1 <0>        -0.1031
      21  C16        -0.6000   27.7400   53.2630  C.ar      1 <0>        -0.0794
      22  C17        -1.3110   28.1520   52.1520  C.ar      1 <0>        -0.1028
      23  C18        -1.5950   27.2540   51.1400  C.ar      1 <0>        -0.1166
      24  C19        -1.1760   25.9410   51.2450  C.ar      1 <0>        -0.1146
      25  C20        -0.4690   25.5270   52.3590  C.ar      1 <0>        -0.1159
      26  C21        -0.1820   26.4270   53.3680  C.ar      1 <0>        -0.1111
@<TRIPOS>BOND
     1     1     2 1
     2     2     3 2
     3     2    14 1
     4     3     4 1
     5     4     5 1
     6     5    10 ar
     7     5     6 ar
     8     6     7 ar
     9     7     8 ar
    10     8     9 ar
    11     8    11 1
    12     9    10 ar
    13    11    12 2
    14    11    13 1
    15    14    15 1
    16    14    21 1
    17    15    20 ar
    18    15    16 ar
    19    16    17 ar
    20    17    18 ar
    21    18    19 ar
    22    19    20 ar
    23    21    26 ar
    24    21    22 ar
    25    22    23 ar
    26    23    24 ar
    27    24    25 ar
    28    25    26 ar

@<TRIPOS>MOLECULE
ZINC36957440_replica-1.pdb
 19 20 0 0 0
SMALL
GASTEIGER

@<TRIPOS>ATOM
       1  C1          8.8610   32.6800   60.4330  C.3       1 <0>        -0.1648
       2  C2          9.6170   33.9630   60.7890  C.3       1 <0>         0.1950
       3  C3         10.8580   33.6150   61.5690  C.ar      1 <0>        -0.1305
       4  C4         10.9020   32.4480   62.3090  C.ar      1 <0>        -0.0710
       5  C5         12.0390   32.1270   63.0260  C.ar      1 <0>        -0.1466
       6  C6         13.1360   32.9750   63.0020  C.ar      1 <0>         0.1298
       7  C7         13.0880   34.1450   62.2590  C.ar      1 <0>        -0.2044
       8  C8         11.9520   34.4600   61.5390  C.ar      1 <0>        -0.0668
       9  O1         14.2540   32.6620   63.7070  O.3       1 <0>        -0.3169
      10  C9         15.1770   33.7220   63.9650  C.3       1 <0>         0.0261
      11  N1          9.9930   34.6640   59.5590  N.pl3     1 <0>        -0.7355
      12  C10         9.3990   35.8910   59.2430  C.ar      1 <0>         0.2418
      13  C11         9.4970   36.9580   60.1220  C.ar      1 <0>        -0.1853
      14  C12         8.9080   38.1700   59.8090  C.ar      1 <0>        -0.0730
      15  C13         8.2210   38.3220   58.6180  C.ar      1 <0>        -0.1613
      16  C14         8.1180   37.2640   57.7350  C.ar      1 <0>        -0.0849
      17  C15         8.7110   36.0460   58.0390  C.ar      1 <0>        -0.1595
      18  S1          8.5880   34.6980   56.9110  S.3       1 <0>        -0.1376
      19  C16         7.1210   35.0890   55.9180  C.3       1 <0>        -0.1355
@<TRIPOS>BOND
     1     1     2 1
     2     2     3 1
     3     2    11 1
     4     3     8 ar
     5     3     4 ar
     6     4     5 ar
     7     5     6 ar
     8     6     7 ar
     9     6     9 1
    10     7     8 ar
    11     9    10 1
    12    11    12 1
    13    12    17 ar
    14    12    13 ar
    15    13    14 ar
    16    14    15 ar
    17    15    16 ar
    18    16    17 ar
    19    17    18 1
    20    18    19 1

@<TRIPOS>MOLECULE
ZINC11734738_replica-1.pdb
 21 22 0 0 0
SMALL
GASTEIGER

@<TRIPOS>ATOM
      1  C10        8.8540   36.0160   60.5970 C.3     0  <0>0        0.0560
      2  C9        10.3280   36.3320   60.8610 C.3     0  <0>0        0.0332
      3  C6        10.9770   35.1610   61.5540 C.ar    0  <0>0       -0.0217
      4  C5        10.4640   33.8890   61.3820 C.ar    0  <0>0       -0.0030
      5  C4        11.0570   32.8130   62.0160 C.ar    0  <0>0        0.0142
      6  C3        12.1680   33.0120   62.8260 C.ar    0  <0>0        0.0479
      7  C8        12.6800   34.2930   62.9960 C.ar    0  <0>0        0.0142
      8  C7        12.0860   35.3620   62.3550 C.ar    0  <0>0       -0.0030
      9  N1        12.7700   31.9280   63.4680 N.pl3   0  <0>0       -0.3041
     10  C1        11.9750   30.7440   63.8060 C.3     0  <0>0        0.1122
     11  C2        14.1940   31.9720   63.8040 C.3     0  <0>0        0.1122
     12  C11        7.9740   37.0090   61.3570 C.3     0  <0>0        0.1418
     13  O1         8.6070   37.3610   62.5890 O.3     0  <0>0       -0.3816
     14  H16        7.9900   37.5750   63.3020 H       0  <0>0        0.2105
     15  C12        8.5740   36.1240   59.1200 C.ar    0  <0>0       -0.0197
     16  C17        8.9090   35.0820   58.2750 C.ar    0  <0>0       -0.0033
     17  C16        8.6510   35.1820   56.9200 C.ar    0  <0>0        0.0111
     18  C15        8.0600   36.3230   56.4100 C.ar    0  <0>0        0.0577
     19  C14        7.7260   37.3660   57.2570 C.ar    0  <0>0        0.0111
     20 Cl          7.7380   36.4480   54.7090 Cl      0  <0>0       -0.0822
     21  C13        7.9770   37.2630   58.6120 C.ar    0  <0>0       -0.0033
@<TRIPOS>BOND
     1    20    18    1
     2    18    17   ar
     3    18    19   ar
     4    17    16   ar
     5    19    21   ar
     6    16    15   ar
     7    21    15   ar
     8    15     1    1
     9     1     2    1
    10     1    12    1
    11     2     3    1
    12    12    13    1
    13     4     3   ar
    14     4     5   ar
    15     3     8   ar
    16     5     6   ar
    17     8     7   ar
    18    13    14    1
    19     6     7   ar
    20     6     9    1
    21     9    11    1
    22     9    10    1


@<TRIPOS>MOLECULE
ZINC20126531_replica-1.pdb
 21 22 0 0 0
SMALL
GASTEIGER

@<TRIPOS>ATOM
       1  C1          7.4420   38.6200   55.9150  C.3       1 <0>        -0.1604
       2  C2          8.4490   37.9150   56.8250  C.3       1 <0>        -0.1325
       3  C3          7.7030   37.1760   57.9380  C.3       1 <0>         0.1982
       4  C4          8.6920   36.6670   58.9540  C.ar      1 <0>        -0.0951
       5  C5          9.3130   35.4470   58.7640  C.ar      1 <0>        -0.1055
       6  C6         10.2160   34.9780   59.7000  C.ar      1 <0>        -0.1170
       7  C7         10.5060   35.7330   60.8200  C.ar      1 <0>        -0.0836
       8  C8          9.8850   36.9540   61.0100  C.ar      1 <0>        -0.1168
       9  C9          8.9780   37.4210   60.0770  C.ar      1 <0>        -0.1084
      10  C10        11.4950   35.2250   61.8380  C.3       1 <0>        -0.1203
      11  N1          6.9650   36.0470   57.3650  N.pl3     1 <0>        -0.7525
      12  C11         5.5720   35.9890   57.4840  C.ar      1 <0>         0.1972
      13  C12         4.7730   36.1060   56.3540  C.ar      1 <0>        -0.1641
      14  C13         3.3980   36.0440   56.4710  C.ar      1 <0>        -0.1583
      15  C14         2.8150   35.8750   57.7190  C.ar      1 <0>         0.0650
      16  C15         3.6130   35.7640   58.8490  C.ar      1 <0>        -0.0945
      17  C16         4.9870   35.8210   58.7330  C.ar      1 <0>        -0.1589
      18  O1          1.4610   35.8190   57.8350  O.3       1 <0>        -0.3126
      19  C17         0.9130   34.6690   58.4810  C.3       1 <0>         0.1587
      20  C18         0.6170   33.6350   57.4740  C.1       1 <0>         0.2079
      21  N2          0.3880   32.8380   56.6980  N.1       1 <0>        -0.3955
@<TRIPOS>BOND
     1     1     2 1
     2     2     3 1
     3     3     4 1
     4     3    11 1
     5     4     9 ar
     6     4     5 ar
     7     5     6 ar
     8     6     7 ar
     9     7     8 ar
    10     7    10 1
    11     8     9 ar
    12    11    12 1
    13    12    17 ar
    14    12    13 ar
    15    13    14 ar
    16    14    15 ar
    17    15    16 ar
    18    15    18 1
    19    16    17 ar
    20    18    19 1
    21    19    20 1
    22    20    21 3

@<TRIPOS>MOLECULE
ZINC49924459_replica-1.pdb
 23 24 0 0 0
SMALL
GASTEIGER

@<TRIPOS>ATOM
       1  C1         11.6640   34.7600   61.7830  C.3       1 <0>        -0.1555
       2  C2         10.4140   34.8210   60.9020  C.3       1 <0>        -0.1161
       3  C3         10.0650   36.2820   60.6110  C.3       1 <0>        -0.0552
       4  C4          9.1580   36.8190   61.7200  C.3       1 <0>        -0.1465
       5  C5          9.3490   36.3740   59.2890  C.ar      1 <0>        -0.0690
       6  C6          8.7340   37.5550   58.9160  C.ar      1 <0>        -0.1112
       7  C7          8.0770   37.6380   57.7030  C.ar      1 <0>        -0.1031
       8  C8          8.0350   36.5420   56.8610  C.ar      1 <0>        -0.1235
       9  C9          8.6510   35.3620   57.2340  C.ar      1 <0>        -0.1058
      10  C10         9.3120   35.2790   58.4450  C.ar      1 <0>        -0.1138
      11  C11         7.3190   36.6330   55.5390  C.3       1 <0>         0.1411
      12  C12         5.8140   36.7740   55.7820  C.3       1 <0>         0.1005
      13  N1          5.3020   35.5470   56.3960  N.pl3     1 <0>        -0.7446
      14  C13         4.1410   35.5870   57.1720  C.ar      1 <0>         0.2174
      15  C14         2.9100   35.8230   56.5720  C.ar      1 <0>        -0.1965
      16  C15         1.7650   35.8610   57.3430  C.ar      1 <0>        -0.0771
      17  C16         1.8420   35.6640   58.7100  C.ar      1 <0>        -0.1759
      18  C17         3.0650   35.4300   59.3100  C.ar      1 <0>        -0.0692
      19  C18         4.2140   35.3840   58.5450  C.ar      1 <0>        -0.1496
      20  C19         5.5470   35.1220   59.1990  C.3       1 <0>        -0.0470
      21  C20         5.7360   36.0830   60.3740  C.3       1 <0>        -0.1444
      22  C21         5.5910   33.6790   59.7070  C.3       1 <0>        -0.1422
      23  O1          7.7930   37.7710   54.8180  O.3       1 <0>        -0.5497
@<TRIPOS>BOND
     1     1     2 1
     2     2     3 1
     3     3     4 1
     4     3     5 1
     5     5    10 ar
     6     5     6 ar
     7     6     7 ar
     8     7     8 ar
     9     8     9 ar
    10     8    11 1
    11     9    10 ar
    12    11    12 1
    13    11    23 1
    14    12    13 1
    15    13    14 1
    16    14    19 ar
    17    14    15 ar
    18    15    16 ar
    19    16    17 ar
    20    17    18 ar
    21    18    19 ar
    22    19    20 1
    23    20    21 1
    24    20    22 1

@<TRIPOS>MOLECULE
ZINC27528921_replica-1.pdb
 30 33 0 0 0
SMALL
GASTEIGER

@<TRIPOS>ATOM
       1  C1          1.0250   35.3940   58.1320  C.ar      1 <0>        -0.1070
       2  C2          1.7440   36.0100   57.1110  C.ar      1 <0>        -0.1327
       3  C3          3.1060   35.9910   57.1030  C.ar      1 <0>        -0.0941
       4  C4          3.7980   35.3430   58.1380  C.ar      1 <0>        -0.0997
       5  C5          3.0680   34.7170   59.1770  C.ar      1 <0>        -0.0090
       6  C6          1.6630   34.7570   59.1520  C.ar      1 <0>        -0.1171
       7  C7          3.7580   34.0690   60.2150  C.ar      1 <0>        -0.1778
       8  C8          5.1210   34.0460   60.2140  C.ar      1 <0>        -0.0571
       9  C9          5.8490   34.6620   59.2020  C.ar      1 <0>        -0.2268
      10  C10         5.2090   35.3030   58.1630  C.ar      1 <0>         0.2378
      11  N1          5.9470   35.9130   57.1520  N.pl3     1 <0>        -0.7508
      12  C11         6.8290   37.0400   57.4660  C.3       1 <0>         0.1317
      13  C12         8.2780   36.6560   57.1600  C.3       1 <0>        -0.0826
      14  C13         9.0010   36.3530   58.4460  C.ar      1 <0>        -0.1417
      15  C14         9.6470   35.1410   58.6070  C.ar      1 <0>        -0.0630
      16  C15        10.3150   34.8630   59.7830  C.ar      1 <0>        -0.1986
      17  C16        10.3290   35.7990   60.8100  C.ar      1 <0>         0.2200
      18  C17         9.6740   37.0140   60.6480  C.ar      1 <0>        -0.1914
      19  C18         9.0130   37.2870   59.4660  C.ar      1 <0>        -0.0631
      20  N2         10.9980   35.5190   62.0030  N.pl3     1 <0>        -0.7564
      21  C19        12.3840   35.0450   61.9720  C.3       1 <0>         0.1627
      22  C20        12.4580   33.6670   62.5750  C.ar      1 <0>        -0.0544
      23  C21        11.3100   32.9090   62.7100  C.ar      1 <0>        -0.0987
      24  C22        11.3780   31.6420   63.2590  C.ar      1 <0>        -0.0551
      25  C23        12.5930   31.1370   63.6820  C.ar      1 <0>        -0.0374
      26  C24        13.7410   31.8960   63.5520  C.ar      1 <0>        -0.0552
      27  C25        13.6730   33.1610   62.9990  C.ar      1 <0>        -0.0988
      28  N3         12.6660   29.7820   64.2740  N.pl3     1 <0>         0.0241
      29  O1         12.7970   29.6490   65.4770  O.2       1 <0>        -0.1545
      30  O2         12.5930   28.7990   63.5570  O.3       1 <0>        -0.1544
@<TRIPOS>BOND
     1     1     6 ar
     2     1     2 ar
     3     2     3 ar
     4     3     4 ar
     5     4    10 ar
     6     4     5 ar
     7     5     6 ar
     8     5     7 ar
     9     7     8 ar
    10     8     9 ar
    11     9    10 ar
    12    10    11 1
    13    11    12 1
    14    12    13 1
    15    13    14 1
    16    14    19 ar
    17    14    15 ar
    18    15    16 ar
    19    16    17 ar
    20    17    18 ar
    21    17    20 1
    22    18    19 ar
    23    20    21 1
    24    21    22 1
    25    22    27 ar
    26    22    23 ar
    27    23    24 ar
    28    24    25 ar
    29    25    26 ar
    30    25    28 1
    31    26    27 ar
    32    28    29 2
    33    28    30 1

@<TRIPOS>MOLECULE
ZINC35560624_replica-1.pdb
 30 32 0 0 0
SMALL
GASTEIGER

@<TRIPOS>ATOM
       1  C1         -1.2230   25.4260   51.2510  C.3       1 <0>        -0.1468
       2  C2         -1.0150   26.9010   51.5990  C.3       1 <0>        -0.0827
       3  C3         -0.4910   27.0170   53.0070  C.ar      1 <0>        -0.0941
       4  C4          0.2000   25.9700   53.5760  C.ar      1 <0>        -0.0987
       5  C5          0.6880   26.0650   54.8710  C.ar      1 <0>        -0.1425
       6  C6          0.4910   27.2000   55.6070  C.ar      1 <0>        -0.0700
       7  C7         -0.2060   28.2730   55.0490  C.ar      1 <0>        -0.0921
       8  C8         -0.6980   28.1840   53.7350  C.ar      1 <0>         0.1027
       9  N1         -1.3280   29.3760   53.4550  N.pl3     1 <0>        -0.5918
      10  C9         -1.2480   30.2100   54.5370  C.2       1 <0>         0.0572
      11  C10        -0.5900   29.6010   55.5360  C.2       1 <0>        -0.1573
      12  C11        -0.2880   30.1790   56.8950  C.3       1 <0>         0.0466
      13  C12        -1.0340   31.5040   57.0620  C.3       1 <0>        -0.1332
      14  C13        -0.0390   32.6300   57.1800  C.2       1 <0>         0.5100
      15  O1          1.0200   32.5670   56.5920  O.2       1 <0>        -0.5225
      16  N2         -0.3240   33.7050   57.9410  N.am      1 <0>        -0.7328
      17  C14         0.6430   34.7990   58.0560  C.3       1 <0>         0.1247
      18  C15         1.1840   34.8540   59.4860  C.3       1 <0>        -0.1084
      19  C16         0.2300   34.1090   60.4220  C.3       1 <0>        -0.1465
      20  C17         2.5640   34.1940   59.5340  C.3       1 <0>        -0.1496
      21  C18        -0.7350   29.2130   57.9620  C.ar      1 <0>        -0.0161
      22  C19        -1.9880   28.6330   57.8890  C.ar      1 <0>        -0.1523
      23  C20        -2.4000   27.7470   58.8660  C.ar      1 <0>        -0.0841
      24  C21        -1.5620   27.4370   59.9210  C.ar      1 <0>        -0.2071
      25  C22        -0.3050   28.0150   60.0010  C.ar      1 <0>         0.1093
      26  C23         0.1130   28.9020   59.0130  C.ar      1 <0>         0.0932
      27  O2          1.3480   29.4680   59.0830  O.3       1 <0>        -0.3248
      28  C24         1.4920   30.6080   59.9320  C.3       1 <0>         0.0328
      29  O3          0.5210   27.7110   61.0370  O.3       1 <0>        -0.3089
      30  C25        -0.0950   27.2810   62.2520  C.3       1 <0>         0.0264
@<TRIPOS>BOND
     1     1     2 1
     2     2     3 1
     3     3     8 ar
     4     3     4 ar
     5     4     5 ar
     6     5     6 ar
     7     6     7 ar
     8     7    11 1
     9     7     8 ar
    10     8     9 1
    11     9    10 1
    12    10    11 2
    13    11    12 1
    14    12    13 1
    15    12    21 1
    16    13    14 1
    17    14    15 2
    18    14    16 am
    19    16    17 1
    20    17    18 1
    21    18    19 1
    22    18    20 1
    23    21    26 ar
    24    21    22 ar
    25    22    23 ar
    26    23    24 ar
    27    24    25 ar
    28    25    26 ar
    29    25    29 1
    30    26    27 1
    31    27    28 1
    32    29    30 1

@<TRIPOS>MOLECULE
ZINC04649151_replica-1.pdb
 24 27 0 0 0
SMALL
GASTEIGER

@<TRIPOS>ATOM
       1  C1          8.3130   34.6760   57.4780  C.3       1 <0>        -0.1873
       2  C2          8.4470   34.1650   58.9150  C.3       1 <0>         0.0529
       3  C3          8.3890   35.3410   59.9100  C.3       1 <0>         0.1669
       4  O1          7.2320   35.0730   60.7350  O.3       1 <0>        -0.3323
       5  C4          6.4120   34.2050   59.9370  C.3       1 <0>         0.2149
       6  O2          7.3210   33.3260   59.2560  O.3       1 <0>        -0.3408
       7  C5          5.2920   33.5250   60.6710  C.2       1 <0>        -0.0326
       8  C6          4.4280   34.1600   59.8680  C.2       1 <0>        -0.1897
       9  C7          5.4070   34.8950   59.0610  C.2       1 <0>         0.3696
      10  O3          5.4050   35.6790   58.1350  O.2       1 <0>        -0.3774
      11  C8          2.9210   34.1300   59.8130  C.3       1 <0>        -0.0982
      12  C9          5.1850   32.5500   61.8160  C.3       1 <0>        -0.0886
      13  C10         9.6380   35.3760   60.7520  C.ar      1 <0>        -0.0784
      14  C11        10.4650   34.2700   60.8080  C.ar      1 <0>        -0.1148
      15  C12        11.6140   34.3030   61.5770  C.ar      1 <0>        -0.1154
      16  C13        11.9290   35.4390   62.2980  C.ar      1 <0>        -0.1126
      17  C14        11.1000   36.5430   62.2460  C.ar      1 <0>        -0.1171
      18  C15         9.9550   36.5120   61.4730  C.ar      1 <0>        -0.0880
      19  C16         8.2170   36.6440   59.1730  C.ar      1 <0>        -0.0956
      20  C17         8.8500   36.8400   57.9590  C.ar      1 <0>        -0.0998
      21  C18         8.6900   38.0330   57.2800  C.ar      1 <0>        -0.1214
      22  C19         7.9020   39.0330   57.8180  C.ar      1 <0>        -0.1111
      23  C20         7.2720   38.8390   59.0340  C.ar      1 <0>        -0.1136
      24  C21         7.4310   37.6440   59.7110  C.ar      1 <0>        -0.0852
@<TRIPOS>BOND
     1     1     2 1
     2     2     6 1
     3     2     3 1
     4     3     4 1
     5     3    13 1
     6     3    19 1
     7     4     5 1
     8     5     9 1
     9     5     6 1
    10     5     7 1
    11     7     8 2
    12     7    12 1
    13     8     9 1
    14     8    11 1
    15     9    10 2
    16    13    18 ar
    17    13    14 ar
    18    14    15 ar
    19    15    16 ar
    20    16    17 ar
    21    17    18 ar
    22    19    24 ar
    23    19    20 ar
    24    20    21 ar
    25    21    22 ar
    26    22    23 ar
    27    23    24 ar

@<TRIPOS>MOLECULE
CHEMBL264415_replica-1.pdb
 23 24 0 0 0
SMALL
GASTEIGER

@<TRIPOS>ATOM
       1  C1         13.1030   31.5350   63.2590  C.3       1 <0>        -0.1548
       2  C2         14.2760   32.5160   63.3080  C.3       1 <0>        -0.1258
       3  C3         13.8940   33.8050   62.5790  C.3       1 <0>        -0.1216
       4  C4         12.7230   34.4730   63.3030  C.3       1 <0>        -0.1209
       5  C5         11.9300   35.3270   62.3100  C.3       1 <0>        -0.1148
       6  C6         11.2440   34.4160   61.2900  C.3       1 <0>        -0.0850
       7  C7         10.2050   35.2030   60.5330  C.ar      1 <0>        -0.0521
       8  C8         10.0670   35.0300   59.1690  C.ar      1 <0>        -0.1128
       9  C9          9.1150   35.7500   58.4710  C.ar      1 <0>        -0.0967
      10  C10         8.2960   36.6460   59.1390  C.ar      1 <0>         0.0335
      11  C11         8.4350   36.8210   60.5130  C.ar      1 <0>         0.1104
      12  C12         9.3880   36.0930   61.2070  C.ar      1 <0>        -0.1326
      13  O1          7.6350   37.7000   61.1730  O.3       1 <0>        -0.4923
      14  O2          7.3600   37.3550   58.4540  O.3       1 <0>        -0.2188
      15  C13         6.2940   36.6820   57.9470  C.ar      1 <0>         0.1975
      16  C14         5.3460   36.1350   58.8010  C.ar      1 <0>        -0.1941
      17  C15         4.2640   35.4530   58.2830  C.ar      1 <0>        -0.0289
      18  C16         4.1230   35.3110   56.9150  C.ar      1 <0>        -0.1515
      19  C17         5.0650   35.8540   56.0610  C.ar      1 <0>        -0.0236
      20  C18         6.1480   36.5440   56.5740  C.ar      1 <0>        -0.0818
      21  N1          7.1540   37.1300   55.6590  N.pl3     1 <0>         0.0407
      22  O3          8.0010   36.4250   55.1610  O.2       1 <0>        -0.1733
      23  O4          7.1280   38.3120   55.4100  O.3       1 <0>        -0.1386
@<TRIPOS>BOND
     1     1     2 1
     2     2     3 1
     3     3     4 1
     4     4     5 1
     5     5     6 1
     6     6     7 1
     7     7    12 ar
     8     7     8 ar
     9     8     9 ar
    10     9    10 ar
    11    10    11 ar
    12    10    14 1
    13    11    12 ar
    14    11    13 1
    15    14    15 1
    16    15    20 ar
    17    15    16 ar
    18    16    17 ar
    19    17    18 ar
    20    18    19 ar
    21    19    20 ar
    22    20    21 1
    23    21    22 2
    24    21    23 1

@<TRIPOS>MOLECULE
ZINC37277592_replica-1.pdb
 21 22 0 0 0
SMALL
GASTEIGER

@<TRIPOS>ATOM
       1  C1         12.3570   33.2040   62.9410  C.3       1 <0>        -0.1554
       2  C2         11.2800   33.6820   61.9650  C.3       1 <0>        -0.1154
       3  C3         11.6000   35.1070   61.5110  C.3       1 <0>        -0.0452
       4  C4         11.8060   35.9990   62.7360  C.3       1 <0>        -0.1453
       5  C5         10.4540   35.6410   60.6890  C.ar      1 <0>        -0.1331
       6  C6         10.0420   34.9620   59.5570  C.ar      1 <0>        -0.0669
       7  C7          8.9930   35.4490   58.8020  C.ar      1 <0>        -0.1947
       8  C8          8.3530   36.6210   59.1800  C.ar      1 <0>         0.2150
       9  C9          8.7690   37.3020   60.3170  C.ar      1 <0>        -0.1950
      10  C10         9.8150   36.8060   61.0720  C.ar      1 <0>        -0.0736
      11  N1          7.2920   37.1170   58.4180  N.pl3     1 <0>        -0.7383
      12  C11         6.7760   36.3400   57.2880  C.3       1 <0>         0.1985
      13  C12         5.2870   36.1660   57.4360  C.ar      1 <0>        -0.0893
      14  C13         4.4800   36.1240   56.3150  C.ar      1 <0>        -0.1121
      15  C14         3.1130   35.9650   56.4520  C.ar      1 <0>        -0.1179
      16  C15         2.5540   35.8470   57.7100  C.ar      1 <0>        -0.1184
      17  C16         3.3610   35.8890   58.8320  C.ar      1 <0>        -0.1160
      18  C17         4.7270   36.0440   58.6960  C.ar      1 <0>        -0.1095
      19  C18         7.0740   37.0800   55.9820  C.3       1 <0>        -0.1049
      20  C19         7.5300   38.5070   56.2960  C.3       1 <0>        -0.1506
      21  C20         8.1820   36.3470   55.2230  C.3       1 <0>        -0.1536
@<TRIPOS>BOND
     1     1     2 1
     2     2     3 1
     3     3     4 1
     4     3     5 1
     5     5    10 ar
     6     5     6 ar
     7     6     7 ar
     8     7     8 ar
     9     8     9 ar
    10     8    11 1
    11     9    10 ar
    12    11    12 1
    13    12    13 1
    14    12    19 1
    15    13    18 ar
    16    13    14 ar
    17    14    15 ar
    18    15    16 ar
    19    16    17 ar
    20    17    18 ar
    21    19    20 1
    22    19    21 1

@<TRIPOS>MOLECULE
ZINC15230667_replica-1.pdb
 29 32 0 0 0
SMALL
GASTEIGER

@<TRIPOS>ATOM
       1  C1          2.3370   34.4510   59.2120  C.3       1 <0>        -0.1426
       2  C2          1.5000   33.2620   58.7350  C.3       1 <0>        -0.0548
       3  C3          1.9260   32.8850   57.3120  C.3       1 <0>        -0.0335
       4  C4          1.2200   31.6160   56.9060  C.2       1 <0>         0.1277
       5  C5          0.6620   30.7120   57.8560  C.2       1 <0>        -0.3115
       6  C6          0.0890   29.6670   57.1530  C.2       1 <0>         0.2286
       7  N1          0.2980   29.9290   55.8310  N.pl3     1 <0>        -0.3270
       8  N2          1.0040   31.1350   55.7230  N.2       1 <0>        -0.2702
       9  C7         -0.1180   29.1250   54.7600  C.ar      1 <0>         0.1025
      10  C8          0.4230   27.8580   54.5920  C.ar      1 <0>        -0.0523
      11  C9          0.0120   27.0670   53.5360  C.ar      1 <0>        -0.1451
      12  C10        -0.9390   27.5370   52.6460  C.ar      1 <0>         0.1411
      13  C11        -1.4810   28.8000   52.8100  C.ar      1 <0>        -0.1810
      14  C12        -1.0730   29.5960   53.8650  C.ar      1 <0>         0.1481
      15  F1         -1.6060   30.8260   54.0310  F         1 <0>        -0.1123
      16  F2         -1.3380   26.7610   51.6140  F         1 <0>        -0.1227
      17  C13        -0.6100   28.5000   57.7210  C.ar      1 <0>        -0.1216
      18  C14         0.1220   27.4550   58.2920  C.ar      1 <0>        -0.0115
      19  C15        -0.5340   26.3680   58.8260  C.ar      1 <0>        -0.1983
      20  C16        -1.9240   26.3050   58.7900  C.ar      1 <0>         0.2395
      21  C17        -2.6560   27.3420   58.2180  C.ar      1 <0>        -0.2017
      22  C18        -2.0070   28.4330   57.6860  C.ar      1 <0>        -0.0350
      23  N3         -2.5840   25.2020   59.3260  N.pl3     1 <0>        -0.6316
      24  C19        -3.0850   25.2460   60.7020  C.3       1 <0>         0.0847
      25  C20        -2.7780   23.9980   58.5140  C.3       1 <0>         0.0884
      26  C21         0.7530   30.9670   59.2970  C.2       1 <0>         0.4345
      27  O1          0.1180   30.3300   60.1130  O.2       1 <0>        -0.4517
      28  C22         1.7030   32.0860   59.6940  C.3       1 <0>        -0.1427
      29  C23         0.0220   33.6580   58.7290  C.3       1 <0>        -0.1520
@<TRIPOS>BOND
     1     1     2 1
     2     2    28 1
     3     2     3 1
     4     2    29 1
     5     3     4 1
     6     4     8 2
     7     4     5 1
     8     5     6 2
     9     5    26 1
    10     6     7 1
    11     6    17 1
    12     7     8 1
    13     7     9 1
    14     9    14 ar
    15     9    10 ar
    16    10    11 ar
    17    11    12 ar
    18    12    13 ar
    19    12    16 1
    20    13    14 ar
    21    14    15 1
    22    17    22 ar
    23    17    18 ar
    24    18    19 ar
    25    19    20 ar
    26    20    21 ar
    27    20    23 1
    28    21    22 ar
    29    23    24 1
    30    23    25 1
    31    26    27 2
    32    26    28 1

@<TRIPOS>MOLECULE
ZINC37213300_replica-1.pdb
 21 22 0 0 0
SMALL
GASTEIGER

@<TRIPOS>ATOM
       1  C1         -1.4090   28.5570   60.7270  C.3       1 <0>        -0.1069
       2  C2         -0.9200   28.4450   59.3060  C.ar      1 <0>        -0.1792
       3  C3         -0.3100   29.5280   58.6990  C.ar      1 <0>        -0.0435
       4  C4          0.1390   29.4290   57.3960  C.ar      1 <0>        -0.2014
       5  C5         -0.0220   28.2400   56.6950  C.ar      1 <0>         0.2425
       6  C6         -0.6360   27.1540   57.3060  C.ar      1 <0>        -0.2348
       7  C7         -1.0790   27.2580   58.6130  C.ar      1 <0>         0.1445
       8  F1         -1.6700   26.2000   59.2100  F         1 <0>        -0.1379
       9  N1          0.4310   28.1380   55.3770  N.pl3     1 <0>        -0.7353
      10  C8         -0.4360   28.5490   54.2710  C.3       1 <0>         0.1864
      11  C9         -1.8200   28.9110   54.8150  C.3       1 <0>        -0.1228
      12  C10        -2.1190   30.3800   54.5080  C.3       1 <0>        -0.0636
      13  C11        -2.8840   31.0000   55.6800  C.3       1 <0>        -0.1534
      14  C12        -0.8040   31.1350   54.3020  C.3       1 <0>        -0.1416
      15  C13        -2.9660   30.4740   53.2390  C.3       1 <0>        -0.1491
      16  C14        -0.5650   27.4150   53.2860  C.ar      1 <0>        -0.0823
      17  C15        -0.0080   26.1830   53.5730  C.ar      1 <0>        -0.1094
      18  C16        -0.1260   25.1430   52.6690  C.ar      1 <0>        -0.1170
      19  C17        -0.8010   25.3360   51.4780  C.ar      1 <0>        -0.1156
      20  C18        -1.3590   26.5690   51.1920  C.ar      1 <0>        -0.1172
      21  C19        -1.2450   27.6070   52.0970  C.ar      1 <0>        -0.1071
@<TRIPOS>BOND
     1     1     2 1
     2     2     7 ar
     3     2     3 ar
     4     3     4 ar
     5     4     5 ar
     6     5     6 ar
     7     5     9 1
     8     6     7 ar
     9     7     8 1
    10     9    10 1
    11    10    11 1
    12    10    16 1
    13    11    12 1
    14    12    13 1
    15    12    14 1
    16    12    15 1
    17    16    21 ar
    18    16    17 ar
    19    17    18 ar
    20    18    19 ar
    21    19    20 ar
    22    20    21 ar

@<TRIPOS>MOLECULE
ZINC04364382_replica-1.pdb
 28 29 0 0 0
SMALL
GASTEIGER

@<TRIPOS>ATOM
       1  C1          3.9060   31.2350   60.3070  C.3       1 <0>        -0.1387
       2  C2          4.9920   32.1520   60.8740  C.3       1 <0>        -0.0985
       3  C3          5.9550   31.3310   61.7330  C.3       1 <0>        -0.1626
       4  C4          5.7610   32.8020   59.7240  C.3       1 <0>         0.1540
       5  C5          6.2440   34.1650   60.1490  C.2       1 <0>         0.5199
       6  O1          5.5320   34.8760   60.8270  O.2       1 <0>        -0.5226
       7  N1          7.4650   34.5950   59.7760  N.am      1 <0>        -0.7164
       8  C6          7.9770   35.8720   60.2770  C.3       1 <0>         0.2293
       9  C7          9.3300   35.6600   60.9060  C.ar      1 <0>        -0.0925
      10  C8          9.9770   34.4470   60.7630  C.ar      1 <0>        -0.1057
      11  C9         11.2190   34.2540   61.3350  C.ar      1 <0>        -0.1191
      12  C10        11.8130   35.2710   62.0600  C.ar      1 <0>        -0.1164
      13  C11        11.1630   36.4820   62.2080  C.ar      1 <0>        -0.1169
      14  C12         9.9230   36.6770   61.6300  C.ar      1 <0>        -0.1008
      15  C13         8.1020   36.8470   59.1340  C.ar      1 <0>        -0.0902
      16  C14         8.5890   36.4210   57.9120  C.ar      1 <0>        -0.1117
      17  C15         8.6990   37.3130   56.8620  C.ar      1 <0>        -0.1140
      18  C16         8.3310   38.6340   57.0370  C.ar      1 <0>        -0.1149
      19  C17         7.8490   39.0610   58.2590  C.ar      1 <0>        -0.1139
      20  C18         7.7350   38.1680   59.3080  C.ar      1 <0>        -0.1030
      21  N2          4.8790   32.9370   58.5610  N.am      1 <0>        -0.6983
      22  C19         5.4020   32.9630   57.3190  C.2       1 <0>         0.6572
      23  O2          6.6030   32.8670   57.1630  O.2       1 <0>        -0.5618
      24  O3          4.5930   33.0920   56.2510  O.3       1 <0>        -0.3619
      25  C20         4.2650   34.4440   55.8320  C.3       1 <0>         0.1373
      26  C21         2.8070   34.7470   56.1840  C.3       1 <0>        -0.1843
      27  C22         5.1800   35.4370   56.5500  C.3       1 <0>        -0.1426
      28  C23         4.4610   34.5710   54.3200  C.3       1 <0>        -0.1840
@<TRIPOS>BOND
     1     1     2 1
     2     2     3 1
     3     2     4 1
     4     4     5 1
     5     4    21 1
     6     5     6 2
     7     5     7 am
     8     7     8 1
     9     8     9 1
    10     8    15 1
    11     9    14 ar
    12     9    10 ar
    13    10    11 ar
    14    11    12 ar
    15    12    13 ar
    16    13    14 ar
    17    15    20 ar
    18    15    16 ar
    19    16    17 ar
    20    17    18 ar
    21    18    19 ar
    22    19    20 ar
    23    21    22 am
    24    22    23 2
    25    22    24 1
    26    24    25 1
    27    25    26 1
    28    25    27 1
    29    25    28 1

@<TRIPOS>MOLECULE
ZINC20882812_replica-1.pdb
 35 39 0 0 0
SMALL
GASTEIGER

@<TRIPOS>ATOM
       1  C1          8.5170   32.5620   58.1960  C.3       1 <0>        -0.1815
       2  C2          7.2980   31.6800   58.4750  C.3       1 <0>         0.0772
       3  C3          7.7460   30.2270   58.6410  C.3       1 <0>        -0.1498
       4  O1          6.6560   32.1210   59.6730  O.3       1 <0>        -0.3181
       5  C4          5.2980   32.0660   59.7020  C.ar      1 <0>         0.1327
       6  C5          4.6290   32.0560   60.9180  C.ar      1 <0>        -0.1582
       7  C6          3.2500   31.9950   60.9450  C.ar      1 <0>        -0.0629
       8  C7          2.5350   31.9410   59.7620  C.ar      1 <0>        -0.1169
       9  C8          3.1990   31.9500   58.5490  C.ar      1 <0>        -0.0499
      10  C9          4.5790   32.0120   58.5170  C.ar      1 <0>        -0.2149
      11  C10         1.0300   31.8730   59.7950  C.3       1 <0>         0.2909
      12  C11         0.5560   31.1480   58.5600  C.2       1 <0>        -0.3046
      13  C12        -0.0920   31.7020   57.5200  C.2       1 <0>         0.2701
      14  C13        -0.5260   30.8500   56.3390  C.3       1 <0>        -0.1026
      15  C14         0.4650   29.7070   56.1260  C.3       1 <0>        -0.0265
      16  C15         0.4920   28.8680   57.4100  C.3       1 <0>        -0.1593
      17  C16         0.8550   29.7640   58.5570  C.2       1 <0>         0.4007
      18  O2          1.4250   29.2860   59.5170  O.2       1 <0>        -0.4744
      19  C17         0.0200   28.8530   54.9670  C.ar      1 <0>        -0.1388
      20  C18        -0.8620   29.3640   54.0330  C.ar      1 <0>        -0.0651
      21  C19        -1.2680   28.5860   52.9660  C.ar      1 <0>        -0.1918
      22  C20        -0.7960   27.2860   52.8370  C.ar      1 <0>         0.2130
      23  C21         0.0870   26.7750   53.7810  C.ar      1 <0>        -0.1919
      24  C22         0.4920   27.5600   54.8420  C.ar      1 <0>        -0.0636
      25  N1         -1.2070   26.4950   51.7620  N.pl3     1 <0>        -0.6387
      26  C23        -2.0470   27.0700   50.7090  C.3       1 <0>         0.0922
      27  C24        -0.7950   25.0910   51.6860  C.3       1 <0>         0.0924
      28  N2         -0.4260   33.0140   57.4290  N.pl3     1 <0>        -0.6988
      29  C25         0.4260   34.0740   57.7120  C.ar      1 <0>         0.1144
      30  C26         0.8430   34.9700   56.7420  C.ar      1 <0>        -0.1165
      31  C27         1.6530   36.0320   57.1030  C.ar      1 <0>        -0.1244
      32  C28         2.0420   36.1980   58.4200  C.ar      1 <0>        -0.1084
      33  C29         1.6410   35.2930   59.3870  C.ar      1 <0>        -0.1253
      34  C30         0.8480   34.2160   59.0250  C.ar      1 <0>         0.1731
      35  N3          0.5140   33.2180   59.9390  N.pl3     1 <0>        -0.7825
@<TRIPOS>BOND
     1     1     2 1
     2     2     3 1
     3     2     4 1
     4     4     5 1
     5     5    10 ar
     6     5     6 ar
     7     6     7 ar
     8     7     8 ar
     9     8     9 ar
    10     8    11 1
    11     9    10 ar
    12    11    35 1
    13    11    12 1
    14    12    17 1
    15    12    13 2
    16    13    14 1
    17    13    28 1
    18    14    15 1
    19    15    16 1
    20    15    19 1
    21    16    17 1
    22    17    18 2
    23    19    24 ar
    24    19    20 ar
    25    20    21 ar
    26    21    22 ar
    27    22    23 ar
    28    22    25 1
    29    23    24 ar
    30    25    26 1
    31    25    27 1
    32    28    29 1
    33    29    34 ar
    34    29    30 ar
    35    30    31 ar
    36    31    32 ar
    37    32    33 ar
    38    33    34 ar
    39    34    35 1

@<TRIPOS>MOLECULE
ZINC36953365_replica-1.pdb
 21 22 0 0 0
SMALL
GASTEIGER

@<TRIPOS>ATOM
       1  C1          3.1790   36.0190   58.6950  C.3       1 <0>        -0.1555
       2  C2          2.0620   35.9060   57.6560  C.3       1 <0>        -0.1156
       3  C3          0.9220   35.0560   58.2220  C.3       1 <0>        -0.0452
       4  C4          1.1920   34.7600   59.6980  C.3       1 <0>        -0.1455
       5  C5          0.8350   33.7600   57.4580  C.ar      1 <0>        -0.1350
       6  C6          1.8650   33.3850   56.6160  C.ar      1 <0>        -0.0650
       7  C7          1.7880   32.1970   55.9150  C.ar      1 <0>        -0.1934
       8  C8          0.6740   31.3810   56.0550  C.ar      1 <0>         0.2136
       9  C9         -0.3600   31.7610   56.9010  C.ar      1 <0>        -0.1966
      10  C10        -0.2740   32.9470   57.6040  C.ar      1 <0>        -0.0688
      11  N1          0.5920   30.1790   55.3460  N.pl3     1 <0>        -0.7421
      12  C11        -0.5710   29.3060   55.5170  C.3       1 <0>         0.1664
      13  C12        -0.5470   28.2260   54.4670  C.ar      1 <0>        -0.1200
      14  C13        -1.1790   28.4270   53.2530  C.ar      1 <0>        -0.0564
      15  C14        -1.1560   27.4370   52.2900  C.ar      1 <0>        -0.1314
      16  C15        -0.5020   26.2450   52.5390  C.ar      1 <0>        -0.0679
      17  C16         0.1300   26.0430   53.7510  C.ar      1 <0>        -0.1315
      18  C17         0.1120   27.0360   54.7130  C.ar      1 <0>        -0.0559
      19  C18         0.8050   26.8180   56.0330  C.3       1 <0>        -0.1219
      20  C19        -0.4790   25.1650   51.4880  C.3       1 <0>        -0.1179
      21  C20        -1.8910   29.7270   52.9820  C.3       1 <0>        -0.1196
@<TRIPOS>BOND
     1     1     2 1
     2     2     3 1
     3     3     4 1
     4     3     5 1
     5     5    10 ar
     6     5     6 ar
     7     6     7 ar
     8     7     8 ar
     9     8     9 ar
    10     8    11 1
    11     9    10 ar
    12    11    12 1
    13    12    13 1
    14    13    18 ar
    15    13    14 ar
    16    14    15 ar
    17    14    21 1
    18    15    16 ar
    19    16    17 ar
    20    16    20 1
    21    17    18 ar
    22    18    19 1

@<TRIPOS>MOLECULE
ZINC04064384_replica-1.pdb
 34 38 0 0 0
SMALL
GASTEIGER

@<TRIPOS>ATOM
       1  C1          6.1720   28.4200   62.8690  C.3       1 <0>        -0.1502
       2  C2          6.1250   29.3180   61.6320  C.3       1 <0>        -0.1241
       3  C3          6.1870   30.7850   62.0630  C.3       1 <0>         0.0601
       4  O1          5.9950   31.6250   60.9240  O.3       1 <0>        -0.3175
       5  C4          4.7170   31.8000   60.4950  C.ar      1 <0>         0.1298
       6  C5          4.3940   31.5740   59.1650  C.ar      1 <0>        -0.1562
       7  C6          3.0950   31.7510   58.7310  C.ar      1 <0>        -0.0496
       8  C7          2.1160   32.1540   59.6220  C.ar      1 <0>        -0.1235
       9  C8          2.4380   32.3850   60.9460  C.ar      1 <0>        -0.0637
      10  C9          3.7340   32.2040   61.3860  C.ar      1 <0>        -0.2120
      11  C10         0.7000   32.3470   59.1460  C.3       1 <0>         0.2811
      12  C11         0.5140   31.5650   57.8670  C.2       1 <0>        -0.2931
      13  C12         0.3640   32.0890   56.6380  C.2       1 <0>         0.2569
      14  C13         0.2070   31.1810   55.4290  C.3       1 <0>        -0.1007
      15  C14        -0.5270   29.9020   55.8290  C.3       1 <0>        -0.0331
      16  C15         0.3030   29.2060   56.9140  C.3       1 <0>        -0.1503
      17  C16         0.5040   30.1630   58.0510  C.2       1 <0>         0.3987
      18  O2          0.6660   29.7170   59.1700  O.2       1 <0>        -0.4680
      19  C17        -0.6670   28.9960   54.6330  C.ar      1 <0>        -0.1185
      20  C18        -0.0100   27.7810   54.6070  C.ar      1 <0>        -0.0706
      21  C19        -0.1360   26.9490   53.5120  C.ar      1 <0>        -0.1492
      22  C20        -0.9240   27.3350   52.4370  C.ar      1 <0>         0.1277
      23  C21        -1.5840   28.5550   52.4660  C.ar      1 <0>        -0.2053
      24  C22        -1.4530   29.3840   53.5640  C.ar      1 <0>        -0.0726
      25  O3         -1.0500   26.5190   51.3570  O.3       1 <0>        -0.3177
      26  C23        -0.8080   25.1260   51.5650  C.3       1 <0>         0.0265
      27  N1          0.3390   33.4160   56.3560  N.pl3     1 <0>        -0.6853
      28  C24         1.2460   34.3470   56.8480  C.ar      1 <0>         0.1131
      29  C25         2.1160   35.0380   56.0220  C.ar      1 <0>        -0.1150
      30  C26         2.9640   35.9850   56.5710  C.ar      1 <0>        -0.1225
      31  C27         2.9410   36.2390   57.9310  C.ar      1 <0>        -0.1071
      32  C28         2.0830   35.5360   58.7590  C.ar      1 <0>        -0.1228
      33  C29         1.2480   34.5730   58.2150  C.ar      1 <0>         0.1729
      34  N2          0.4470   33.7660   59.0220  N.pl3     1 <0>        -0.7682
@<TRIPOS>BOND
     1     1     2 1
     2     2     3 1
     3     3     4 1
     4     4     5 1
     5     5    10 ar
     6     5     6 ar
     7     6     7 ar
     8     7     8 ar
     9     8     9 ar
    10     8    11 1
    11     9    10 ar
    12    11    34 1
    13    11    12 1
    14    12    17 1
    15    12    13 2
    16    13    14 1
    17    13    27 1
    18    14    15 1
    19    15    16 1
    20    15    19 1
    21    16    17 1
    22    17    18 2
    23    19    24 ar
    24    19    20 ar
    25    20    21 ar
    26    21    22 ar
    27    22    23 ar
    28    22    25 1
    29    23    24 ar
    30    25    26 1
    31    27    28 1
    32    28    33 ar
    33    28    29 ar
    34    29    30 ar
    35    30    31 ar
    36    31    32 ar
    37    32    33 ar
    38    33    34 1

@<TRIPOS>MOLECULE
ZINC41388353_replica-1.pdb
 20 21 0 0 0
SMALL
GASTEIGER

@<TRIPOS>ATOM
       1  C1         14.9460   33.6560   62.8740  C.3       1 <0>        -0.1220
       2  C2         13.7270   32.7880   63.0540  C.ar      1 <0>        -0.0796
       3  C3         13.8060   31.6330   63.8110  C.ar      1 <0>        -0.1184
       4  C4         12.6880   30.8370   63.9770  C.ar      1 <0>        -0.1189
       5  C5         11.4910   31.1970   63.3860  C.ar      1 <0>        -0.1242
       6  C6         11.4110   32.3510   62.6300  C.ar      1 <0>        -0.1150
       7  C7         12.5280   33.1490   62.4690  C.ar      1 <0>        -0.0847
       8  C8         12.4400   34.4110   61.6490  C.3       1 <0>        -0.0716
       9  C9         11.2500   35.2470   62.1250  C.3       1 <0>        -0.0414
      10  C10        11.7600   36.4710   62.8870  C.3       1 <0>         0.0814
      11  O1         12.1460   36.0830   64.2080  O.3       1 <0>        -0.5686
      12  C11        10.4440   35.6960   60.9340  C.ar      1 <0>        -0.0701
      13  C12        10.3030   34.8620   59.8410  C.ar      1 <0>        -0.1139
      14  C13         9.5630   35.2730   58.7480  C.ar      1 <0>        -0.1161
      15  C14         8.9640   36.5180   58.7490  C.ar      1 <0>        -0.0790
      16  C15         9.1040   37.3520   59.8420  C.ar      1 <0>        -0.1117
      17  C16         9.8390   36.9390   60.9370  C.ar      1 <0>        -0.1067
      18  C17         8.1580   36.9680   57.5570  C.3       1 <0>        -0.0578
      19  C18         8.6450   38.3450   57.1020  C.3       1 <0>        -0.1445
      20  C19         8.3310   35.9640   56.4160  C.3       1 <0>        -0.1447
@<TRIPOS>BOND
     1     1     2 1
     2     2     7 ar
     3     2     3 ar
     4     3     4 ar
     5     4     5 ar
     6     5     6 ar
     7     6     7 ar
     8     7     8 1
     9     8     9 1
    10     9    10 1
    11     9    12 1
    12    10    11 1
    13    12    17 ar
    14    12    13 ar
    15    13    14 ar
    16    14    15 ar
    17    15    16 ar
    18    15    18 1
    19    16    17 ar
    20    18    19 1
    21    18    20 1

@<TRIPOS>MOLECULE
ZINC61848972_replica-1.pdb
 23 24 0 0 0
SMALL
GASTEIGER

@<TRIPOS>ATOM
      1  C11       -0.2370   29.8160   56.2590 C.ar    0  <0>0        0.0489
      2  C12       -0.1160   30.8080   55.2900 C.ar    0  <0>0        0.0146
      3  C13        0.2360   32.0880   55.6520 C.ar    0  <0>0        0.0039
      4  C14        0.4730   32.3930   56.9960 C.ar    0  <0>0        0.0302
      5  C15        0.3520   31.3930   57.9680 C.ar    0  <0>0        0.0606
      6  C16       -0.0070   30.1160   57.5980 C.ar    0  <0>0        0.0260
      7 Cl          0.6450   31.7640   59.6390 Cl      0  <0>0       -0.0821
      8  N1        -0.5930   28.5230   55.8890 N.pl3   0  <0>0       -0.3052
      9  C2        -1.9450   28.0280   56.1660 C.3     0  <0>0        0.0732
     10  C1        -1.9940   27.4460   57.5800 C.3     0  <0>0        0.0214
     11  C3        -2.9420   29.1810   56.0540 C.3     0  <0>0        0.0214
     12  C4         0.3810   27.6570   55.2220 C.3     0  <0>0        0.1177
     13  C5        -0.1700   27.2090   53.8930 C.ar    0  <0>0       -0.0024
     14  C10       -0.8670   28.1000   53.0980 C.ar    0  <0>0       -0.0026
     15  C9        -1.3700   27.6900   51.8780 C.ar    0  <0>0       -0.0003
     16  C8        -1.1840   26.3870   51.4560 C.ar    0  <0>0       -0.0000
     17  C7        -0.4920   25.4940   52.2530 C.ar    0  <0>0       -0.0003
     18  C6         0.0160   25.9060   53.4720 C.ar    0  <0>0       -0.0026
     19  C17        0.8510   33.7610   57.3870 C.2     0  <0>0        0.0789
     20  S1         2.5020   34.2110   57.4400 S.2     0  <0>0       -0.0351
     21  N2        -0.1030   34.6580   57.7040 N.am    0  <0>0       -0.3517
     22  H18       -1.0330   34.3850   57.7470 H       0  <0>0        0.1428
     23  H19        0.1400   35.5800   57.8910 H       0  <0>0        0.1428
@<TRIPOS>BOND
     1    16    15   ar
     2    16    17   ar
     3    15    14   ar
     4    17    18   ar
     5    14    13   ar
     6    18    13   ar
     7    13    12    1
     8    12     8    1
     9     2     3   ar
    10     2     1   ar
    11     3     4   ar
    12     8     9    1
    13     8     1    1
    14    11     9    1
    15     9    10    1
    16     1     6   ar
    17     4    19    1
    18     4     5   ar
    19    19    20    2
    20    19    21    1
    21     6     5   ar
    22    21    22    1
    23    21    23    1
    24     5     7    1


@<TRIPOS>MOLECULE
ZINC04591614_replica-1.pdb
 26 28 0 0 0
SMALL
GASTEIGER

@<TRIPOS>ATOM
       1  C1         16.9690   34.3870   65.0700  C.2       1 <0>        -0.1949
       2  C2         15.8090   33.8720   64.7440  C.2       1 <0>        -0.1429
       3  C3         15.5310   33.4850   63.3140  C.3       1 <0>        -0.0480
       4  C4         14.1400   32.9150   63.2100  C.ar      1 <0>        -0.1166
       5  C5         13.8380   31.7180   63.8290  C.ar      1 <0>        -0.0764
       6  C6         12.5620   31.1840   63.7400  C.ar      1 <0>        -0.1342
       7  C7         11.5810   31.8430   63.0310  C.ar      1 <0>        -0.0721
       8  C8         11.8730   33.0560   62.3980  C.ar      1 <0>        -0.1135
       9  C9         13.1650   33.5940   62.4960  C.ar      1 <0>         0.1639
      10  O1         13.4600   34.7730   61.8910  O.3       1 <0>        -0.4686
      11  C10        10.8320   33.7640   61.6390  C.2       1 <0>         0.2094
      12  N1         11.1670   34.5700   60.6690  N.2       1 <0>        -0.4628
      13  C11        10.2000   35.2280   59.9640  C.ar      1 <0>         0.1168
      14  C12         9.5720   34.5990   58.8830  C.ar      1 <0>        -0.1609
      15  C13         8.6050   35.2570   58.1780  C.ar      1 <0>        -0.0367
      16  C14         8.2420   36.5610   58.5370  C.ar      1 <0>         0.0333
      17  C15         8.8710   37.1890   59.6180  C.ar      1 <0>        -0.0799
      18  C16         9.8330   36.5290   60.3260  C.ar      1 <0>        -0.1088
      19  N2          7.2770   37.2170   57.8330  N.2       1 <0>        -0.2108
      20  N3          6.5870   36.5870   56.9440  N.2       1 <0>        -0.2159
      21  C17         5.2720   36.2980   57.1790  C.ar      1 <0>         0.0435
      22  C18         4.3680   36.2200   56.1150  C.ar      1 <0>        -0.0977
      23  C19         3.0430   35.9280   56.3600  C.ar      1 <0>        -0.1260
      24  C20         2.6070   35.7110   57.6550  C.ar      1 <0>        -0.0912
      25  C21         3.4950   35.7860   58.7140  C.ar      1 <0>        -0.1251
      26  C22         4.8250   36.0720   58.4840  C.ar      1 <0>        -0.0576
@<TRIPOS>BOND
     1     1     2 2
     2     2     3 1
     3     3     4 1
     4     4     9 ar
     5     4     5 ar
     6     5     6 ar
     7     6     7 ar
     8     7     8 ar
     9     8     9 ar
    10     8    11 1
    11     9    10 1
    12    11    12 2
    13    12    13 1
    14    13    18 ar
    15    13    14 ar
    16    14    15 ar
    17    15    16 ar
    18    16    17 ar
    19    16    19 1
    20    17    18 ar
    21    19    20 2
    22    20    21 1
    23    21    26 ar
    24    21    22 ar
    25    22    23 ar
    26    23    24 ar
    27    24    25 ar
    28    25    26 ar

@<TRIPOS>MOLECULE
ZINC38118084_replica-1.pdb
 22 23 0 0 0
SMALL
GASTEIGER

@<TRIPOS>ATOM
      1  C10       10.9460   35.4640   61.9310 C.3     0  <0>0        0.1216
      2  C7        10.1940   35.8960   60.6990 C.ar    0  <0>0       -0.0022
      3  C6         9.6190   37.1510   60.6440 C.ar    0  <0>0       -0.0029
      4  C5         8.9290   37.5470   59.5130 C.ar    0  <0>0       -0.0045
      5  C4         8.8160   36.6880   58.4370 C.ar    0  <0>0       -0.0225
      6  C9         9.3860   35.4300   58.4940 C.ar    0  <0>0       -0.0045
      7  C8        10.0790   35.0350   59.6240 C.ar    0  <0>0       -0.0029
      8  C2         8.0640   37.1190   57.2040 C.3     0  <0>0        0.0224
      9  C1         8.4360   38.5630   56.8580 C.3     0  <0>0        0.0047
     10  C3         8.4330   36.2030   56.0350 C.3     0  <0>0        0.0047
     11  C11       11.6130   36.6820   62.5750 C.3     0  <0>0        0.1610
     12  O1        11.9360   36.3850   63.9340 O.3     0  <0>0       -0.3799
     13  H15       12.8850   36.3680   64.1180 H       0  <0>0        0.2105
     14  N1        11.9710   34.4850   61.5600 N.pl3   0  <0>0       -0.3287
     15  H16       12.5490   34.6540   60.7990 H       0  <0>0        0.1471
     16  C12       12.1160   33.3100   62.3010 C.ar    0  <0>0        0.0449
     17  C17       11.0090   32.5120   62.5620 C.ar    0  <0>0        0.0148
     18  C16       11.1570   31.3470   63.2900 C.ar    0  <0>0        0.0080
     19  C15       12.4020   30.9830   63.7700 C.ar    0  <0>0        0.0346
     20  C14       13.5050   31.7800   63.5160 C.ar    0  <0>0        0.0080
     21 Br         12.5990   29.3910   64.7720 Br      0  <0>0       -0.0490
     22  C13       13.3650   32.9410   62.7840 C.ar    0  <0>0        0.0148
@<TRIPOS>BOND
     1    10     8    1
     2     9     8    1
     3     8     5    1
     4     5     6   ar
     5     5     4   ar
     6     6     7   ar
     7     4     3   ar
     8     7     2   ar
     9     3     2   ar
    10     2     1    1
    11    15    14    1
    12    14     1    1
    13    14    16    1
    14     1    11    1
    15    16    17   ar
    16    16    22   ar
    17    17    18   ar
    18    11    12    1
    19    22    20   ar
    20    18    19   ar
    21    20    19   ar
    22    19    21    1
    23    12    13    1


@<TRIPOS>MOLECULE
ZINC58775207_replica-1.pdb
 31 33 0 0 0
SMALL
GASTEIGER

@<TRIPOS>ATOM
       1  C1          7.2910   38.2310   59.4180  C.3       1 <0>        -0.1537
       2  C2          6.0820   37.5770   60.0910  C.3       1 <0>         0.0535
       3  O1          6.3510   36.1910   60.3110  O.3       1 <0>        -0.3149
       4  C3          5.3320   35.3210   60.0810  C.ar      1 <0>         0.1371
       5  C4          5.2670   34.1260   60.7840  C.ar      1 <0>        -0.2040
       6  C5          4.2310   33.2440   60.5480  C.ar      1 <0>        -0.0604
       7  C6          3.2580   33.5500   59.6140  C.ar      1 <0>        -0.1302
       8  C7          3.3210   34.7400   58.9140  C.ar      1 <0>        -0.0700
       9  C8          4.3530   35.6280   59.1490  C.ar      1 <0>        -0.1468
      10  C9          2.1300   32.5850   59.3600  C.3       1 <0>         0.2366
      11  C10         1.2340   32.5300   60.5710  C.ar      1 <0>        -0.0914
      12  C11         0.6160   33.6810   61.0250  C.ar      1 <0>        -0.1041
      13  C12        -0.2070   33.6300   62.1360  C.ar      1 <0>        -0.1197
      14  C13        -0.4100   32.4310   62.7920  C.ar      1 <0>        -0.1175
      15  C14         0.2070   31.2800   62.3360  C.ar      1 <0>        -0.1177
      16  C15         1.0250   31.3300   61.2220  C.ar      1 <0>        -0.1015
      17  N1          1.3560   33.0340   58.2000  N.am      1 <0>        -0.7183
      18  C16         0.9470   32.1410   57.2760  C.2       1 <0>         0.5143
      19  O2          1.2200   30.9660   57.4050  O.2       1 <0>        -0.5281
      20  C17         0.1510   32.6030   56.0830  C.3       1 <0>         0.1005
      21  N2         -0.0590   31.4760   55.1710  N.am      1 <0>        -0.7153
      22  C18        -1.2670   30.8810   55.1030  C.2       1 <0>         0.5527
      23  O3         -2.1820   31.2810   55.7990  O.2       1 <0>        -0.5450
      24  C19        -1.4790   29.7540   54.1920  C.2       1 <0>        -0.2158
      25  C20        -0.4920   28.8590   53.9850  C.2       1 <0>        -0.0112
      26  C21        -0.7050   27.7270   53.0690  C.ar      1 <0>        -0.0808
      27  C22        -1.4740   27.8950   51.9130  C.ar      1 <0>        -0.1002
      28  C23        -1.6690   26.8290   51.0590  C.ar      1 <0>        -0.1226
      29  C24        -1.1080   25.5970   51.3450  C.ar      1 <0>        -0.1068
      30  C25        -0.3450   25.4240   52.4860  C.ar      1 <0>        -0.1229
      31  C26        -0.1360   26.4810   53.3470  C.ar      1 <0>        -0.0934
@<TRIPOS>BOND
     1     1     2 1
     2     2     3 1
     3     3     4 1
     4     4     9 ar
     5     4     5 ar
     6     5     6 ar
     7     6     7 ar
     8     7     8 ar
     9     7    10 1
    10     8     9 ar
    11    10    11 1
    12    10    17 1
    13    11    16 ar
    14    11    12 ar
    15    12    13 ar
    16    13    14 ar
    17    14    15 ar
    18    15    16 ar
    19    17    18 am
    20    18    19 2
    21    18    20 1
    22    20    21 1
    23    21    22 am
    24    22    23 2
    25    22    24 1
    26    24    25 2
    27    25    26 1
    28    26    31 ar
    29    26    27 ar
    30    27    28 ar
    31    28    29 ar
    32    29    30 ar
    33    30    31 ar

@<TRIPOS>MOLECULE
ZINC05517994_replica-1.pdb
 30 32 0 0 0
SMALL
GASTEIGER

@<TRIPOS>ATOM
       1  C1          0.7260   34.4890   59.4180  C.3       1 <0>        -0.1864
       2  C2          2.1440   34.1110   59.8540  C.3       1 <0>         0.0766
       3  C3          2.0860   32.8860   60.7700  C.3       1 <0>        -0.1530
       4  O1          2.9310   33.8050   58.7010  O.3       1 <0>        -0.3014
       5  C4          3.9390   34.6640   58.3980  C.ar      1 <0>         0.1759
       6  C5          4.3700   35.5890   59.3380  C.ar      1 <0>        -0.2128
       7  C6          5.3960   36.4610   59.0270  C.ar      1 <0>        -0.0477
       8  C7          5.9930   36.4120   57.7810  C.ar      1 <0>        -0.2143
       9  C8          5.5620   35.4950   56.8410  C.ar      1 <0>        -0.0489
      10  C9          4.5400   34.6180   57.1490  C.ar      1 <0>        -0.1538
      11  C10         7.1120   37.3650   57.4460  C.3       1 <0>         0.0568
      12  C11         8.7010   38.2230   59.0580  C.3       1 <0>        -0.0094
      13  C12         8.7860   37.2020   60.1940  C.3       1 <0>        -0.1431
      14  C13         9.6890   36.0420   59.7700  C.3       1 <0>         0.0143
      15  C14         8.8420   34.8420   59.4330  C.ar      1 <0>        -0.1307
      16  C15         8.9680   34.2330   58.1990  C.ar      1 <0>        -0.0741
      17  C16         8.1970   33.1280   57.8890  C.ar      1 <0>        -0.2063
      18  C17         7.2860   32.6390   58.8150  C.ar      1 <0>         0.1391
      19  C18         7.1570   33.2570   60.0510  C.ar      1 <0>        -0.1474
      20  C19         7.9350   34.3570   60.3570  C.ar      1 <0>        -0.0666
      21  O2          6.5210   31.5580   58.5110  O.3       1 <0>        -0.3139
      22  C20         5.3460   31.3530   59.2970  C.3       1 <0>         0.0250
      23  C21        10.6230   35.6940   60.9020  C.ar      1 <0>        -0.1056
      24  C22        11.3040   34.4900   60.8890  C.ar      1 <0>        -0.0820
      25  C23        12.1630   34.1720   61.9230  C.ar      1 <0>        -0.1477
      26  C24        12.3360   35.0540   62.9750  C.ar      1 <0>         0.1073
      27  C25        11.6510   36.2560   62.9890  C.ar      1 <0>        -0.1502
      28  C26        10.7950   36.5750   61.9520  C.ar      1 <0>        -0.0908
      29  F1         13.1730   34.7420   63.9900  F         1 <0>        -0.1331
      30  N1          7.3090   38.2940   58.5750  N.4       1 <0>        -0.5188
@<TRIPOS>BOND
     1     1     2 1
     2     2     3 1
     3     2     4 1
     4     4     5 1
     5     5    10 ar
     6     5     6 ar
     7     6     7 ar
     8     7     8 ar
     9     8     9 ar
    10     8    11 1
    11     9    10 ar
    12    11    30 1
    13    12    13 1
    14    12    30 1
    15    13    14 1
    16    14    15 1
    17    14    23 1
    18    15    20 ar
    19    15    16 ar
    20    16    17 ar
    21    17    18 ar
    22    18    19 ar
    23    18    21 1
    24    19    20 ar
    25    21    22 1
    26    23    28 ar
    27    23    24 ar
    28    24    25 ar
    29    25    26 ar
    30    26    27 ar
    31    26    29 1
    32    27    28 ar

@<TRIPOS>MOLECULE
ZINC09676135_replica-1.pdb
 31 35 0 0 0
SMALL
GASTEIGER

@<TRIPOS>ATOM
       1  C1         17.4180   34.5480   64.4780  C.3       1 <0>        -0.1562
       2  C2         16.0370   34.1200   64.9800  C.3       1 <0>         0.0501
       3  O1         15.5980   32.9760   64.2460  O.3       1 <0>        -0.3123
       4  C3         14.4090   33.0790   63.5940  C.ar      1 <0>         0.1515
       5  C4         13.4950   32.0360   63.6520  C.ar      1 <0>        -0.1523
       6  C5         12.2890   32.1380   62.9920  C.ar      1 <0>        -0.0400
       7  C6         11.9880   33.2890   62.2660  C.ar      1 <0>        -0.0710
       8  C7         12.9110   34.3340   62.2060  C.ar      1 <0>        -0.0464
       9  C8         14.1140   34.2270   62.8730  C.ar      1 <0>        -0.2080
      10  C9         10.6930   33.4030   61.5540  C.2       1 <0>         0.1813
      11  C10        10.0860   34.6360   61.0510  C.ar      1 <0>        -0.2189
      12  C11        10.4640   35.9900   61.0580  C.ar      1 <0>         0.2243
      13  N1          9.7050   36.9080   60.5180  N.ar      1 <0>        -0.4819
      14  C12         8.5330   36.6160   59.9330  C.ar      1 <0>         0.1126
      15  C13         8.0730   35.2780   59.8790  C.ar      1 <0>        -0.0451
      16  C14         8.8720   34.2620   60.4540  C.ar      1 <0>         0.1690
      17  N2          8.7560   32.9110   60.5880  N.pl3     1 <0>        -0.3240
      18  N3          9.8780   32.4150   61.2620  N.2       1 <0>        -0.2356
      19  C15         7.6860   32.1390   60.1210  C.ar      1 <0>         0.1241
      20  C16         6.5700   31.9380   60.9230  C.ar      1 <0>        -0.0666
      21  C17         5.5130   31.1800   60.4580  C.ar      1 <0>        -0.1364
      22  C18         5.5700   30.6120   59.1950  C.ar      1 <0>         0.1167
      23  C19         6.6840   30.8070   58.3960  C.ar      1 <0>        -0.1366
      24  C20         7.7410   31.5680   58.8560  C.ar      1 <0>        -0.0909
      25  F1          4.5370   29.8670   58.7440  F         1 <0>        -0.1279
      26  C21         6.8510   34.9880   59.2650  C.ar      1 <0>        -0.1573
      27  C22         6.1080   35.9980   58.7200  C.ar      1 <0>         0.1353
      28  C23         6.5560   37.3160   58.7700  C.ar      1 <0>        -0.1679
      29  C24         7.7440   37.6300   59.3630  C.ar      1 <0>         0.1642
      30  F2          8.1620   38.9140   59.4010  F         1 <0>        -0.1070
      31  F3          4.9280   35.7150   58.1270  F         1 <0>        -0.1232
@<TRIPOS>BOND
     1     1     2 1
     2     2     3 1
     3     3     4 1
     4     4     9 ar
     5     4     5 ar
     6     5     6 ar
     7     6     7 ar
     8     7     8 ar
     9     7    10 1
    10     8     9 ar
    11    10    18 2
    12    10    11 1
    13    11    16 ar
    14    11    12 ar
    15    12    13 ar
    16    13    14 ar
    17    14    29 ar
    18    14    15 ar
    19    15    16 ar
    20    15    26 ar
    21    16    17 1
    22    17    18 1
    23    17    19 1
    24    19    24 ar
    25    19    20 ar
    26    20    21 ar
    27    21    22 ar
    28    22    23 ar
    29    22    25 1
    30    23    24 ar
    31    26    27 ar
    32    27    28 ar
    33    27    31 1
    34    28    29 ar
    35    29    30 1

@<TRIPOS>MOLECULE
ZINC17067487_replica-1.pdb
 25 27 0 0 0
SMALL
GASTEIGER

@<TRIPOS>ATOM
       1  C1         12.9360   30.8820   63.9420  C.ar      1 <0>        -0.1079
       2  C2         11.7400   31.3640   63.4420  C.ar      1 <0>        -0.1228
       3  C3         11.6920   32.6120   62.8500  C.ar      1 <0>        -0.0949
       4  C4         12.8390   33.3780   62.7580  C.ar      1 <0>        -0.1004
       5  C5         14.0350   32.8960   63.2580  C.ar      1 <0>        -0.0949
       6  C6         14.0820   31.6480   63.8500  C.ar      1 <0>        -0.1228
       7  C7         12.7870   34.7390   62.1130  C.3       1 <0>         0.1011
       8  O1         11.5130   35.3370   62.3650  O.3       1 <0>        -0.3052
       9  C8         10.7510   35.6430   61.2840  C.ar      1 <0>         0.1464
      10  C9         10.6610   34.7480   60.2250  C.ar      1 <0>        -0.2141
      11  C10         9.8850   35.0520   59.1290  C.ar      1 <0>        -0.0548
      12  C11         9.1950   36.2690   59.0790  C.ar      1 <0>        -0.1217
      13  C12         9.2940   37.1690   60.1450  C.ar      1 <0>        -0.0504
      14  C13        10.0680   36.8530   61.2390  C.ar      1 <0>        -0.1547
      15  C14         8.3700   36.6000   57.9080  C.2       1 <0>        -0.0069
      16  C15         8.1050   35.6560   56.9780  C.2       1 <0>        -0.2426
      17  C16         7.2850   35.9850   55.8150  C.2       1 <0>         0.4288
      18  O2          7.7990   36.4840   54.8300  O.2       1 <0>        -0.4728
      19  C17         5.8340   35.7150   55.8340  C.ar      1 <0>        -0.2238
      20  C18         5.0620   36.1090   56.9310  C.ar      1 <0>        -0.0214
      21  C19         3.7090   35.8590   56.9430  C.ar      1 <0>        -0.2146
      22  C20         3.1100   35.2040   55.8700  C.ar      1 <0>         0.2475
      23  C21         3.8770   34.8050   54.7790  C.ar      1 <0>        -0.2138
      24  C22         5.2300   35.0560   54.7580  C.ar      1 <0>        -0.0100
      25  N1          1.7440   34.9490   55.8880  N.pl3     1 <0>        -0.8674
@<TRIPOS>BOND
     1     1     6 ar
     2     1     2 ar
     3     2     3 ar
     4     3     4 ar
     5     4     5 ar
     6     4     7 1
     7     5     6 ar
     8     7     8 1
     9     8     9 1
    10     9    14 ar
    11     9    10 ar
    12    10    11 ar
    13    11    12 ar
    14    12    13 ar
    15    12    15 1
    16    13    14 ar
    17    15    16 2
    18    16    17 1
    19    17    18 2
    20    17    19 1
    21    19    24 ar
    22    19    20 ar
    23    20    21 ar
    24    21    22 ar
    25    22    23 ar
    26    22    25 1
    27    23    24 ar

@<TRIPOS>MOLECULE
ZINC21258964_replica-1.pdb
 35 39 0 0 0
SMALL
GASTEIGER

@<TRIPOS>ATOM
       1  C1          5.0310   26.3380   60.5170  C.3       1 <0>        -0.1553
       2  C2          6.0240   27.5000   60.5800  C.3       1 <0>        -0.1192
       3  C3          5.2670   28.8040   60.8410  C.3       1 <0>         0.0806
       4  C4          5.9230   29.5510   62.0030  C.3       1 <0>        -0.1812
       5  O1          3.9080   28.5080   61.1700  O.3       1 <0>        -0.3148
       6  C5          2.9480   29.2490   60.5550  C.ar      1 <0>         0.1342
       7  C6          1.9470   29.8480   61.3050  C.ar      1 <0>        -0.2157
       8  C7          0.9720   30.5980   60.6780  C.ar      1 <0>        -0.0492
       9  C8          0.9950   30.7550   59.3040  C.ar      1 <0>        -0.1190
      10  C9          1.9890   30.1530   58.5540  C.ar      1 <0>        -0.0632
      11  C10         2.9690   29.4060   59.1770  C.ar      1 <0>        -0.1584
      12  C11        -0.0700   31.5750   58.6230  C.3       1 <0>         0.2900
      13  C12        -0.3610   30.9570   57.2760  C.2       1 <0>        -0.3019
      14  C13        -0.0390   31.4820   56.0810  C.2       1 <0>         0.2700
      15  C14        -0.3940   30.7500   54.7970  C.3       1 <0>        -0.1019
      16  C15        -0.3580   29.2410   55.0290  C.3       1 <0>        -0.0295
      17  C16        -1.3740   28.9130   56.1290  C.3       1 <0>        -0.1587
      18  C17        -1.0280   29.7120   57.3500  C.2       1 <0>         0.4022
      19  O2         -1.3330   29.2740   58.4430  O.2       1 <0>        -0.4733
      20  C18        -0.7300   28.5210   53.7590  C.ar      1 <0>        -0.1128
      21  C19        -1.6330   29.0880   52.8810  C.ar      1 <0>        -0.0772
      22  C20        -1.9760   28.4280   51.7160  C.ar      1 <0>        -0.1544
      23  C21        -1.4150   27.1970   51.4250  C.ar      1 <0>        -0.0799
      24  C22        -0.5080   26.6270   52.2980  C.ar      1 <0>        -0.2063
      25  C23        -0.1670   27.2860   53.4710  C.ar      1 <0>         0.1341
      26  O3          0.7210   26.7250   54.3320  O.3       1 <0>        -0.3137
      27  C24         0.5120   25.3550   54.6800  C.3       1 <0>         0.0232
      28  N1          0.5980   32.6660   55.9030  N.pl3     1 <0>        -0.6981
      29  C25         1.7280   33.0760   56.6030  C.ar      1 <0>         0.1144
      30  C26         2.9330   33.3340   55.9750  C.ar      1 <0>        -0.1168
      31  C27         3.9860   33.8490   56.7120  C.ar      1 <0>        -0.1250
      32  C28         3.8340   34.1010   58.0630  C.ar      1 <0>        -0.1081
      33  C29         2.6360   33.8220   58.6970  C.ar      1 <0>        -0.1280
      34  C30         1.5860   33.2900   57.9660  C.ar      1 <0>         0.1749
      35  N2          0.3760   32.9510   58.5680  N.pl3     1 <0>        -0.7814
@<TRIPOS>BOND
     1     1     2 1
     2     2     3 1
     3     3     4 1
     4     3     5 1
     5     5     6 1
     6     6    11 ar
     7     6     7 ar
     8     7     8 ar
     9     8     9 ar
    10     9    10 ar
    11     9    12 1
    12    10    11 ar
    13    12    35 1
    14    12    13 1
    15    13    18 1
    16    13    14 2
    17    14    15 1
    18    14    28 1
    19    15    16 1
    20    16    17 1
    21    16    20 1
    22    17    18 1
    23    18    19 2
    24    20    25 ar
    25    20    21 ar
    26    21    22 ar
    27    22    23 ar
    28    23    24 ar
    29    24    25 ar
    30    25    26 1
    31    26    27 1
    32    28    29 1
    33    29    34 ar
    34    29    30 ar
    35    30    31 ar
    36    31    32 ar
    37    32    33 ar
    38    33    34 ar
    39    34    35 1

@<TRIPOS>MOLECULE
ZINC37244021_replica-1.pdb
 21 23 0 0 0
SMALL
GASTEIGER

@<TRIPOS>ATOM
       1  C1          1.2390   36.0000   57.1070  C.3       1 <0>        -0.1085
       2  C2          2.7270   35.8890   57.3210  C.ar      1 <0>        -0.1173
       3  C3          3.2390   35.8650   58.6060  C.ar      1 <0>        -0.0805
       4  C4          4.6020   35.7650   58.8060  C.ar      1 <0>        -0.1667
       5  C5          5.4590   35.6880   57.7170  C.ar      1 <0>         0.1888
       6  C6          4.9420   35.7120   56.4260  C.ar      1 <0>         0.0231
       7  C7          3.5760   35.8070   56.2340  C.ar      1 <0>        -0.1073
       8  F1          5.7720   35.6380   55.3620  F         1 <0>        -0.1441
       9  N1          6.8400   35.5860   57.9170  N.pl3     1 <0>        -0.7341
      10  C8          7.6180   36.7770   58.2680  C.3       1 <0>         0.2324
      11  C9          8.6910   36.4020   59.2590  C.ar      1 <0>        -0.1356
      12  C10         8.9120   37.1960   60.3690  C.ar      1 <0>        -0.0585
      13  C11         9.8940   36.8540   61.2790  C.ar      1 <0>        -0.1515
      14  C12        10.6580   35.7140   61.0780  C.ar      1 <0>         0.1295
      15  C13        10.4330   34.9190   59.9640  C.ar      1 <0>        -0.2062
      16  C14         9.4470   35.2610   59.0600  C.ar      1 <0>        -0.0689
      17  O1         11.6240   35.3760   61.9720  O.3       1 <0>        -0.3179
      18  C15        11.8160   33.9820   62.2230  C.3       1 <0>         0.0267
      19  C16         8.2670   37.3520   57.0080  C.3       1 <0>        -0.1656
      20  C17         8.7010   38.8190   57.0440  C.3       1 <0>        -0.1653
      21  C18         7.4780   38.4020   56.2240  C.3       1 <0>        -0.1700
@<TRIPOS>BOND
     1     1     2 1
     2     2     7 ar
     3     2     3 ar
     4     3     4 ar
     5     4     5 ar
     6     5     6 ar
     7     5     9 1
     8     6     7 ar
     9     6     8 1
    10     9    10 1
    11    10    11 1
    12    10    19 1
    13    11    16 ar
    14    11    12 ar
    15    12    13 ar
    16    13    14 ar
    17    14    15 ar
    18    14    17 1
    19    15    16 ar
    20    17    18 1
    21    19    21 1
    22    19    20 1
    23    20    21 1

@<TRIPOS>MOLECULE
ZINC40263891_replica-1.pdb
 21 22 0 0 0
SMALL
GASTEIGER

@<TRIPOS>ATOM
       1  C1         12.3370   34.9910   62.8970  C.3       1 <0>        -0.1448
       2  C2         11.7700   34.2700   61.6720  C.3       1 <0>        -0.0588
       3  C3         11.0190   33.0160   62.1210  C.3       1 <0>        -0.1448
       4  C4         10.8240   35.1880   60.9430  C.ar      1 <0>        -0.0718
       5  C5         10.4290   36.3780   61.5240  C.ar      1 <0>        -0.1132
       6  C6          9.5610   37.2200   60.8550  C.ar      1 <0>        -0.0969
       7  C7          9.0880   36.8730   59.6030  C.ar      1 <0>        -0.1154
       8  C8          9.4830   35.6820   59.0210  C.ar      1 <0>        -0.1060
       9  C9         10.3550   34.8430   59.6890  C.ar      1 <0>        -0.1154
      10  C10         8.1410   37.7900   58.8740  C.3       1 <0>         0.1980
      11  C11         6.8790   37.0400   58.5320  C.ar      1 <0>        -0.1268
      12  C12         6.0740   36.5450   59.5400  C.ar      1 <0>        -0.0802
      13  C13         4.9180   35.8560   59.2270  C.ar      1 <0>        -0.1372
      14  C14         4.5610   35.6630   57.9050  C.ar      1 <0>        -0.0810
      15  C15         5.3610   36.1560   56.8940  C.ar      1 <0>        -0.1869
      16  C16         6.5200   36.8520   57.2040  C.ar      1 <0>         0.1181
      17  O1          7.3070   37.3440   56.2120  O.3       1 <0>        -0.3184
      18  C17         7.9930   36.3910   55.3960  C.3       1 <0>         0.4114
      19  F1          8.2780   35.2500   56.1520  F         1 <0>        -0.1968
      20  F2          7.1850   36.0400   54.3090  F         1 <0>        -0.1970
      21  O2          7.8220   38.9060   59.7060  O.3       1 <0>        -0.5451
@<TRIPOS>BOND
     1     1     2 1
     2     2     3 1
     3     2     4 1
     4     4     9 ar
     5     4     5 ar
     6     5     6 ar
     7     6     7 ar
     8     7     8 ar
     9     7    10 1
    10     8     9 ar
    11    10    11 1
    12    10    21 1
    13    11    16 ar
    14    11    12 ar
    15    12    13 ar
    16    13    14 ar
    17    14    15 ar
    18    15    16 ar
    19    16    17 1
    20    17    18 1
    21    18    19 1
    22    18    20 1

@<TRIPOS>MOLECULE
ZINC21250647_replica-1.pdb
 34 38 0 0 0
SMALL
GASTEIGER

@<TRIPOS>ATOM
       1  C1         15.3320   33.7620   64.4630  C.3       1 <0>        -0.1495
       2  C2         14.8590   32.9490   63.2570  C.3       1 <0>        -0.0951
       3  C3         13.8560   31.8890   63.7180  C.3       1 <0>        -0.1491
       4  C4         14.1870   33.8810   62.2460  C.3       1 <0>         0.0613
       5  O1         13.3200   34.7850   62.9340  O.3       1 <0>        -0.3126
       6  C5         12.1420   35.0890   62.3300  C.ar      1 <0>         0.1324
       7  C6         11.5130   34.1550   61.5210  C.ar      1 <0>        -0.1499
       8  C7         10.3160   34.4660   60.9080  C.ar      1 <0>        -0.0709
       9  C8          9.7420   35.7100   61.1010  C.ar      1 <0>        -0.1207
      10  C9         10.3700   36.6460   61.9030  C.ar      1 <0>        -0.0725
      11  C10        11.5660   36.3370   62.5220  C.ar      1 <0>        -0.2064
      12  C11         8.4350   36.0470   60.4320  C.3       1 <0>        -0.0323
      13  C12         7.4170   34.9390   60.6950  C.3       1 <0>        -0.1016
      14  C13         6.1030   35.2670   60.0080  C.2       1 <0>         0.2732
      15  C14         6.0920   35.9460   58.8480  C.2       1 <0>        -0.3083
      16  C15         4.8660   36.3160   58.0480  C.3       1 <0>         0.2886
      17  N1          3.6140   36.1170   58.7460  N.pl3     1 <0>        -0.7805
      18  C16         3.1910   34.8410   59.1200  C.ar      1 <0>         0.1713
      19  C17         2.0880   34.2440   58.5320  C.ar      1 <0>        -0.1260
      20  C18         1.7710   32.9360   58.8550  C.ar      1 <0>        -0.1088
      21  C19         2.5440   32.2300   59.7570  C.ar      1 <0>        -0.1231
      22  C20         3.6350   32.8300   60.3620  C.ar      1 <0>        -0.1152
      23  C21         3.9440   34.1440   60.0530  C.ar      1 <0>         0.1176
      24  N2          4.9970   34.8210   60.6560  N.pl3     1 <0>        -0.6965
      25  C22         4.8480   35.4880   56.7890  C.ar      1 <0>        -0.1035
      26  C23         5.4570   34.2470   56.7700  C.ar      1 <0>        -0.0759
      27  C24         5.4410   33.4870   55.6160  C.ar      1 <0>        -0.1324
      28  C25         4.8150   33.9670   54.4790  C.ar      1 <0>        -0.0922
      29  C26         4.2050   35.2070   54.4970  C.ar      1 <0>        -0.1576
      30  C27         4.2180   35.9680   55.6540  C.ar      1 <0>         0.1156
      31  F1          3.6170   37.1780   55.6740  F         1 <0>        -0.1375
      32  C28         7.3060   36.3870   58.2700  C.2       1 <0>         0.3980
      33  O2          7.2680   36.9850   57.2130  O.2       1 <0>        -0.4703
      34  C29         8.6370   36.1430   58.9150  C.3       1 <0>        -0.1600
@<TRIPOS>BOND
     1     1     2 1
     2     2     3 1
     3     2     4 1
     4     4     5 1
     5     5     6 1
     6     6    11 ar
     7     6     7 ar
     8     7     8 ar
     9     8     9 ar
    10     9    10 ar
    11     9    12 1
    12    10    11 ar
    13    12    34 1
    14    12    13 1
    15    13    14 1
    16    14    24 1
    17    14    15 2
    18    15    16 1
    19    15    32 1
    20    16    17 1
    21    16    25 1
    22    17    18 1
    23    18    23 ar
    24    18    19 ar
    25    19    20 ar
    26    20    21 ar
    27    21    22 ar
    28    22    23 ar
    29    23    24 1
    30    25    30 ar
    31    25    26 ar
    32    26    27 ar
    33    27    28 ar
    34    28    29 ar
    35    29    30 ar
    36    30    31 1
    37    32    33 2
    38    32    34 1

@<TRIPOS>MOLECULE
ZINC39945870_replica-1.pdb
 26 28 0 0 0
SMALL
GASTEIGER

@<TRIPOS>ATOM
       1  C1          2.5230   35.9660   57.9510  C.3       1 <0>        -0.1551
       2  C2          2.2420   35.1290   59.2010  C.3       1 <0>        -0.1203
       3  C3          0.8110   34.5900   59.1430  C.3       1 <0>        -0.1354
       4  C4          0.3360   34.5580   57.6900  C.3       1 <0>         0.1152
       5  N1         -0.3560   33.2930   57.4290  N.pl3     1 <0>        -0.6614
       6  C5          0.1750   32.3990   56.5720  C.2       1 <0>         0.5508
       7  S1          1.8750   32.2710   56.4110  S.2       1 <0>        -0.5388
       8  N2         -0.6330   31.6060   55.8410  N.pl3     1 <0>        -0.4208
       9  C6         -1.9980   31.3300   56.2960  C.3       1 <0>         0.0144
      10  N3         -0.1670   31.0440   54.6450  N.2       1 <0>        -0.0981
      11  C7         -0.8900   30.1520   54.0140  C.2       1 <0>         0.0374
      12  C8         -0.4900   28.8100   53.9990  C.2       1 <0>         0.1260
      13  C9         -0.7840   27.8540   53.0280  C.ar      1 <0>        -0.1376
      14  C10        -1.5280   27.9100   51.8290  C.ar      1 <0>        -0.0090
      15  C11        -1.6520   26.7970   51.0620  C.ar      1 <0>        -0.1513
      16  C12        -1.0590   25.5850   51.4270  C.ar      1 <0>         0.0571
      17  C13        -0.3320   25.4590   52.5640  C.ar      1 <0>        -0.2138
      18  C14        -0.1580   26.5790   53.4180  C.ar      1 <0>         0.3213
      19  N4          0.4910   26.7150   54.5570  N.pl3     1 <0>        -0.5915
      20  C15         0.3590   28.0970   55.0280  C.3       1 <0>         0.1710
      21  C16        -0.3240   28.1210   56.3710  C.ar      1 <0>        -0.1266
      22  C17        -1.6340   27.6930   56.4880  C.ar      1 <0>        -0.0980
      23  C18        -2.2600   27.7160   57.7200  C.ar      1 <0>        -0.1080
      24  C19        -1.5780   28.1650   58.8350  C.ar      1 <0>        -0.0882
      25  C20        -0.2680   28.5920   58.7180  C.ar      1 <0>        -0.1091
      26  C21         0.3600   28.5660   57.4860  C.ar      1 <0>        -0.0931
@<TRIPOS>BOND
     1     1     2 1
     2     2     3 1
     3     3     4 1
     4     4     5 1
     5     5     6 1
     6     6     7 2
     7     6     8 1
     8     8     9 1
     9     8    10 1
    10    10    11 2
    11    11    12 1
    12    12    20 1
    13    12    13 2
    14    13    18 ar
    15    13    14 ar
    16    14    15 ar
    17    15    16 ar
    18    16    17 ar
    19    17    18 ar
    20    18    19 2
    21    19    20 1
    22    20    21 1
    23    21    26 ar
    24    21    22 ar
    25    22    23 ar
    26    23    24 ar
    27    24    25 ar
    28    25    26 ar

@<TRIPOS>MOLECULE
ZINC37774588_replica-1.pdb
 20 21 0 0 0
SMALL
GASTEIGER

@<TRIPOS>ATOM
       1  C1          0.6210   34.3500   59.2430  C.3       1 <0>        -0.1496
       2  C2          0.0430   33.5880   58.0490  C.3       1 <0>        -0.1372
       3  C3          0.9170   32.3670   57.7530  C.3       1 <0>         0.0955
       4  N1          0.0760   31.1690   57.6950  N.am      1 <0>        -0.4776
       5  C4         -0.5920   30.8700   56.5480  C.2       1 <0>         0.0249
       6  C5         -1.3770   29.7630   56.4720  C.2       1 <0>         0.1110
       7  C6         -1.5020   28.9170   57.5880  C.2       1 <0>        -0.0537
       8  C7         -0.8290   29.2220   58.7350  C.2       1 <0>        -0.2060
       9  C8         -0.0220   30.3720   58.7760  C.2       1 <0>         0.4993
      10  O1          0.5880   30.6510   59.7960  O.2       1 <0>        -0.5611
      11  N2         -2.0600   29.4650   55.2840  N.pl3     1 <0>        -0.7431
      12  C9         -1.4260   29.7220   53.9890  C.3       1 <0>         0.1976
      13  C10        -2.3550   30.5810   53.1290  C.3       1 <0>        -0.1658
      14  C11        -1.1630   28.4130   53.2900  C.ar      1 <0>        -0.0971
      15  C12        -1.6780   28.1880   52.0260  C.ar      1 <0>        -0.1078
      16  C13        -1.4360   26.9880   51.3840  C.ar      1 <0>        -0.1176
      17  C14        -0.6780   26.0130   52.0050  C.ar      1 <0>        -0.0835
      18  C15        -0.1620   26.2380   53.2680  C.ar      1 <0>        -0.1168
      19  C16        -0.4010   27.4400   53.9080  C.ar      1 <0>        -0.1047
      20  C17        -0.4150   24.7040   51.3060  C.3       1 <0>        -0.1182
@<TRIPOS>BOND
     1     1     2 1
     2     2     3 1
     3     3     4 1
     4     4     9 am
     5     4     5 1
     6     5     6 2
     7     6     7 1
     8     6    11 1
     9     7     8 2
    10     8     9 1
    11     9    10 2
    12    11    12 1
    13    12    13 1
    14    12    14 1
    15    14    19 ar
    16    14    15 ar
    17    15    16 ar
    18    16    17 ar
    19    17    18 ar
    20    17    20 1
    21    18    19 ar

@<TRIPOS>MOLECULE
ZINC49564235_replica-1.pdb
 21 23 0 0 0
SMALL
GASTEIGER

@<TRIPOS>ATOM
       1  C1         11.5510   35.3070   61.8750  C.3       1 <0>        -0.1170
       2  C2         10.4810   35.6960   60.8870  C.ar      1 <0>        -0.0840
       3  C3         10.2970   34.9480   59.7390  C.ar      1 <0>        -0.1199
       4  C4          9.3140   35.3040   58.8340  C.ar      1 <0>        -0.1059
       5  C5          8.5170   36.4070   59.0770  C.ar      1 <0>        -0.1037
       6  C6          8.7000   37.1530   60.2260  C.ar      1 <0>        -0.0931
       7  C7          9.6800   36.7950   61.1330  C.ar      1 <0>        -0.1218
       8  C8          7.4470   36.7950   58.0890  C.3       1 <0>         0.2271
       9  C9          8.1030   37.3330   56.8150  C.3       1 <0>        -0.1637
      10  C10         8.7150   38.7340   56.8740  C.3       1 <0>        -0.1660
      11  C11         7.4140   38.5010   56.1050  C.3       1 <0>        -0.1694
      12  N1          6.6360   35.6200   57.7600  N.pl3     1 <0>        -0.7295
      13  C12         5.2520   35.7520   57.5830  C.ar      1 <0>         0.1924
      14  C13         4.4250   35.9310   58.6820  C.ar      1 <0>        -0.1392
      15  C14         3.0590   36.0610   58.5060  C.ar      1 <0>        -0.1359
      16  C15         2.5160   36.0130   57.2330  C.ar      1 <0>         0.0758
      17  C16         3.3360   35.8350   56.1330  C.ar      1 <0>        -0.1987
      18  C17         4.7050   35.7100   56.3030  C.ar      1 <0>         0.0838
      19  O1          5.5130   35.5410   55.2210  O.3       1 <0>        -0.3161
      20  C18         5.0930   34.5930   54.2380  C.3       1 <0>         0.0289
      21  F1          1.1810   36.1390   57.0660  F         1 <0>        -0.1426
@<TRIPOS>BOND
     1     1     2 1
     2     2     7 ar
     3     2     3 ar
     4     3     4 ar
     5     4     5 ar
     6     5     6 ar
     7     5     8 1
     8     6     7 ar
     9     8     9 1
    10     8    12 1
    11     9    11 1
    12     9    10 1
    13    10    11 1
    14    12    13 1
    15    13    18 ar
    16    13    14 ar
    17    14    15 ar
    18    15    16 ar
    19    16    17 ar
    20    16    21 1
    21    17    18 ar
    22    18    19 1
    23    19    20 1

@<TRIPOS>MOLECULE
ZINC43320197_replica-1.pdb
 21 23 0 0 0
SMALL
GASTEIGER

@<TRIPOS>ATOM
       1  C1          0.6200   25.9090   54.6780  C.3       1 <0>        -0.1057
       2  C2         -0.1860   26.8540   53.8240  C.ar      1 <0>        -0.1982
       3  C3         -0.5900   28.0800   54.3350  C.ar      1 <0>         0.2463
       4  C4         -1.3320   28.9490   53.5440  C.ar      1 <0>        -0.2039
       5  C5         -1.6680   28.5900   52.2530  C.ar      1 <0>        -0.0477
       6  C6         -1.2660   27.3690   51.7460  C.ar      1 <0>        -0.2089
       7  C7         -0.5200   26.5020   52.5290  C.ar      1 <0>         0.1426
       8  F1         -0.1240   25.3120   52.0280  F         1 <0>        -0.1379
       9  N1         -0.2510   28.4400   55.6410  N.pl3     1 <0>        -0.7333
      10  C8         -1.1730   29.2500   56.4410  C.3       1 <0>         0.2249
      11  C9         -0.4750   30.5060   56.8940  C.ar      1 <0>        -0.1348
      12  C10        -0.2470   31.5310   55.9940  C.ar      1 <0>        -0.0583
      13  C11         0.3930   32.6840   56.4090  C.ar      1 <0>        -0.1515
      14  C12         0.8060   32.8130   57.7260  C.ar      1 <0>         0.1294
      15  C13         0.5750   31.7830   58.6260  C.ar      1 <0>        -0.2063
      16  C14        -0.0700   30.6340   58.2090  C.ar      1 <0>        -0.0696
      17  O1          1.4360   33.9450   58.1350  O.3       1 <0>        -0.3179
      18  C15         0.8040   35.1890   57.8220  C.3       1 <0>         0.0266
      19  C16        -1.6260   28.4480   57.6630  C.3       1 <0>        -0.1629
      20  C17        -1.5870   26.9230   57.5620  C.3       1 <0>        -0.1767
      21  C18        -2.9300   27.6560   57.5440  C.3       1 <0>        -0.1693
@<TRIPOS>BOND
     1     1     2 1
     2     2     7 ar
     3     2     3 ar
     4     3     4 ar
     5     3     9 1
     6     4     5 ar
     7     5     6 ar
     8     6     7 ar
     9     7     8 1
    10     9    10 1
    11    10    11 1
    12    10    19 1
    13    11    16 ar
    14    11    12 ar
    15    12    13 ar
    16    13    14 ar
    17    14    15 ar
    18    14    17 1
    19    15    16 ar
    20    17    18 1
    21    19    21 1
    22    19    20 1
    23    20    21 1

@<TRIPOS>MOLECULE
ZINC32183548_replica-1.pdb
 22 23 0 0 0
SMALL
GASTEIGER

@<TRIPOS>ATOM
       1  C1         -0.0200   27.2350   61.0350  C.3       1 <0>        -0.1193
       2  C2         -0.8110   27.6430   59.8180  C.ar      1 <0>        -0.0521
       3  C3         -1.7990   26.8100   59.3260  C.ar      1 <0>        -0.1538
       4  C4         -2.5260   27.1810   58.2100  C.ar      1 <0>        -0.0802
       5  C5         -2.2670   28.3840   57.5840  C.ar      1 <0>        -0.1208
       6  C6         -1.2760   29.2220   58.0760  C.ar      1 <0>         0.1324
       7  C7         -0.5480   28.8470   59.1960  C.ar      1 <0>        -0.2084
       8  O1         -1.0160   30.4030   57.4580  O.3       1 <0>        -0.3016
       9  C8          0.3550   30.7970   57.3630  C.3       1 <0>         0.0680
      10  C9          0.6100   31.4320   55.9950  C.3       1 <0>         0.1120
      11  C10         0.1520   30.4720   54.8930  C.3       1 <0>         0.1014
      12  N1          0.4940   29.0980   55.2710  N.pl3     1 <0>        -0.7576
      13  C11         0.2070   28.0430   54.4010  C.ar      1 <0>         0.2184
      14  C12         0.6370   26.7570   54.7020  C.ar      1 <0>        -0.2012
      15  C13         0.3470   25.7150   53.8430  C.ar      1 <0>        -0.0688
      16  C14        -0.3610   25.9530   52.6800  C.ar      1 <0>        -0.1451
      17  C15        -0.7860   27.2330   52.3740  C.ar      1 <0>        -0.0384
      18  C16        -0.5040   28.2790   53.2320  C.ar      1 <0>        -0.1921
      19  C17        -1.5570   27.4880   51.1050  C.3       1 <0>        -0.1180
      20  C18        -0.6710   24.8150   51.7420  C.3       1 <0>        -0.1135
      21  O2          2.0060   31.6980   55.8450  O.3       1 <0>        -0.5829
      22  C19        -3.0590   28.7870   56.3670  C.3       1 <0>        -0.1102
@<TRIPOS>BOND
     1     1     2 1
     2     2     7 ar
     3     2     3 ar
     4     3     4 ar
     5     4     5 ar
     6     5     6 ar
     7     5    22 1
     8     6     7 ar
     9     6     8 1
    10     8     9 1
    11     9    10 1
    12    10    11 1
    13    10    21 1
    14    11    12 1
    15    12    13 1
    16    13    18 ar
    17    13    14 ar
    18    14    15 ar
    19    15    16 ar
    20    16    17 ar
    21    16    20 1
    22    17    18 ar
    23    17    19 1

@<TRIPOS>MOLECULE
ZINC12903088_replica-1.pdb
 29 31 0 0 0
SMALL
GASTEIGER

@<TRIPOS>ATOM
       1  C1          7.4950   31.7950   58.7240  C.ar      1 <0>        -0.1187
       2  C2          6.9960   32.2720   59.9220  C.ar      1 <0>        -0.1187
       3  C3          7.3770   33.5190   60.3820  C.ar      1 <0>        -0.1020
       4  C4          8.2560   34.2880   59.6440  C.ar      1 <0>        -0.0894
       5  C5          8.7510   33.8140   58.4430  C.ar      1 <0>        -0.1026
       6  C6          8.3740   32.5650   57.9860  C.ar      1 <0>        -0.1202
       7  C7          8.6710   35.6480   60.1450  C.3       1 <0>         0.2291
       8  C8          9.9270   35.5180   60.9670  C.ar      1 <0>        -0.0873
       9  C9         10.3570   36.5770   61.7460  C.ar      1 <0>        -0.1107
      10  C10        11.5080   36.4560   62.5020  C.ar      1 <0>        -0.1146
      11  C11        12.2330   35.2790   62.4730  C.ar      1 <0>        -0.1172
      12  C12        11.8070   34.2230   61.6910  C.ar      1 <0>        -0.1152
      13  C13        10.6540   34.3420   60.9380  C.ar      1 <0>        -0.1044
      14  N1          8.9220   36.5330   59.0040  N.am      1 <0>        -0.7253
      15  C14         8.3360   37.7450   58.9500  C.2       1 <0>         0.5234
      16  O1          7.6000   38.1030   59.8440  O.2       1 <0>        -0.5305
      17  C15         8.5940   38.6550   57.7770  C.3       1 <0>        -0.1228
      18  C16         8.5650   37.8400   56.4830  C.3       1 <0>        -0.0777
      19  S1          6.8450   37.5900   55.9650  S.3       1 <0>        -0.2529
      20  C17         6.6800   35.7870   55.8480  C.3       1 <0>        -0.0295
      21  C18         5.7450   35.2970   56.9250  C.ar      1 <0>        -0.0907
      22  C19         5.4620   36.1050   58.0110  C.ar      1 <0>        -0.1169
      23  C20         4.6030   35.6650   58.9970  C.ar      1 <0>        -0.0794
      24  C21         4.0280   34.3960   58.9020  C.ar      1 <0>        -0.1036
      25  C22         4.3230   33.5830   57.8050  C.ar      1 <0>        -0.0884
      26  C23         5.1790   34.0380   56.8240  C.ar      1 <0>        -0.1160
      27  C24         3.1130   33.9160   59.9560  C.2       1 <0>         0.4875
      28  O2          3.5190   33.1620   60.8170  O.co2     1 <0>        -0.6304
      29  O3          1.8250   34.3140   59.9650  O.co2     1 <0>        -0.7534
@<TRIPOS>BOND
     1     1     6 ar
     2     1     2 ar
     3     2     3 ar
     4     3     4 ar
     5     4     5 ar
     6     4     7 1
     7     5     6 ar
     8     7     8 1
     9     7    14 1
    10     8    13 ar
    11     8     9 ar
    12     9    10 ar
    13    10    11 ar
    14    11    12 ar
    15    12    13 ar
    16    14    15 am
    17    15    16 2
    18    15    17 1
    19    17    18 1
    20    18    19 1
    21    19    20 1
    22    20    21 1
    23    21    26 ar
    24    21    22 ar
    25    22    23 ar
    26    23    24 ar
    27    24    25 ar
    28    24    27 1
    29    25    26 ar
    30    27    28 2
    31    27    29 1

@<TRIPOS>MOLECULE
ZINC06743808_replica-1.pdb
 28 30 0 0 0
SMALL
GASTEIGER

@<TRIPOS>ATOM
       1  C1          7.0390   38.2340   55.7610  C.3       1 <0>        -0.1482
       2  C2          8.2950   38.1520   56.6340  C.3       1 <0>        -0.0963
       3  C3          7.9760   38.6760   58.0350  C.3       1 <0>        -0.1498
       4  C4          8.7560   36.6960   56.7260  C.3       1 <0>        -0.1071
       5  C5          8.6790   36.2280   58.1800  C.3       1 <0>        -0.0998
       6  C6          7.9680   34.8750   58.2440  C.3       1 <0>         0.2055
       7  C7          6.5770   35.0100   57.6770  C.ar      1 <0>        -0.1691
       8  C8          6.2480   34.3680   56.4980  C.ar      1 <0>        -0.0741
       9  C9          4.9720   34.4850   55.9800  C.ar      1 <0>        -0.2056
      10  C10         4.0260   35.2560   56.6380  C.ar      1 <0>         0.1406
      11  C11         4.3610   35.9040   57.8190  C.ar      1 <0>        -0.1461
      12  C12         5.6360   35.7790   58.3350  C.ar      1 <0>        -0.0675
      13  O1          2.7720   35.3790   56.1270  O.3       1 <0>        -0.3130
      14  C13         1.7520   35.8410   57.0150  C.3       1 <0>         0.0248
      15  C14         7.8830   34.4100   59.6990  C.3       1 <0>        -0.0900
      16  C15         7.9480   32.8830   59.7510  C.3       1 <0>        -0.0025
      17  C16         5.8660   33.3950   60.9050  C.3       1 <0>        -0.0111
      18  C17         4.4270   32.8210   60.8640  C.3       1 <0>        -0.1464
      19  C18         4.3720   32.1230   59.4860  C.3       1 <0>        -0.1458
      20  C19         5.8420   31.8510   59.1150  C.3       1 <0>        -0.0113
      21  C20         9.0360   34.9890   60.4780  C.ar      1 <0>        -0.1185
      22  C21        10.2080   34.2690   60.6150  C.ar      1 <0>        -0.1026
      23  C22        11.2670   34.8010   61.3270  C.ar      1 <0>        -0.1116
      24  C23        11.1500   36.0490   61.9090  C.ar      1 <0>        -0.1031
      25  C24         9.9760   36.7670   61.7770  C.ar      1 <0>        -0.1119
      26  C25         8.9190   36.2360   61.0610  C.ar      1 <0>        -0.1144
      27  O2          8.7020   33.9150   57.4790  O.3       1 <0>        -0.5322
      28  N1          6.6430   32.3400   60.2370  N.4       1 <0>        -0.3901
@<TRIPOS>BOND
     1     1     2 1
     2     2     3 1
     3     2     4 1
     4     4     5 1
     5     5     6 1
     6     6     7 1
     7     6    15 1
     8     6    27 1
     9     7    12 ar
    10     7     8 ar
    11     8     9 ar
    12     9    10 ar
    13    10    11 ar
    14    10    13 1
    15    11    12 ar
    16    13    14 1
    17    15    16 1
    18    15    21 1
    19    16    28 1
    20    17    18 1
    21    17    28 1
    22    18    19 1
    23    19    20 1
    24    20    28 1
    25    21    26 ar
    26    21    22 ar
    27    22    23 ar
    28    23    24 ar
    29    24    25 ar
    30    25    26 ar

@<TRIPOS>MOLECULE
ZINC21225386_replica-1.pdb
 35 39 0 0 0
SMALL
GASTEIGER

@<TRIPOS>ATOM
       1  C1         -2.6680   29.8730   53.3820  C.3       1 <0>        -0.1149
       2  C2         -1.5940   28.8990   53.7940  C.ar      1 <0>        -0.0663
       3  C3         -1.1650   27.9290   52.9070  C.ar      1 <0>        -0.1237
       4  C4         -0.1800   27.0360   53.2830  C.ar      1 <0>        -0.1176
       5  C5          0.3760   27.1110   54.5470  C.ar      1 <0>        -0.1287
       6  C6         -0.0500   28.0840   55.4320  C.ar      1 <0>        -0.0984
       7  C7         -1.0390   28.9750   55.0560  C.ar      1 <0>        -0.0696
       8  C8         -1.5060   30.0320   56.0230  C.3       1 <0>         0.2864
       9  C9         -0.2930   30.7140   56.6130  C.2       1 <0>        -0.3040
      10  C10         0.1380   30.5980   57.8790  C.2       1 <0>         0.2693
      11  C11         1.4020   31.3140   58.3280  C.3       1 <0>        -0.1016
      12  C12         1.5460   32.6350   57.5730  C.3       1 <0>        -0.0330
      13  C13         1.6260   32.3120   56.0760  C.3       1 <0>        -0.1605
      14  C14         0.4060   31.5290   55.6920  C.2       1 <0>         0.3985
      15  O1          0.0040   31.5960   54.5460  O.2       1 <0>        -0.4688
      16  C15         2.8040   33.3380   58.0120  C.ar      1 <0>        -0.0804
      17  C16         2.8060   34.0850   59.1760  C.ar      1 <0>        -0.1095
      18  C17         3.9580   34.7320   59.5840  C.ar      1 <0>        -0.1733
      19  C18         5.1130   34.6330   58.8260  C.ar      1 <0>         0.1069
      20  C19         5.1120   33.8810   57.6540  C.ar      1 <0>         0.1006
      21  C20         3.9550   33.2310   57.2550  C.ar      1 <0>        -0.1643
      22  O2          6.2430   33.7800   56.9080  O.3       1 <0>        -0.3052
      23  C21         6.2190   34.3760   55.6100  C.3       1 <0>         0.0224
      24  O3          6.2470   35.2690   59.2260  O.3       1 <0>        -0.3046
      25  C22         6.3900   36.6390   58.8460  C.3       1 <0>         0.0763
      26  C23         6.2810   37.5260   60.0890  C.3       1 <0>        -0.1500
      27  C24         7.7560   36.8470   58.1900  C.3       1 <0>        -0.1822
      28  N1         -0.4700   29.8680   58.8490  N.pl3     1 <0>        -0.6975
      29  C25        -0.9180   28.5600   58.6940  C.ar      1 <0>         0.1188
      30  C26        -0.3890   27.5050   59.4170  C.ar      1 <0>        -0.1167
      31  C27        -0.9140   26.2350   59.2460  C.ar      1 <0>        -0.1229
      32  C28        -1.9600   26.0270   58.3650  C.ar      1 <0>        -0.1108
      33  C29        -2.4770   27.0790   57.6290  C.ar      1 <0>        -0.1245
      34  C30        -1.9390   28.3470   57.7800  C.ar      1 <0>         0.1731
      35  N2         -2.3780   29.4160   57.0030  N.pl3     1 <0>        -0.7793
@<TRIPOS>BOND
     1     1     2 1
     2     2     7 ar
     3     2     3 ar
     4     3     4 ar
     5     4     5 ar
     6     5     6 ar
     7     6     7 ar
     8     7     8 1
     9     8    35 1
    10     8     9 1
    11     9    14 1
    12     9    10 2
    13    10    11 1
    14    10    28 1
    15    11    12 1
    16    12    13 1
    17    12    16 1
    18    13    14 1
    19    14    15 2
    20    16    21 ar
    21    16    17 ar
    22    17    18 ar
    23    18    19 ar
    24    19    20 ar
    25    19    24 1
    26    20    21 ar
    27    20    22 1
    28    22    23 1
    29    24    25 1
    30    25    26 1
    31    25    27 1
    32    28    29 1
    33    29    34 ar
    34    29    30 ar
    35    30    31 ar
    36    31    32 ar
    37    32    33 ar
    38    33    34 ar
    39    34    35 1

@<TRIPOS>MOLECULE
ZINC38705081_replica-1.pdb
 34 38 0 0 0
SMALL
GASTEIGER

@<TRIPOS>ATOM
       1  C1          3.9810   30.0670   60.5450  C.3       1 <0>        -0.1471
       2  C2          5.1490   30.9400   61.0060  C.3       1 <0>        -0.0883
       3  C3          5.1330   32.2420   60.2460  C.ar      1 <0>        -0.0706
       4  C4          5.4540   32.2620   58.9010  C.ar      1 <0>        -0.1121
       5  C5          5.4390   33.4550   58.2050  C.ar      1 <0>        -0.1007
       6  C6          5.1040   34.6300   58.8510  C.ar      1 <0>        -0.1003
       7  C7          4.7830   34.6110   60.1960  C.ar      1 <0>        -0.0890
       8  C8          4.7930   33.4160   60.8930  C.ar      1 <0>        -0.1139
       9  C9          5.0900   35.9310   58.0920  C.3       1 <0>         0.2511
      10  C10         6.3510   36.0720   57.2820  C.2       1 <0>        -0.1609
      11  C11         7.7470   36.1560   57.2800  C.2       1 <0>         0.1284
      12  N1          8.1330   36.2800   56.0250  N.2       1 <0>        -0.2410
      13  N2          7.1180   36.2810   55.2360  N.pl3     1 <0>        -0.3356
      14  C12         5.9660   36.1540   55.9580  C.2       1 <0>        -0.0634
      15  C13         4.5020   36.0710   55.8920  C.2       1 <0>         0.6005
      16  O1          3.8510   36.1140   54.8650  O.2       1 <0>        -0.5162
      17  N3          3.9820   35.9420   57.1270  N.am      1 <0>        -0.5894
      18  C14         2.5590   35.8300   57.4530  C.3       1 <0>         0.1819
      19  C15         2.1930   34.3760   57.6100  C.ar      1 <0>        -0.1236
      20  C16         1.6720   33.9200   58.8070  C.ar      1 <0>        -0.0970
      21  C17         1.3370   32.5870   58.9500  C.ar      1 <0>        -0.1238
      22  C18         1.5220   31.7100   57.8980  C.ar      1 <0>        -0.0763
      23  C19         2.0420   32.1670   56.7010  C.ar      1 <0>        -0.1231
      24  C20         2.3720   33.5010   56.5560  C.ar      1 <0>        -0.0895
      25  C21         1.1580   30.2560   58.0550  C.3       1 <0>        -0.1183
      26  C22         8.6320   36.1150   58.4700  C.ar      1 <0>        -0.0448
      27  C23         8.7430   37.2300   59.2980  C.ar      1 <0>        -0.0353
      28  C24         9.5680   37.1870   60.4040  C.ar      1 <0>        -0.1306
      29  C25        10.2860   36.0410   60.6930  C.ar      1 <0>        -0.0546
      30  C26        10.1840   34.9290   59.8780  C.ar      1 <0>        -0.1540
      31  C27         9.3540   34.9570   58.7690  C.ar      1 <0>         0.1377
      32  O2          9.2480   33.8630   57.9700  O.3       1 <0>        -0.4872
      33  C28        11.1840   36.0030   61.9030  C.3       1 <0>        -0.1179
      34  C29         7.9640   38.4820   58.9870  C.3       1 <0>        -0.1125
@<TRIPOS>BOND
     1     1     2 1
     2     2     3 1
     3     3     8 ar
     4     3     4 ar
     5     4     5 ar
     6     5     6 ar
     7     6     7 ar
     8     6     9 1
     9     7     8 ar
    10     9    17 1
    11     9    10 1
    12    10    14 2
    13    10    11 1
    14    11    12 2
    15    11    26 1
    16    12    13 1
    17    13    14 1
    18    14    15 1
    19    15    16 2
    20    15    17 am
    21    17    18 1
    22    18    19 1
    23    19    24 ar
    24    19    20 ar
    25    20    21 ar
    26    21    22 ar
    27    22    23 ar
    28    22    25 1
    29    23    24 ar
    30    26    31 ar
    31    26    27 ar
    32    27    28 ar
    33    27    34 1
    34    28    29 ar
    35    29    30 ar
    36    29    33 1
    37    30    31 ar
    38    31    32 1

@<TRIPOS>MOLECULE
ZINC34990206_replica-1.pdb
 22 23 0 0 0
SMALL
GASTEIGER

@<TRIPOS>ATOM
      1  N1         0.3140   29.1210   54.8100 N.pl3   0  <0>0       -0.3299
      2  H14        1.0280   28.4790   54.6720 H       0  <0>0        0.1471
      3  C4        -0.8790   29.0830   53.9600 C.3     0  <0>0        0.0919
      4  C3        -2.1320   29.0750   54.8380 C.3     0  <0>0        0.0241
      5  C2        -2.9260   30.3610   54.6050 C.3     0  <0>0        0.0020
      6  C1        -3.0870   31.1080   55.9310 C.3     0  <0>0        0.0001
      7  C5        -0.8520   27.8380   53.1100 C.ar    0  <0>0       -0.0046
      8  C10       -0.1840   26.7130   53.5540 C.ar    0  <0>0       -0.0027
      9  C9        -0.1620   25.5700   52.7770 C.ar    0  <0>0       -0.0003
     10  C8        -0.8020   25.5550   51.5510 C.ar    0  <0>0       -0.0000
     11  C7        -1.4670   26.6830   51.1050 C.ar    0  <0>0       -0.0003
     12  C6        -1.4920   27.8240   51.8850 C.ar    0  <0>0       -0.0027
     13  C11        0.4230   30.0830   55.8170 C.ar    0  <0>0        0.0556
     14  C16        0.3450   29.7040   57.1520 C.ar    0  <0>0        0.0724
     15  C15        0.4600   30.6580   58.1470 C.ar    0  <0>0        0.0367
     16 Cl          0.1120   28.0360   57.5710 Cl      0  <0>0       -0.0809
     17  C14        0.6400   31.9880   57.8130 C.ar    0  <0>0        0.1438
     18  C13        0.7110   32.3680   56.4850 C.ar    0  <0>0        0.0254
     19  C12        0.6040   31.4190   55.4870 C.ar    0  <0>0        0.0169
     20  N2         0.7550   33.0070   58.8800 N.pl3   0  <0>0        0.0577
     21  O1         1.2290   32.7110   59.9510 O.2     0  <0>0       -0.1261
     22  O2         0.3740   34.1370   58.6790 O.2     0  <0>0       -0.1261
@<TRIPOS>BOND
     1    11    10   ar
     2    11    12   ar
     3    10     9   ar
     4    12     7   ar
     5     9     8   ar
     6     7     8   ar
     7     7     3    1
     8     3     1    1
     9     3     4    1
    10     5     4    1
    11     5     6    1
    12     2     1    1
    13     1    13    1
    14    19    13   ar
    15    19    18   ar
    16    13    14   ar
    17    18    17   ar
    18    14    16    1
    19    14    15   ar
    20    17    15   ar
    21    17    20    1
    22    22    20    2
    23    20    21    2


@<TRIPOS>MOLECULE
ZINC58846759_replica-1.pdb
 33 37 0 0 0
SMALL
GASTEIGER

@<TRIPOS>ATOM
       1  C1         -0.8680   24.7530   51.4720  C.3       1 <0>        -0.1445
       2  C2         -0.4810   26.2250   51.6240  C.3       1 <0>        -0.0577
       3  C3         -1.6420   27.1080   51.1620  C.3       1 <0>        -0.1455
       4  C4         -0.1730   26.5170   53.0710  C.ar      1 <0>        -0.0826
       5  C5         -0.3150   27.8020   53.5600  C.ar      1 <0>        -0.0977
       6  C6         -0.0330   28.0730   54.8850  C.ar      1 <0>        -0.1250
       7  C7          0.3940   27.0510   55.7250  C.ar      1 <0>         0.1407
       8  C8          0.5360   25.7620   55.2290  C.ar      1 <0>        -0.1479
       9  C9          0.2470   25.4980   53.9050  C.ar      1 <0>        -0.0952
      10  N1          0.6810   27.3210   57.0650  N.pl3     1 <0>        -1.0588
      11  S1         -0.4560   28.0490   58.0250  S.o2      1 <0>         2.6919
      12  O1         -1.7250   27.6860   57.4980  O.2       1 <0>        -0.9533
      13  O2         -0.0850   27.7800   59.3700  O.2       1 <0>        -0.9558
      14  C10        -0.2940   29.7890   57.7960  C.ar      1 <0>        -0.7254
      15  C11        -1.1030   30.4430   56.8850  C.ar      1 <0>         0.0269
      16  C12        -0.9700   31.8040   56.7040  C.ar      1 <0>        -0.2114
      17  C13        -0.0260   32.5170   57.4360  C.ar      1 <0>         0.2782
      18  C14         0.7770   31.8650   58.3590  C.ar      1 <0>        -0.1643
      19  C15         0.6360   30.4960   58.5310  C.ar      1 <0>         0.0354
      20  C16         1.7720   32.6020   59.1900  C.3       1 <0>        -0.0091
      21  C17         3.1830   32.3970   58.7010  C.2       1 <0>        -0.1608
      22  C18         3.8800   33.4960   58.8520  C.2       1 <0>        -0.1523
      23  C19         3.0310   34.5930   59.4570  C.3       1 <0>        -0.1010
      24  C20         1.5810   34.1170   59.2140  C.3       1 <0>        -0.0906
      25  C21         1.1090   34.6930   57.8960  C.3       1 <0>         0.2060
      26  N2          0.1100   33.8850   57.2290  N.pl3     1 <0>        -0.7213
      27  C22         2.3040   34.8680   56.9940  C.ar      1 <0>        -0.1132
      28  C23         2.6020   33.9040   56.0470  C.ar      1 <0>        -0.0540
      29  C24         3.6970   34.0640   55.2210  C.ar      1 <0>        -0.1586
      30  C25         4.4970   35.1880   55.3400  C.ar      1 <0>         0.1031
      31  C26         4.1980   36.1510   56.2870  C.ar      1 <0>        -0.1569
      32  C27         3.0980   35.9930   57.1100  C.ar      1 <0>        -0.0828
      33  F1          5.5690   35.3440   54.5320  F         1 <0>        -0.1399
@<TRIPOS>BOND
     1     1     2 1
     2     2     3 1
     3     2     4 1
     4     4     9 ar
     5     4     5 ar
     6     5     6 ar
     7     6     7 ar
     8     7     8 ar
     9     7    10 1
    10     8     9 ar
    11    10    11 1
    12    11    12 2
    13    11    13 2
    14    11    14 1
    15    14    19 ar
    16    14    15 ar
    17    15    16 ar
    18    16    17 ar
    19    17    26 1
    20    17    18 ar
    21    18    19 ar
    22    18    20 1
    23    20    24 1
    24    20    21 1
    25    21    22 2
    26    22    23 1
    27    23    24 1
    28    24    25 1
    29    25    26 1
    30    25    27 1
    31    27    32 ar
    32    27    28 ar
    33    28    29 ar
    34    29    30 ar
    35    30    31 ar
    36    30    33 1
    37    31    32 ar

@<TRIPOS>MOLECULE
ZINC28360128_replica-1.pdb
 25 27 0 0 0
SMALL
GASTEIGER

@<TRIPOS>ATOM
       1  C1         -1.2840   24.6660   59.7870  C.3       1 <0>        -0.1646
       2  C2         -0.6410   25.4000   58.6080  C.3       1 <0>         0.1917
       3  C3         -0.2070   24.3980   57.5690  C.ar      1 <0>        -0.0888
       4  C4         -0.2970   23.0450   57.8350  C.ar      1 <0>        -0.1141
       5  C5          0.0970   22.1260   56.8810  C.ar      1 <0>        -0.1160
       6  C6          0.5890   22.5600   55.6630  C.ar      1 <0>        -0.1194
       7  C7          0.6830   23.9130   55.4000  C.ar      1 <0>        -0.1148
       8  C8          0.2860   24.8330   56.3530  C.ar      1 <0>        -0.1096
       9  N1         -1.6140   26.3240   58.0190  N.pl3     1 <0>        -0.7441
      10  C9         -1.3050   27.6810   57.9020  C.ar      1 <0>         0.2234
      11  C10        -1.6100   28.3760   56.7350  C.ar      1 <0>        -0.2439
      12  C11        -1.2790   29.7250   56.6640  C.ar      1 <0>         0.2206
      13  C12        -0.6650   30.3280   57.7550  C.ar      1 <0>        -0.0383
      14  N2         -0.3980   29.6380   58.8470  N.ar      1 <0>        -0.4067
      15  C13        -0.6970   28.3580   58.9510  C.ar      1 <0>        -0.0398
      16  N3         -1.5580   30.4630   55.5120  N.pl3     1 <0>        -0.7507
      17  C14        -0.8130   30.2020   54.2770  C.3       1 <0>         0.1303
      18  C15        -1.7860   29.7850   53.1730  C.3       1 <0>        -0.0892
      19  C16        -1.4220   28.4100   52.6740  C.ar      1 <0>        -0.0948
      20  C17        -1.9470   27.9460   51.4820  C.ar      1 <0>        -0.0841
      21  C18        -1.6090   26.6880   51.0220  C.ar      1 <0>        -0.1513
      22  C19        -0.7530   25.8880   51.7590  C.ar      1 <0>         0.0979
      23  C20        -0.2310   26.3520   52.9540  C.ar      1 <0>        -0.1513
      24  C21        -0.5670   27.6130   53.4110  C.ar      1 <0>        -0.0841
      25  F1         -0.4250   24.6560   51.3110  F         1 <0>        -0.1388
@<TRIPOS>BOND
     1     1     2 1
     2     2     3 1
     3     2     9 1
     4     3     8 ar
     5     3     4 ar
     6     4     5 ar
     7     5     6 ar
     8     6     7 ar
     9     7     8 ar
    10     9    10 1
    11    10    15 ar
    12    10    11 ar
    13    11    12 ar
    14    12    13 ar
    15    12    16 1
    16    13    14 ar
    17    14    15 ar
    18    16    17 1
    19    17    18 1
    20    18    19 1
    21    19    24 ar
    22    19    20 ar
    23    20    21 ar
    24    21    22 ar
    25    22    23 ar
    26    22    25 1
    27    23    24 ar

@<TRIPOS>MOLECULE
ZINC41516772_replica-1.pdb
 22 23 0 0 0
SMALL
GASTEIGER

@<TRIPOS>ATOM
      1  C11        8.3750   36.9320   59.2480 C.3     0  <0>0        0.0560
      2  C8         9.4180   36.2600   60.1040 C.ar    0  <0>0       -0.0198
      3  C7         9.9250   36.9100   61.2130 C.ar    0  <0>0       -0.0045
      4  C6        10.8810   36.2930   61.9990 C.ar    0  <0>0       -0.0046
      5  C5        11.3280   35.0260   61.6760 C.ar    0  <0>0       -0.0228
      6  C10       10.8240   34.3770   60.5640 C.ar    0  <0>0       -0.0046
      7  C9         9.8660   34.9930   59.7800 C.ar    0  <0>0       -0.0045
      8  C2        12.3690   34.3530   62.5330 C.3     0  <0>0        0.0189
      9  C1        13.6900   34.2770   61.7640 C.3     0  <0>0        0.0044
     10  C3        11.9020   32.9390   62.8870 C.3     0  <0>0        0.0044
     11  C4        12.5710   35.1590   63.8170 C.3     0  <0>0        0.0044
     12  C12        8.3180   36.2470   57.8810 C.3     0  <0>0        0.0341
     13  C13        6.8820   36.1160   57.4450 C.ar    0  <0>0       -0.0112
     14  C18        6.5540   36.2070   56.1050 C.ar    0  <0>0        0.0537
     15  C17        5.2350   36.0810   55.7050 C.ar    0  <0>0        0.0111
     16 Cl          7.7970   36.4730   54.9230 Cl      0  <0>0       -0.0826
     17  C16        4.2450   35.8750   56.6470 C.ar    0  <0>0        0.0008
     18  C15        4.5720   35.7880   57.9870 C.ar    0  <0>0       -0.0003
     19  C14        5.8900   35.9090   58.3870 C.ar    0  <0>0       -0.0034
     20  C19        8.7390   38.4070   59.0640 C.3     0  <0>0        0.1418
     21  O1         7.6510   39.2240   59.4980 O.3     0  <0>0       -0.3816
     22  H23        7.8940   40.1430   59.6750 H       0  <0>0        0.2105
@<TRIPOS>BOND
     1    16    14    1
     2    15    14   ar
     3    15    17   ar
     4    14    13   ar
     5    17    18   ar
     6    13    12    1
     7    13    19   ar
     8    12     1    1
     9    18    19   ar
    10    20     1    1
    11    20    21    1
    12     1     2    1
    13    21    22    1
    14     7     2   ar
    15     7     6   ar
    16     2     3   ar
    17     6     5   ar
    18     3     4   ar
    19     5     4   ar
    20     5     8    1
    21     9     8    1
    22     8    10    1
    23     8    11    1


@<TRIPOS>MOLECULE
ZINC21821423_replica-1.pdb
 19 20 0 0 0
SMALL
GASTEIGER

@<TRIPOS>ATOM
      1  S1        -1.3810   29.8440   53.8950 S.3     0  <0>0        0.0507
      2  O1        -2.3450   30.5420   53.1180 O.3     0  <0>0       -0.0570
      3  O2        -0.0920   30.3770   54.1660 O.3     0  <0>0       -0.0570
      4  C5        -1.1270   28.2900   53.1050 C.ar    0  <0>0        0.1203
      5  C4        -1.6780   28.0490   51.8590 C.ar    0  <0>0        0.0195
      6  C3        -1.4800   26.8300   51.2400 C.ar    0  <0>0       -0.0029
      7  C2        -0.7300   25.8510   51.8640 C.ar    0  <0>0       -0.0218
      8  C1        -0.5130   24.5220   51.1890 C.3     0  <0>0        0.0310
      9  C7        -0.1790   26.0910   53.1090 C.ar    0  <0>0       -0.0029
     10  C6        -0.3730   27.3130   53.7270 C.ar    0  <0>0        0.0195
     11  O3        -2.0290   29.5640   55.2420 O.3     0  <0>0       -0.3549
     12  C8        -1.2720   29.9420   56.3090 C.ar    0  <0>0        0.1990
     13  C13       -0.7070   28.9800   57.1360 C.ar    0  <0>0        0.1771
     14  C12        0.0570   29.3670   58.2210 C.ar    0  <0>0        0.0396
     15  F1        -0.9070   27.6670   56.8830 F       0  <0>0       -0.2009
     16  C11        0.2610   30.7110   58.4800 C.ar    0  <0>0        0.0370
     17  C10       -0.2970   31.6690   57.6540 C.ar    0  <0>0        0.0101
     18 Br          1.3070   31.2380   59.9650 Br      0  <0>0       -0.0489
     19  C9        -1.0610   31.2870   56.5680 C.ar    0  <0>0        0.0426
@<TRIPOS>BOND
     1     8     7    1
     2     6     5   ar
     3     6     7   ar
     4     5     4   ar
     5     7     9   ar
     6     4    10   ar
     7     4     1    1
     8     9    10   ar
     9     2     1    1
    10     1     3    1
    11     1    11    1
    12    11    12    1
    13    12    19   ar
    14    12    13   ar
    15    19    17   ar
    16    15    13    1
    17    13    14   ar
    18    17    16   ar
    19    14    16   ar
    20    16    18    1


@<TRIPOS>MOLECULE
ZINC51362981_replica-1.pdb
 21 23 0 0 0
SMALL
GASTEIGER

@<TRIPOS>ATOM
      1  C10        5.8170   35.9890   57.2640 C.ar    0  <0>0       -0.0047
      2  C11        5.1260   36.0980   58.4600 C.ar    0  <0>0       -0.0014
      3  C12        3.9660   35.3760   58.6590 C.ar    0  <0>0        0.0202
      4  C13        3.4920   34.5410   57.6580 C.ar    0  <0>0        0.1000
      5  C14        4.1870   34.4310   56.4540 C.ar    0  <0>0        0.1657
      6  C15        5.3490   35.1630   56.2620 C.ar    0  <0>0        0.0360
      7  O1         3.5050   33.5580   55.6740 O.2     0  <0>0       -0.4068
      8  C16        2.4230   33.1240   56.3400 C.ar    0  <0>0        0.4220
      9  O2         1.6070   32.3300   55.9120 O.2     0  <0>0       -0.2226
     10  N1         2.3830   33.7030   57.5560 N.ar    0  <0>0       -0.2601
     11  C17        1.3590   33.4920   58.5820 C.3     0  <0>0        0.1369
     12  C9         7.0820   36.7810   57.0550 C.3     0  <0>0        0.1012
     13 Br          7.7770   36.4380   55.2470 Br      0  <0>0       -0.0720
     14  C5         8.1100   36.3650   58.0750 C.ar    0  <0>0       -0.0118
     15  C4         8.7000   35.1170   57.9930 C.ar    0  <0>0       -0.0038
     16  C3         9.6430   34.7360   58.9280 C.ar    0  <0>0       -0.0046
     17  C2         9.9970   35.6030   59.9460 C.ar    0  <0>0       -0.0222
     18  C1        11.0260   35.1870   60.9660 C.3     0  <0>0        0.0310
     19  C7         9.4030   36.8480   60.0310 C.ar    0  <0>0       -0.0088
     20  C6         8.4630   37.2310   59.0930 C.ar    0  <0>0       -0.0250
     21  C8         7.8190   38.5910   59.1820 C.3     0  <0>0        0.0307
@<TRIPOS>BOND
     1    13    12    1
     2     7     8   ar
     3     7     5   ar
     4     9     8    2
     5     6     5   ar
     6     6     1   ar
     7     8    10   ar
     8     5     4   ar
     9    12     1    1
    10    12    14    1
    11     1     2   ar
    12    10     4   ar
    13    10    11    1
    14     4     3   ar
    15    15    14   ar
    16    15    16   ar
    17    14    20   ar
    18     2     3   ar
    19    16    17   ar
    20    20    21    1
    21    20    19   ar
    22    17    19   ar
    23    17    18    1


@<TRIPOS>MOLECULE
ZINC34990204_replica-1.pdb
 22 23 0 0 0
SMALL
GASTEIGER

@<TRIPOS>ATOM
      1  N1        -0.7820   28.2880   55.4700 N.pl3   0  <0>0       -0.3299
      2  H14       -1.6600   27.9330   55.6810 H       0  <0>0        0.1471
      3  C4         0.1370   27.5130   54.6320 C.3     0  <0>0        0.0919
      4  C3         0.4730   26.1940   55.3290 C.3     0  <0>0        0.0241
      5  C2         0.4560   26.3980   56.8450 C.3     0  <0>0        0.0020
      6  C1        -0.2590   25.2200   57.5100 C.3     0  <0>0        0.0001
      7  C5        -0.5130   27.2290   53.3020 C.ar    0  <0>0       -0.0046
      8  C10       -0.3960   25.9770   52.7290 C.ar    0  <0>0       -0.0027
      9  C9        -0.9970   25.7150   51.5110 C.ar    0  <0>0       -0.0003
     10  C8        -1.7060   26.7080   50.8640 C.ar    0  <0>0       -0.0000
     11  C7        -1.8190   27.9620   51.4340 C.ar    0  <0>0       -0.0003
     12  C6        -1.2220   28.2220   52.6530 C.ar    0  <0>0       -0.0027
     13  C11       -0.3950   29.5370   55.9610 C.ar    0  <0>0        0.0556
     14  C16       -0.7370   29.9130   57.2550 C.ar    0  <0>0        0.0724
     15  C15       -0.3490   31.1470   57.7400 C.ar    0  <0>0        0.0367
     16 Cl         -1.6480   28.8310   58.2620 Cl      0  <0>0       -0.0809
     17  C14        0.3720   32.0110   56.9350 C.ar    0  <0>0        0.1438
     18  C13        0.7090   31.6420   55.6470 C.ar    0  <0>0        0.0254
     19  C12        0.3280   30.4080   55.1570 C.ar    0  <0>0        0.0169
     20  N2         0.7830   33.3350   57.4570 N.pl3   0  <0>0        0.0577
     21  O1         0.6110   34.3270   56.7880 O.2     0  <0>0       -0.1261
     22  O2         1.2910   33.4230   58.5500 O.2     0  <0>0       -0.1261
@<TRIPOS>BOND
     1    10    11   ar
     2    10     9   ar
     3    11    12   ar
     4     9     8   ar
     5    12     7   ar
     6     8     7   ar
     7     7     3    1
     8     3     4    1
     9     3     1    1
    10    19    18   ar
    11    19    13   ar
    12     4     5    1
    13     1     2    1
    14     1    13    1
    15    18    17   ar
    16    13    14   ar
    17    21    20    2
    18     5     6    1
    19    17    20    1
    20    17    15   ar
    21    14    15   ar
    22    14    16    1
    23    20    22    2


@<TRIPOS>MOLECULE
ZINC20476190_replica-1.pdb
 21 22 0 0 0
SMALL
GASTEIGER

@<TRIPOS>ATOM
       1  C1         -2.7670   30.7140   54.9130  C.3       1 <0>        -0.1576
       2  C2         -2.1630   29.3080   54.9490  C.3       1 <0>         0.1899
       3  C3         -1.8410   28.9370   56.3730  C.ar      1 <0>        -0.0967
       4  C4         -2.6710   28.0820   57.0700  C.ar      1 <0>        -0.0829
       5  C5         -2.3760   27.7400   58.3760  C.ar      1 <0>        -0.1362
       6  C6         -1.2470   28.2530   58.9890  C.ar      1 <0>        -0.0843
       7  C7         -0.4090   29.1040   58.2950  C.ar      1 <0>        -0.1847
       8  C8         -0.7070   29.4530   56.9860  C.ar      1 <0>         0.1125
       9  O1          0.1110   30.2950   56.3020  O.3       1 <0>        -0.3162
      10  C9          0.3730   31.5690   56.8950  C.3       1 <0>         0.4087
      11  F1         -0.8390   32.2150   57.1660  F         1 <0>        -0.1987
      12  F2          1.1290   32.3470   56.0140  F         1 <0>        -0.1983
      13  N1         -0.9340   29.2820   54.1450  N.pl3     1 <0>        -0.7770
      14  C10        -0.8930   28.1450   53.3290  C.ar      1 <0>         0.1267
      15  C11        -0.1710   27.0260   53.7260  C.ar      1 <0>         0.0924
      16  C12        -0.1370   25.9040   52.9190  C.ar      1 <0>        -0.1464
      17  C13        -0.8120   25.8980   51.7120  C.ar      1 <0>        -0.0841
      18  C14        -1.5270   27.0110   51.3100  C.ar      1 <0>        -0.1475
      19  C15        -1.5710   28.1350   52.1150  C.ar      1 <0>         0.0946
      20  F3         -2.2700   29.2220   51.7220  F         1 <0>        -0.1290
      21  F4          0.4930   27.0330   54.9040  F         1 <0>        -0.1261
@<TRIPOS>BOND
     1     1     2 1
     2     2     3 1
     3     2    13 1
     4     3     8 ar
     5     3     4 ar
     6     4     5 ar
     7     5     6 ar
     8     6     7 ar
     9     7     8 ar
    10     8     9 1
    11     9    10 1
    12    10    11 1
    13    10    12 1
    14    13    14 1
    15    14    19 ar
    16    14    15 ar
    17    15    16 ar
    18    15    21 1
    19    16    17 ar
    20    17    18 ar
    21    18    19 ar
    22    19    20 1

@<TRIPOS>MOLECULE
ZINC36953471_replica-1.pdb
 21 22 0 0 0
SMALL
GASTEIGER

@<TRIPOS>ATOM
       1  C1         12.5670   29.4160   65.2690  C.3       1 <0>        -0.1555
       2  C2         12.0130   30.1320   64.0360  C.3       1 <0>        -0.1156
       3  C3         13.1130   30.9880   63.4060  C.3       1 <0>        -0.0454
       4  C4         14.1290   31.3830   64.4790  C.3       1 <0>        -0.1456
       5  C5         12.5030   32.2320   62.8110  C.ar      1 <0>        -0.1339
       6  C6         13.2600   33.3820   62.6910  C.ar      1 <0>        -0.0650
       7  C7         12.7040   34.5230   62.1460  C.ar      1 <0>        -0.1932
       8  C8         11.3830   34.5140   61.7180  C.ar      1 <0>         0.2145
       9  C9         10.6240   33.3560   61.8410  C.ar      1 <0>        -0.1966
      10  C10        11.1880   32.2170   62.3810  C.ar      1 <0>        -0.0694
      11  N1         10.8170   35.6660   61.1670  N.pl3     1 <0>        -0.7433
      12  C11         9.3610   35.7830   61.0500  C.3       1 <0>         0.1927
      13  C12         8.8780   36.9840   61.8640  C.3       1 <0>        -0.1647
      14  C13         8.9880   35.9750   59.6020  C.ar      1 <0>        -0.0955
      15  C14         8.7790   37.2490   59.1060  C.ar      1 <0>        -0.0927
      16  C15         8.4370   37.4280   57.7810  C.ar      1 <0>        -0.0952
      17  C16         8.3030   36.3270   56.9440  C.ar      1 <0>        -0.0813
      18  C17         8.5140   35.0480   57.4450  C.ar      1 <0>        -0.1294
      19  C18         8.8610   34.8760   58.7710  C.ar      1 <0>        -0.0880
      20  S1          7.8660   36.5510   55.2520  S.3       1 <0>        -0.1174
      21  C19         6.3890   35.5190   55.0400  C.3       1 <0>        -0.1446
@<TRIPOS>BOND
     1     1     2 1
     2     2     3 1
     3     3     4 1
     4     3     5 1
     5     5    10 ar
     6     5     6 ar
     7     6     7 ar
     8     7     8 ar
     9     8     9 ar
    10     8    11 1
    11     9    10 ar
    12    11    12 1
    13    12    13 1
    14    12    14 1
    15    14    19 ar
    16    14    15 ar
    17    15    16 ar
    18    16    17 ar
    19    17    18 ar
    20    17    20 1
    21    18    19 ar
    22    20    21 1

@<TRIPOS>MOLECULE
ZINC37334008_replica-1.pdb
 21 22 0 0 0
SMALL
GASTEIGER

@<TRIPOS>ATOM
       1  C1          7.9740   38.7450   57.5270  C.ar      1 <0>        -0.0475
       2  C2          7.4010   38.7530   58.7860  C.ar      1 <0>        -0.1577
       3  C3          7.4410   37.6160   59.5730  C.ar      1 <0>         0.1383
       4  C4          8.0570   36.4650   59.0970  C.ar      1 <0>         0.0507
       5  C5          8.6320   36.4600   57.8310  C.ar      1 <0>         0.1363
       6  C6          8.5880   37.6020   57.0510  C.ar      1 <0>        -0.1582
       7  F1          9.2320   35.3440   57.3650  F         1 <0>        -0.1182
       8  N1          8.1000   35.3120   59.8910  N.pl3     1 <0>        -0.6759
       9  C7          9.2550   35.0010   60.6000  C.ar      1 <0>         0.2888
      10  C8         10.0760   36.0140   61.0790  C.ar      1 <0>        -0.1861
      11  C9         11.2220   35.7030   61.7820  C.ar      1 <0>         0.0059
      12  C10        11.5640   34.3800   62.0150  C.ar      1 <0>        -0.2359
      13  C11        10.7630   33.3610   61.5490  C.ar      1 <0>         0.0292
      14  C12         9.5960   33.6600   60.8410  C.ar      1 <0>        -0.0970
      15  C13         8.7560   32.6060   60.3580  C.1       1 <0>         0.2499
      16  N2          8.0890   31.7700   59.9760  N.1       1 <0>        -0.4030
      17  C14        12.8190   34.0560   62.7840  C.3       1 <0>         0.5154
      18  F2         13.9360   34.2850   61.9730  F         1 <0>        -0.1760
      19  F3         12.8930   34.8700   63.9210  F         1 <0>        -0.1756
      20  F4         12.7920   32.7130   63.1740  F         1 <0>        -0.1756
      21  F5          6.8810   37.6250   60.8030  F         1 <0>        -0.1193
@<TRIPOS>BOND
     1     1     6 ar
     2     1     2 ar
     3     2     3 ar
     4     3     4 ar
     5     3    21 1
     6     4     5 ar
     7     4     8 1
     8     5     6 ar
     9     5     7 1
    10     8     9 1
    11     9    14 ar
    12     9    10 ar
    13    10    11 ar
    14    11    12 ar
    15    12    13 ar
    16    12    17 1
    17    13    14 ar
    18    14    15 1
    19    15    16 3
    20    17    18 1
    21    17    19 1
    22    17    20 1

@<TRIPOS>MOLECULE
ZINC38705084_replica-1.pdb
 34 38 0 0 0
SMALL
GASTEIGER

@<TRIPOS>ATOM
       1  C1          5.7570   28.5220   58.9860  C.3       1 <0>        -0.1487
       2  C2          6.9820   29.1110   58.2820  C.3       1 <0>        -0.0875
       3  C3          6.7780   30.5900   58.0720  C.ar      1 <0>        -0.0697
       4  C4          6.4620   31.4020   59.1440  C.ar      1 <0>        -0.1186
       5  C5          6.2740   32.7580   58.9520  C.ar      1 <0>        -0.0940
       6  C6          6.4030   33.3020   57.6880  C.ar      1 <0>        -0.0958
       7  C7          6.7200   32.4880   56.6160  C.ar      1 <0>        -0.0784
       8  C8          6.9120   31.1330   56.8080  C.ar      1 <0>        -0.1132
       9  C9          6.1980   34.7800   57.4780  C.3       1 <0>         0.2498
      10  C10         4.8670   35.0300   56.8240  C.2       1 <0>        -0.1432
      11  C11         3.4750   34.9100   56.8990  C.2       1 <0>         0.1210
      12  N1          2.9750   35.4350   55.7970  N.2       1 <0>        -0.2454
      13  N2          3.9120   35.8730   55.0350  N.pl3     1 <0>        -0.3365
      14  C12         5.1280   35.6510   55.6180  C.2       1 <0>        -0.0706
      15  C13         6.5790   35.8080   55.4780  C.2       1 <0>         0.5999
      16  O1          7.1340   36.3190   54.5240  O.2       1 <0>        -0.5188
      17  N3          7.2130   35.3050   56.5540  N.am      1 <0>        -0.5921
      18  C14         8.6610   35.2840   56.7680  C.3       1 <0>         0.1825
      19  C15         8.9720   35.7820   58.1570  C.ar      1 <0>        -0.1290
      20  C16         9.5950   34.9480   59.0660  C.ar      1 <0>        -0.0548
      21  C17         9.8810   35.4040   60.3390  C.ar      1 <0>        -0.1546
      22  C18         9.5410   36.6960   60.7040  C.ar      1 <0>         0.1069
      23  C19         8.9160   37.5300   59.7910  C.ar      1 <0>        -0.1600
      24  C20         8.6370   37.0740   58.5180  C.ar      1 <0>        -0.0654
      25  F1          9.8190   37.1430   61.9470  F         1 <0>        -0.1399
      26  C21         2.7040   34.3040   58.0130  C.ar      1 <0>        -0.0452
      27  C22         2.5800   32.9200   58.1060  C.ar      1 <0>        -0.0343
      28  C23         1.8610   32.3620   59.1430  C.ar      1 <0>        -0.1318
      29  C24         1.2630   33.1720   60.0920  C.ar      1 <0>        -0.0548
      30  C25         1.3800   34.5460   60.0090  C.ar      1 <0>        -0.1551
      31  C26         2.1040   35.1210   58.9760  C.ar      1 <0>         0.1407
      32  O2          2.2260   36.4710   58.8970  O.3       1 <0>        -0.4922
      33  C27         0.4800   32.5520   61.2210  C.3       1 <0>        -0.1182
      34  C28         3.2280   32.0340   57.0740  C.3       1 <0>        -0.1265
@<TRIPOS>BOND
     1     1     2 1
     2     2     3 1
     3     3     8 ar
     4     3     4 ar
     5     4     5 ar
     6     5     6 ar
     7     6     7 ar
     8     6     9 1
     9     7     8 ar
    10     9    17 1
    11     9    10 1
    12    10    14 2
    13    10    11 1
    14    11    12 2
    15    11    26 1
    16    12    13 1
    17    13    14 1
    18    14    15 1
    19    15    16 2
    20    15    17 am
    21    17    18 1
    22    18    19 1
    23    19    24 ar
    24    19    20 ar
    25    20    21 ar
    26    21    22 ar
    27    22    23 ar
    28    22    25 1
    29    23    24 ar
    30    26    31 ar
    31    26    27 ar
    32    27    28 ar
    33    27    34 1
    34    28    29 ar
    35    29    30 ar
    36    29    33 1
    37    30    31 ar
    38    31    32 1

@<TRIPOS>MOLECULE
ZINC05883276_replica-1.pdb
 23 24 0 0 0
SMALL
GASTEIGER

@<TRIPOS>ATOM
       1  C1          8.0970   38.6340   56.7860  C.3       1 <0>        -0.1508
       2  C2          7.2180   38.1870   55.6170  C.3       1 <0>        -0.1197
       3  C3          6.5640   36.8460   55.9540  C.3       1 <0>         0.0498
       4  N1          7.3600   35.7540   55.3760  N.pl3     1 <0>        -0.6115
       5  C4          7.0800   34.5380   56.0120  C.2       1 <0>        -0.0459
       6  C5          7.9090   34.0610   56.9880  C.2       1 <0>         0.0573
       7  C6          7.6060   32.8390   57.6090  C.2       1 <0>        -0.1798
       8  C7          6.5020   32.1500   57.2420  C.2       1 <0>         0.1573
       9  N2          5.6790   32.6210   56.2670  N.am      1 <0>        -0.6061
      10  C8          5.9380   33.7890   55.6500  C.2       1 <0>         0.4966
      11  O1          5.1880   34.2010   54.7800  O.2       1 <0>        -0.5559
      12  C9          6.1820   30.8420   57.9190  C.3       1 <0>        -0.1248
      13  C10         8.5080   32.2980   58.6870  C.3       1 <0>        -0.0790
      14  C11         7.8770   32.5540   60.0570  C.3       1 <0>        -0.1506
      15  C12         9.1350   34.8370   57.3940  C.3       1 <0>        -0.0442
      16  C13         8.8770   35.5350   58.7040  C.ar      1 <0>        -0.0634
      17  C14         7.6270   36.0610   58.9720  C.ar      1 <0>        -0.1114
      18  C15         7.3880   36.6980   60.1760  C.ar      1 <0>        -0.0826
      19  C16         8.4020   36.8160   61.1080  C.ar      1 <0>        -0.1246
      20  C17         9.6540   36.2950   60.8380  C.ar      1 <0>        -0.0825
      21  C18         9.8910   35.6550   59.6370  C.ar      1 <0>        -0.1268
      22  C19        10.7600   36.4260   61.8530  C.3       1 <0>        -0.1151
      23  C20         6.0240   37.2660   60.4700  C.3       1 <0>        -0.1155
@<TRIPOS>BOND
     1     1     2 1
     2     2     3 1
     3     3     4 1
     4     4     5 1
     5     5    10 1
     6     5     6 2
     7     6     7 1
     8     6    15 1
     9     7     8 2
    10     7    13 1
    11     8     9 1
    12     8    12 1
    13     9    10 am
    14    10    11 2
    15    13    14 1
    16    15    16 1
    17    16    21 ar
    18    16    17 ar
    19    17    18 ar
    20    18    19 ar
    21    18    23 1
    22    19    20 ar
    23    20    21 ar
    24    20    22 1

@<TRIPOS>MOLECULE
ZINC37936104_replica-1.pdb
 22 24 0 0 0
SMALL
GASTEIGER

@<TRIPOS>ATOM
      1  C1        10.4250   36.0210   60.7540 C.ar    0  <0>0       -0.0003
      2  C2        10.3210   34.8780   59.9820 C.ar    0  <0>0       -0.0003
      3  C3         9.4550   34.8470   58.9030 C.ar    0  <0>0       -0.0020
      4  C4         8.6980   35.9660   58.6020 C.ar    0  <0>0        0.0031
      5  C5         8.8020   37.0980   59.3670 C.ar    0  <0>0       -0.0237
      6  C6         9.6660   37.1360   60.4470 C.ar    0  <0>0       -0.0045
      7  C7         7.9690   38.3190   59.0340 C.3     0  <0>0        0.0261
      8  C8         8.5090   38.9350   57.7410 C.3     0  <0>0        0.0048
      9  C9         7.8930   38.2700   56.5260 C.3     0  <0>0        0.0034
     10  C10        8.3160   36.8290   56.3190 C.3     0  <0>0        0.0369
     11  C11        7.7500   35.9290   57.4220 C.3     0  <0>0        0.1533
     12  C12        7.6350   34.5490   56.9220 C.1     0  <0>0        0.0939
     13  N1         7.5450   33.4840   56.5380 N.1     0  <0>0       -0.1939
     14  N2         6.4330   36.4210   57.8310 N.pl3   0  <0>0       -0.3214
     15  H13        6.1640   37.3270   57.6100 H       0  <0>0        0.1479
     16  C13        5.5650   35.5880   58.5400 C.ar    0  <0>0        0.0455
     17  C18        4.4210   35.0900   57.9270 C.ar    0  <0>0        0.0152
     18  C17        3.5680   34.2620   58.6290 C.ar    0  <0>0        0.0127
     19  C16        3.8440   33.9370   59.9460 C.ar    0  <0>0        0.0578
     20  C15        4.9780   34.4370   60.5610 C.ar    0  <0>0        0.0127
     21 Cl          2.7650   32.9010   60.8270 Cl      0  <0>0       -0.0822
     22  C14        5.8390   35.2600   59.8610 C.ar    0  <0>0        0.0152
@<TRIPOS>BOND
     1    10     9    1
     2    10    11    1
     3     9     8    1
     4    13    12    3
     5    12    11    1
     6    11    14    1
     7    11     4    1
     8    15    14    1
     9     8     7    1
    10    14    16    1
    11    17    16   ar
    12    17    18   ar
    13    16    22   ar
    14     4     3   ar
    15     4     5   ar
    16    18    19   ar
    17     3     2   ar
    18     7     5    1
    19     5     6   ar
    20    22    20   ar
    21    19    20   ar
    22    19    21    1
    23     2     1   ar
    24     6     1   ar


@<TRIPOS>MOLECULE
ZINC20013424_replica-1.pdb
 21 22 0 0 0
SMALL
GASTEIGER

@<TRIPOS>ATOM
       1  C1         11.5250   36.4450   62.4790  C.3       1 <0>        -0.1665
       2  C2         10.9150   35.2740   61.7060  C.3       1 <0>         0.1927
       3  C3         10.1010   35.8020   60.5530  C.ar      1 <0>        -0.1153
       4  C4          9.9380   35.0350   59.4150  C.ar      1 <0>        -0.0746
       5  C5          9.1860   35.5150   58.3600  C.ar      1 <0>        -0.1849
       6  C6          8.6050   36.7720   58.4380  C.ar      1 <0>         0.1081
       7  C7          8.7750   37.5410   59.5800  C.ar      1 <0>        -0.1285
       8  C8          9.5220   37.0550   60.6340  C.ar      1 <0>        -0.0727
       9  O1          7.8710   37.2490   57.3980  O.3       1 <0>        -0.3187
      10  C9          7.9770   38.6450   57.1160  C.3       1 <0>         0.4089
      11  F1          9.2880   38.9450   56.7310  F         1 <0>        -0.1984
      12  F2          7.0990   38.9800   56.0800  F         1 <0>        -0.1984
      13  N1         11.9870   34.4150   61.1940  N.pl3     1 <0>        -0.7424
      14  C10        12.8070   33.7180   62.0830  C.ar      1 <0>         0.2814
      15  C11        12.3290   32.5840   62.7290  C.ar      1 <0>        -0.2527
      16  C12        13.1410   31.8990   63.6140  C.ar      1 <0>         0.1804
      17  C13        14.4300   32.3410   63.8580  C.ar      1 <0>        -0.2558
      18  C14        14.9090   33.4710   63.2150  C.ar      1 <0>         0.1803
      19  C15        14.1000   34.1600   62.3290  C.ar      1 <0>        -0.2462
      20  F3         16.1680   33.9000   63.4540  F         1 <0>        -0.1302
      21  F4         12.6760   30.7960   64.2400  F         1 <0>        -0.1302
@<TRIPOS>BOND
     1     1     2 1
     2     2     3 1
     3     2    13 1
     4     3     8 ar
     5     3     4 ar
     6     4     5 ar
     7     5     6 ar
     8     6     7 ar
     9     6     9 1
    10     7     8 ar
    11     9    10 1
    12    10    11 1
    13    10    12 1
    14    13    14 1
    15    14    19 ar
    16    14    15 ar
    17    15    16 ar
    18    16    17 ar
    19    16    21 1
    20    17    18 ar
    21    18    19 ar
    22    18    20 1

@<TRIPOS>MOLECULE
ZINC12920953_replica-1.pdb
 27 29 0 0 0
SMALL
GASTEIGER

@<TRIPOS>ATOM
       1  C1         -2.9270   30.8090   55.7980  C.3       1 <0>        -0.1501
       2  C2         -2.5720   29.9370   54.5920  C.3       1 <0>        -0.1193
       3  C3         -1.1340   29.4370   54.7300  C.3       1 <0>        -0.0588
       4  C4         -0.1640   30.5670   54.3780  C.3       1 <0>         0.1306
       5  N1          0.8920   30.6370   55.3930  N.am      1 <0>        -0.7328
       6  C5          0.9410   31.6840   56.2410  C.2       1 <0>         0.5034
       7  O1          0.1150   32.5660   56.1640  O.2       1 <0>        -0.5056
       8  C6          2.0270   31.7560   57.2840  C.3       1 <0>         0.0979
       9  N2          1.4210   31.8700   58.6120  N.pl3     1 <0>        -0.4736
      10  C7          0.7190   30.9010   59.2910  C.2       1 <0>         0.1526
      11  N3          0.3570   31.4210   60.4410  N.2       1 <0>        -0.2714
      12  N4          0.7800   32.6320   60.5270  N.2       1 <0>        -0.3398
      13  C8          1.4420   32.9570   59.4390  C.2       1 <0>         0.3894
      14  S1          2.2090   34.5080   59.1070  S.3       1 <0>        -0.7999
      15  C9          0.4250   29.5330   58.8150  C.ar      1 <0>         0.0203
      16  C10        -0.8830   29.1670   58.4950  C.ar      1 <0>        -0.1215
      17  C11        -1.1500   27.8890   58.0510  C.ar      1 <0>        -0.1142
      18  C12        -0.1240   26.9690   57.9230  C.ar      1 <0>        -0.0967
      19  C13         1.1750   27.3250   58.2380  C.ar      1 <0>        -0.1152
      20  C14         1.4570   28.6020   58.6780  C.ar      1 <0>        -0.0857
      21  C15        -0.4240   25.5740   57.4390  C.3       1 <0>        -0.1103
      22  C16        -0.9130   28.2770   53.7930  C.ar      1 <0>        -0.0687
      23  C17        -1.4560   28.3040   52.5220  C.ar      1 <0>        -0.1111
      24  C18        -1.2530   27.2390   51.6620  C.ar      1 <0>        -0.1171
      25  C19        -0.5090   26.1500   52.0740  C.ar      1 <0>        -0.1247
      26  C20         0.0330   26.1240   53.3450  C.ar      1 <0>        -0.1204
      27  C21        -0.1650   27.1900   54.2030  C.ar      1 <0>        -0.1143
@<TRIPOS>BOND
     1     1     2 1
     2     2     3 1
     3     3     4 1
     4     3    22 1
     5     4     5 1
     6     5     6 am
     7     6     7 2
     8     6     8 1
     9     8     9 1
    10     9    13 1
    11     9    10 1
    12    10    15 1
    13    10    11 2
    14    11    12 1
    15    12    13 2
    16    13    14 1
    17    15    20 ar
    18    15    16 ar
    19    16    17 ar
    20    17    18 ar
    21    18    19 ar
    22    18    21 1
    23    19    20 ar
    24    22    27 ar
    25    22    23 ar
    26    23    24 ar
    27    24    25 ar
    28    25    26 ar
    29    26    27 ar

@<TRIPOS>MOLECULE
ZINC39569791_replica-1.pdb
 26 27 0 0 0
SMALL
GASTEIGER

@<TRIPOS>ATOM
       1  C1          0.5930   22.5330   55.3810  C.3       1 <0>        -0.1208
       2  C2          0.2130   23.5440   56.4320  C.ar      1 <0>        -0.0784
       3  C3         -0.1930   23.1200   57.6840  C.ar      1 <0>        -0.1221
       4  C4         -0.5420   24.0460   58.6490  C.ar      1 <0>        -0.1127
       5  C5         -0.4840   25.3970   58.3610  C.ar      1 <0>        -0.1262
       6  C6         -0.0770   25.8220   57.1100  C.ar      1 <0>        -0.0905
       7  C7          0.2760   24.8950   56.1480  C.ar      1 <0>        -0.0984
       8  C8          0.7250   25.3570   54.7860  C.3       1 <0>         0.0985
       9  O1          0.2100   26.6660   54.5330  O.3       1 <0>        -0.2795
      10  C9         -0.4380   26.8580   53.3580  C.ar      1 <0>         0.1958
      11  C10        -0.4090   25.8760   52.3780  C.ar      1 <0>        -0.2257
      12  C11        -1.0700   26.0720   51.1820  C.ar      1 <0>        -0.0376
      13  C12        -1.7670   27.2470   50.9500  C.ar      1 <0>        -0.1717
      14  C13        -1.8070   28.2330   51.9120  C.ar      1 <0>        -0.0196
      15  C14        -1.1470   28.0460   53.1290  C.ar      1 <0>        -0.1642
      16  C15        -1.1900   29.0940   54.1650  C.2       1 <0>         0.5125
      17  O2         -2.0910   29.1050   54.9810  O.2       1 <0>        -0.4869
      18  O3         -0.2310   30.0400   54.2070  O.3       1 <0>        -0.3273
      19  C16        -0.6380   31.3610   54.5660  C.3       1 <0>         0.0488
      20  C17         0.1570   31.8260   55.7580  C.2       1 <0>         0.5189
      21  O4          0.8140   31.0310   56.3960  O.2       1 <0>        -0.5102
      22  N1          0.1380   33.1250   56.1170  N.am      1 <0>        -0.7210
      23  C18         0.9110   33.5770   57.2760  C.3       1 <0>         0.1702
      24  C19         0.6730   35.0720   57.4960  C.3       1 <0>        -0.1660
      25  C20         0.4700   32.8010   58.5180  C.3       1 <0>        -0.1566
      26  C21         2.4000   33.3310   57.0220  C.3       1 <0>        -0.1660
@<TRIPOS>BOND
     1     1     2 1
     2     2     7 ar
     3     2     3 ar
     4     3     4 ar
     5     4     5 ar
     6     5     6 ar
     7     6     7 ar
     8     7     8 1
     9     8     9 1
    10     9    10 1
    11    10    15 ar
    12    10    11 ar
    13    11    12 ar
    14    12    13 ar
    15    13    14 ar
    16    14    15 ar
    17    15    16 1
    18    16    17 2
    19    16    18 1
    20    18    19 1
    21    19    20 1
    22    20    21 2
    23    20    22 am
    24    22    23 1
    25    23    24 1
    26    23    25 1
    27    23    26 1

@<TRIPOS>MOLECULE
ZINC49903194_replica-1.pdb
 22 23 0 0 0
SMALL
GASTEIGER

@<TRIPOS>ATOM
       1  C1          0.7660   25.0590   54.8360  C.3       1 <0>        -0.1162
       2  C2          0.0490   25.8340   53.7610  C.ar      1 <0>        -0.0871
       3  C3         -0.3100   25.2090   52.5810  C.ar      1 <0>        -0.1161
       4  C4         -0.9680   25.9190   51.5940  C.ar      1 <0>        -0.1138
       5  C5         -1.2670   27.2550   51.7870  C.ar      1 <0>        -0.0817
       6  C6         -0.9090   27.8800   52.9660  C.ar      1 <0>        -0.1153
       7  C7         -0.2550   27.1690   53.9560  C.ar      1 <0>        -0.1091
       8  C8         -1.2340   29.3360   53.1770  C.3       1 <0>         0.1538
       9  C9         -0.3150   29.9140   54.2550  C.3       1 <0>        -0.1623
      10  C10        -0.8050   31.3080   54.6500  C.3       1 <0>         0.1169
      11  N1         -1.6300   31.2120   55.8570  N.pl3     1 <0>        -0.7567
      12  C11        -1.0830   30.7090   57.0400  C.ar      1 <0>         0.2028
      13  C12        -1.5240   29.4930   57.5480  C.ar      1 <0>        -0.1418
      14  C13        -0.9810   28.9990   58.7170  C.ar      1 <0>        -0.0857
      15  C14         0.0010   29.7100   59.3810  C.ar      1 <0>        -0.1288
      16  C15         0.4430   30.9200   58.8770  C.ar      1 <0>        -0.0864
      17  C16        -0.0930   31.4180   57.7050  C.ar      1 <0>        -0.1456
      18  C17         0.3940   32.7330   57.1540  C.3       1 <0>        -0.1021
      19  C18         0.5910   29.1670   60.6570  C.3       1 <0>        -0.1080
      20  C19        -2.5960   28.7170   56.8260  C.3       1 <0>        -0.1187
      21  O1         -2.5950   29.4660   53.5930  O.3       1 <0>        -0.5516
      22  C20        -1.9830   28.0300   50.7110  C.3       1 <0>        -0.1232
@<TRIPOS>BOND
     1     1     2 1
     2     2     7 ar
     3     2     3 ar
     4     3     4 ar
     5     4     5 ar
     6     5     6 ar
     7     5    22 1
     8     6     7 ar
     9     6     8 1
    10     8     9 1
    11     8    21 1
    12     9    10 1
    13    10    11 1
    14    11    12 1
    15    12    17 ar
    16    12    13 ar
    17    13    14 ar
    18    13    20 1
    19    14    15 ar
    20    15    16 ar
    21    15    19 1
    22    16    17 ar
    23    17    18 1

@<TRIPOS>MOLECULE
ZINC37876438_replica-1.pdb
 21 22 0 0 0
SMALL
GASTEIGER

@<TRIPOS>ATOM
       1  C1         12.0080   35.2050   62.4590  C.3       1 <0>        -0.1457
       2  C2         11.4080   34.4900   61.2460  C.3       1 <0>        -0.0600
       3  C3         10.6100   33.2720   61.7150  C.3       1 <0>        -0.1453
       4  C4         10.4960   35.4340   60.5080  C.ar      1 <0>        -0.0683
       5  C5          9.9980   35.0860   59.2660  C.ar      1 <0>        -0.1113
       6  C6          9.1610   35.9530   58.5890  C.ar      1 <0>        -0.1031
       7  C7          8.8190   37.1670   59.1540  C.ar      1 <0>        -0.1258
       8  C8          9.3160   37.5160   60.3960  C.ar      1 <0>        -0.1052
       9  C9         10.1500   36.6470   61.0750  C.ar      1 <0>        -0.1139
      10  C10         7.9070   38.1120   58.4160  C.3       1 <0>         0.1419
      11  C11         8.5860   38.5720   57.1240  C.3       1 <0>         0.0953
      12  N1          7.6260   38.5140   56.0190  N.pl3     1 <0>        -0.7328
      13  C12         6.8580   37.3620   55.8180  C.ar      1 <0>         0.2187
      14  C13         5.4830   37.4050   55.9920  C.ar      1 <0>        -0.2157
      15  C14         4.7250   36.2650   55.7920  C.ar      1 <0>         0.1417
      16  C15         5.3410   35.0800   55.4190  C.ar      1 <0>        -0.1862
      17  C16         6.7110   35.0360   55.2460  C.ar      1 <0>        -0.0742
      18  C17         7.4730   36.1740   55.4390  C.ar      1 <0>         0.0103
      19  F1          8.8110   36.1300   55.2630  F         1 <0>        -0.1380
      20  F2          3.3850   36.3050   55.9610  F         1 <0>        -0.1336
      21  O1          7.6300   39.2470   59.2380  O.3       1 <0>        -0.5488
@<TRIPOS>BOND
     1     1     2 1
     2     2     3 1
     3     2     4 1
     4     4     9 ar
     5     4     5 ar
     6     5     6 ar
     7     6     7 ar
     8     7     8 ar
     9     7    10 1
    10     8     9 ar
    11    10    11 1
    12    10    21 1
    13    11    12 1
    14    12    13 1
    15    13    18 ar
    16    13    14 ar
    17    14    15 ar
    18    15    16 ar
    19    15    20 1
    20    16    17 ar
    21    17    18 ar
    22    18    19 1

@<TRIPOS>MOLECULE
ZINC37224313_replica-1.pdb
 21 22 0 0 0
SMALL
GASTEIGER

@<TRIPOS>ATOM
      1  C9         7.8220   36.7670   58.2100 C.3     0  <0>0        0.0919
      2  C6         8.8530   36.3710   59.2350 C.ar    0  <0>0       -0.0046
      3  C5         9.0810   37.1790   60.3330 C.ar    0  <0>0       -0.0030
      4  C4        10.0270   36.8170   61.2740 C.ar    0  <0>0       -0.0045
      5  C3        10.7440   35.6450   61.1170 C.ar    0  <0>0       -0.0222
      6  C8        10.5200   34.8390   60.0160 C.ar    0  <0>0       -0.0045
      7  C7         9.5710   35.2010   59.0770 C.ar    0  <0>0       -0.0030
      8  C2        11.7750   35.2490   62.1420 C.3     0  <0>0        0.0264
      9  C1        11.8120   33.7250   62.2670 C.3     0  <0>0        0.0050
     10  C10        8.5250   37.2780   56.9500 C.3     0  <0>0        0.0241
     11  C11        8.5740   38.8070   56.9790 C.3     0  <0>0        0.0021
     12  N1         6.9980   35.6030   57.8710 N.pl3   0  <0>0       -0.3299
     13  H16        7.4020   34.7240   57.8120 H       0  <0>0        0.1471
     14  C12        5.6280   35.7620   57.6340 C.ar    0  <0>0        0.0557
     15  C17        4.7260   35.6870   58.6870 C.ar    0  <0>0        0.0730
     16  C16        3.3740   35.8510   58.4500 C.ar    0  <0>0        0.0423
     17 Cl          5.2970   35.3980   60.3010 Cl      0  <0>0       -0.0809
     18  C15        2.9180   36.0750   57.1620 C.ar    0  <0>0        0.1411
     19  C14        3.8160   36.1430   56.1100 C.ar    0  <0>0        0.0310
     20  F1         1.5960   36.2300   56.9320 F       0  <0>0       -0.2041
     21  C13        5.1680   35.9870   56.3430 C.ar    0  <0>0        0.0175
@<TRIPOS>BOND
     1    19    21   ar
     2    19    18   ar
     3    21    14   ar
     4    20    18    1
     5    10    11    1
     6    10     1    1
     7    18    16   ar
     8    14    12    1
     9    14    15   ar
    10    13    12    1
    11    12     1    1
    12     1     2    1
    13    16    15   ar
    14    15    17    1
    15     7     2   ar
    16     7     6   ar
    17     2     3   ar
    18     6     5   ar
    19     3     4   ar
    20     5     4   ar
    21     5     8    1
    22     8     9    1


@<TRIPOS>MOLECULE
ZINC21243116_replica-1.pdb
 35 39 0 0 0
SMALL
GASTEIGER

@<TRIPOS>ATOM
       1  C1          6.0190   28.9970   62.6410  C.3       1 <0>        -0.1517
       2  C2          6.9930   29.2680   61.4930  C.3       1 <0>        -0.1248
       3  C3          6.3200   30.1710   60.4560  C.3       1 <0>         0.0585
       4  O1          5.7110   31.2820   61.1150  O.3       1 <0>        -0.3175
       5  C4          4.4980   31.6860   60.6530  C.ar      1 <0>         0.1289
       6  C5          4.1340   31.4310   59.3390  C.ar      1 <0>        -0.1571
       7  C6          2.9010   31.8420   58.8730  C.ar      1 <0>        -0.0500
       8  C7          2.0290   32.5070   59.7150  C.ar      1 <0>        -0.1175
       9  C8          2.3910   32.7670   61.0230  C.ar      1 <0>        -0.0641
      10  C9          3.6210   32.3540   61.4960  C.ar      1 <0>        -0.2119
      11  C10         0.6840   32.9540   59.2020  C.3       1 <0>         0.2903
      12  C11         0.3260   32.1120   58.0030  C.2       1 <0>        -0.3043
      13  C12         0.2820   32.5350   56.7270  C.2       1 <0>         0.2687
      14  C13        -0.1140   31.5830   55.6110  C.3       1 <0>        -0.1023
      15  C14         0.3420   30.1640   55.9490  C.3       1 <0>        -0.0262
      16  C15        -0.3330   29.7580   57.2640  C.3       1 <0>        -0.1592
      17  C16         0.0240   30.7660   58.3160  C.2       1 <0>         0.3999
      18  O2          0.0540   30.4130   59.4780  O.2       1 <0>        -0.4733
      19  C17        -0.0690   29.2200   54.8490  C.ar      1 <0>        -0.1392
      20  C18         0.5050   27.9650   54.7670  C.ar      1 <0>        -0.0648
      21  C19         0.1270   27.0950   53.7630  C.ar      1 <0>        -0.1919
      22  C20        -0.8230   27.4860   52.8290  C.ar      1 <0>         0.2132
      23  C21        -1.3930   28.7500   52.9100  C.ar      1 <0>        -0.1922
      24  C22        -1.0150   29.6130   53.9200  C.ar      1 <0>        -0.0636
      25  N1         -1.2040   26.6110   51.8090  N.pl3     1 <0>        -0.6382
      26  C23        -2.0270   27.0950   50.6980  C.3       1 <0>         0.0920
      27  C24        -0.7820   25.2090   51.8520  C.3       1 <0>         0.0922
      28  N2          0.5580   33.8010   56.3270  N.pl3     1 <0>        -0.6978
      29  C25         1.6530   34.5470   56.7480  C.ar      1 <0>         0.1139
      30  C26         2.6410   34.9670   55.8730  C.ar      1 <0>        -0.1168
      31  C27         3.6560   35.7840   56.3390  C.ar      1 <0>        -0.1262
      32  C28         3.6860   36.1740   57.6650  C.ar      1 <0>        -0.1086
      33  C29         2.7060   35.7460   58.5430  C.ar      1 <0>        -0.1272
      34  C30         1.6990   34.9140   58.0840  C.ar      1 <0>         0.1753
      35  N3          0.7420   34.3780   58.9460  N.pl3     1 <0>        -0.7822
@<TRIPOS>BOND
     1     1     2 1
     2     2     3 1
     3     3     4 1
     4     4     5 1
     5     5    10 ar
     6     5     6 ar
     7     6     7 ar
     8     7     8 ar
     9     8     9 ar
    10     8    11 1
    11     9    10 ar
    12    11    35 1
    13    11    12 1
    14    12    17 1
    15    12    13 2
    16    13    14 1
    17    13    28 1
    18    14    15 1
    19    15    16 1
    20    15    19 1
    21    16    17 1
    22    17    18 2
    23    19    24 ar
    24    19    20 ar
    25    20    21 ar
    26    21    22 ar
    27    22    23 ar
    28    22    25 1
    29    23    24 ar
    30    25    26 1
    31    25    27 1
    32    28    29 1
    33    29    34 ar
    34    29    30 ar
    35    30    31 ar
    36    31    32 ar
    37    32    33 ar
    38    33    34 ar
    39    34    35 1

@<TRIPOS>MOLECULE
ZINC49902929_replica-1.pdb
 22 23 0 0 0
SMALL
GASTEIGER

@<TRIPOS>ATOM
       1  C1          0.5350   27.4740   54.9980  C.3       1 <0>        -0.1080
       2  C2         -0.0620   26.9020   53.7380  C.ar      1 <0>        -0.1471
       3  C3          0.1020   25.5640   53.4420  C.ar      1 <0>        -0.0861
       4  C4         -0.4440   25.0380   52.2850  C.ar      1 <0>        -0.1621
       5  C5         -1.1570   25.8490   51.4230  C.ar      1 <0>        -0.0862
       6  C6         -1.3250   27.1890   51.7120  C.ar      1 <0>        -0.1480
       7  C7         -0.7820   27.7190   52.8760  C.ar      1 <0>         0.2072
       8  N1         -0.9540   29.0730   53.1750  N.pl3     1 <0>        -0.7498
       9  C8         -2.2590   29.5640   53.6240  C.3       1 <0>         0.0891
      10  C9         -2.0640   30.5430   54.7840  C.3       1 <0>         0.1370
      11  C10        -1.9660   29.7770   56.0780  C.ar      1 <0>        -0.1226
      12  C11        -1.0710   30.1780   57.0520  C.ar      1 <0>        -0.1065
      13  C12        -0.9810   29.4740   58.2390  C.ar      1 <0>        -0.1111
      14  C13        -1.7850   28.3700   58.4510  C.ar      1 <0>        -0.0638
      15  C14        -2.6800   27.9700   57.4770  C.ar      1 <0>        -0.1178
      16  C15        -2.7740   28.6760   56.2920  C.ar      1 <0>        -0.1047
      17  C16        -1.6860   27.6030   59.7450  C.3       1 <0>        -0.0319
      18  C17        -1.4740   28.5810   60.9020  C.3       1 <0>        -0.1397
      19  C18        -2.9790   26.8170   59.9720  C.3       1 <0>        -0.1460
      20  C19        -0.5050   26.6330   59.6730  C.3       1 <0>        -0.1393
      21  O1         -0.8620   31.2890   54.5810  O.3       1 <0>        -0.5507
      22  C20        -2.1020   28.0730   50.7720  C.3       1 <0>        -0.1163
@<TRIPOS>BOND
     1     1     2 1
     2     2     7 ar
     3     2     3 ar
     4     3     4 ar
     5     4     5 ar
     6     5     6 ar
     7     6     7 ar
     8     6    22 1
     9     7     8 1
    10     8     9 1
    11     9    10 1
    12    10    11 1
    13    10    21 1
    14    11    16 ar
    15    11    12 ar
    16    12    13 ar
    17    13    14 ar
    18    14    15 ar
    19    14    17 1
    20    15    16 ar
    21    17    18 1
    22    17    19 1
    23    17    20 1

@<TRIPOS>MOLECULE
ZINC65354245_replica-1.pdb
 21 22 0 0 0
SMALL
GASTEIGER

@<TRIPOS>ATOM
       1  C1          7.6180   34.8170   57.3690  C.3       1 <0>         0.0198
       2  O1          8.7430   35.6900   57.4860  O.3       1 <0>        -0.2651
       3  C2          9.2010   35.9410   58.7380  C.ar      1 <0>         0.1543
       4  C3          9.8710   34.9570   59.4430  C.ar      1 <0>        -0.2085
       5  C4         10.3390   35.2210   60.7280  C.ar      1 <0>        -0.0448
       6  C5         10.1330   36.4770   61.3050  C.ar      1 <0>        -0.1515
       7  C6          9.4740   37.4520   60.6160  C.ar      1 <0>        -0.0521
       8  C7          9.0030   37.2030   59.3210  C.ar      1 <0>        -0.1489
       9  C8          8.2980   38.2570   58.5780  C.2       1 <0>         0.5194
      10  O2          8.8330   38.7900   57.6150  O.co2     1 <0>        -0.6923
      11  O3          7.1750   38.6010   58.9210  O.co2     1 <0>        -0.6658
      12  C9         11.0570   34.1680   61.4840  C.ar      1 <0>         0.0129
      13  C10        12.3690   34.3810   61.9070  C.ar      1 <0>        -0.1204
      14  C11        13.0330   33.3970   62.6110  C.ar      1 <0>        -0.0657
      15  C12        12.3990   32.2000   62.8970  C.ar      1 <0>        -0.1991
      16  C13        11.0980   31.9840   62.4800  C.ar      1 <0>        -0.0654
      17  C14        10.4230   32.9620   61.7810  C.ar      1 <0>        -0.1178
      18  C15        13.1290   31.1300   63.6650  C.3       1 <0>         0.5100
      19  F1         14.4140   31.5800   63.9880  F         1 <0>        -0.1785
      20  F2         12.4290   30.8380   64.8410  F         1 <0>        -0.1787
      21  F3         13.2240   29.9750   62.8810  F         1 <0>        -0.1792
@<TRIPOS>BOND
     1     1     2 1
     2     2     3 1
     3     3     8 ar
     4     3     4 ar
     5     4     5 ar
     6     5     6 ar
     7     5    12 1
     8     6     7 ar
     9     7     8 ar
    10     8     9 1
    11     9    10 2
    12     9    11 1
    13    12    17 ar
    14    12    13 ar
    15    13    14 ar
    16    14    15 ar
    17    15    16 ar
    18    15    18 1
    19    16    17 ar
    20    18    19 1
    21    18    20 1
    22    18    21 1

@<TRIPOS>MOLECULE
ZINC49902949_replica-1.pdb
 22 23 0 0 0
SMALL
GASTEIGER

@<TRIPOS>ATOM
       1  C1          1.9230   32.4430   56.3920  C.3       1 <0>        -0.1438
       2  C2          0.4860   32.6590   56.8720  C.3       1 <0>        -0.0862
       3  C3         -0.0100   31.4110   57.5550  C.ar      1 <0>        -0.1168
       4  C4          0.4240   31.1020   58.8290  C.ar      1 <0>        -0.1032
       5  C5         -0.0300   29.9560   59.4560  C.ar      1 <0>        -0.1413
       6  C6         -0.9210   29.1170   58.8120  C.ar      1 <0>        -0.1028
       7  C7         -1.3580   29.4210   57.5370  C.ar      1 <0>        -0.1121
       8  C8         -0.9080   30.5730   56.9060  C.ar      1 <0>         0.1918
       9  N1         -1.3530   30.8870   55.6200  N.pl3     1 <0>        -0.7626
      10  C9         -0.6430   30.3620   54.4510  C.3       1 <0>         0.1132
      11  C10        -1.6540   29.9760   53.3700  C.3       1 <0>         0.1316
      12  C11        -1.3420   28.5930   52.8600  C.ar      1 <0>        -0.1249
      13  C12        -0.4910   27.7690   53.5740  C.ar      1 <0>        -0.1021
      14  C13        -0.2050   26.5000   53.1070  C.ar      1 <0>        -0.1229
      15  C14        -0.7700   26.0540   51.9260  C.ar      1 <0>        -0.0793
      16  C15        -1.6210   26.8780   51.2130  C.ar      1 <0>        -0.1195
      17  C16        -1.9100   28.1460   51.6830  C.ar      1 <0>        -0.0706
      18  C17        -2.8410   29.0410   50.9070  C.3       1 <0>        -0.1214
      19  C18        -0.4570   24.6700   51.4170  C.3       1 <0>        -0.1175
      20  O1         -2.9720   29.9950   53.9220  O.3       1 <0>        -0.5406
      21  C19        -2.3280   28.5060   56.8350  C.3       1 <0>        -0.0709
      22  C20        -2.8370   27.4510   57.8190  C.3       1 <0>        -0.1452
@<TRIPOS>BOND
     1     1     2 1
     2     2     3 1
     3     3     8 ar
     4     3     4 ar
     5     4     5 ar
     6     5     6 ar
     7     6     7 ar
     8     7     8 ar
     9     7    21 1
    10     8     9 1
    11     9    10 1
    12    10    11 1
    13    11    12 1
    14    11    20 1
    15    12    17 ar
    16    12    13 ar
    17    13    14 ar
    18    14    15 ar
    19    15    16 ar
    20    15    19 1
    21    16    17 ar
    22    17    18 1
    23    21    22 1

@<TRIPOS>MOLECULE
ZINC35019129_replica-1.pdb
 19 20 0 0 0
SMALL
GASTEIGER

@<TRIPOS>ATOM
       1  C1          7.5260   37.1320   55.4850  C.3       1 <0>        -0.1554
       2  C2          7.2680   36.6600   56.9170  C.3       1 <0>        -0.1157
       3  C3          7.8470   37.6770   57.9020  C.3       1 <0>        -0.0453
       4  C4          8.6890   38.7030   57.1400  C.3       1 <0>        -0.1455
       5  C5          8.7130   36.9660   58.9100  C.ar      1 <0>        -0.1343
       6  C6          8.9390   37.5370   60.1490  C.ar      1 <0>        -0.0649
       7  C7          9.7320   36.8880   61.0750  C.ar      1 <0>        -0.1937
       8  C8         10.3030   35.6610   60.7600  C.ar      1 <0>         0.2145
       9  C9         10.0740   35.0910   59.5150  C.ar      1 <0>        -0.1968
      10  C10         9.2740   35.7420   58.5950  C.ar      1 <0>        -0.0691
      11  N1         11.1060   35.0030   61.6940  N.pl3     1 <0>        -0.7431
      12  C11        11.4010   33.5770   61.5300  C.3       1 <0>         0.1909
      13  C12        10.2030   32.7500   61.9990  C.3       1 <0>        -0.1644
      14  C13        12.6120   33.2170   62.3520  C.ar      1 <0>        -0.0914
      15  C14        13.6980   34.0720   62.3950  C.ar      1 <0>        -0.1136
      16  C15        14.8080   33.7420   63.1490  C.ar      1 <0>        -0.1160
      17  C16        14.8320   32.5580   63.8610  C.ar      1 <0>        -0.1190
      18  C17        13.7470   31.7040   63.8210  C.ar      1 <0>        -0.1154
      19  C18        12.6350   32.0360   63.0690  C.ar      1 <0>        -0.1098
@<TRIPOS>BOND
     1     1     2 1
     2     2     3 1
     3     3     4 1
     4     3     5 1
     5     5    10 ar
     6     5     6 ar
     7     6     7 ar
     8     7     8 ar
     9     8     9 ar
    10     8    11 1
    11     9    10 ar
    12    11    12 1
    13    12    13 1
    14    12    14 1
    15    14    19 ar
    16    14    15 ar
    17    15    16 ar
    18    16    17 ar
    19    17    18 ar
    20    18    19 ar

@<TRIPOS>MOLECULE
ZINC66154651_replica-1.pdb
 26 27 0 0 0
SMALL
GASTEIGER

@<TRIPOS>ATOM
       1  C1          8.4200   32.5140   58.3670  C.3       1 <0>        -0.1535
       2  C2          8.2550   33.5090   57.2170  C.3       1 <0>        -0.1124
       3  C3          7.0240   34.3820   57.4710  C.3       1 <0>        -0.0464
       4  C4          5.8430   33.8490   56.6580  C.3       1 <0>        -0.1435
       5  C5          7.3210   35.8010   57.0560  C.ar      1 <0>        -0.1066
       6  C6          6.9990   36.2300   55.7830  C.ar      1 <0>        -0.0791
       7  C7          7.2700   37.5310   55.4010  C.ar      1 <0>        -0.1578
       8  C8          7.8650   38.4060   56.2930  C.ar      1 <0>        -0.0855
       9  C9          8.1880   37.9810   57.5660  C.ar      1 <0>        -0.2100
      10  C10         7.9110   36.6780   57.9540  C.ar      1 <0>         0.1350
      11  O1          8.2230   36.2590   59.2080  O.3       1 <0>        -0.2992
      12  C11         7.6210   36.9650   60.2950  C.3       1 <0>         0.0726
      13  C12         6.3250   36.2620   60.7040  C.3       1 <0>        -0.1781
      14  C13         8.5850   36.9900   61.4840  C.3       1 <0>         0.1485
      15  N1          9.9590   36.8330   61.0010  N.pl3     1 <0>        -0.7421
      16  C14        10.8180   35.9240   61.6230  C.ar      1 <0>         0.0107
      17  C15        11.6140   36.3320   62.6850  C.ar      1 <0>        -0.1288
      18  C16        12.4610   35.4300   63.2970  C.ar      1 <0>        -0.1390
      19  C17        12.5170   34.1210   62.8550  C.ar      1 <0>        -0.3058
      20  C18        11.7250   33.7110   61.7980  C.ar      1 <0>        -0.1357
      21  C19        10.8710   34.6070   61.1840  C.ar      1 <0>        -0.1244
      22  N2         13.3760   33.2110   63.4770  N.4       1 <0>        -0.2565
      23  C20        13.1340   31.8640   62.9430  C.3       1 <0>        -0.0136
      24  C21        13.0730   30.8610   64.0970  C.3       1 <0>        -0.1854
      25  C22        14.7710   33.5960   63.2160  C.3       1 <0>        -0.0178
      26  C23        15.4950   33.8200   64.5460  C.3       1 <0>        -0.1655
@<TRIPOS>BOND
     1     1     2 1
     2     2     3 1
     3     3     4 1
     4     3     5 1
     5     5    10 ar
     6     5     6 ar
     7     6     7 ar
     8     7     8 ar
     9     8     9 ar
    10     9    10 ar
    11    10    11 1
    12    11    12 1
    13    12    13 1
    14    12    14 1
    15    14    15 1
    16    15    16 1
    17    16    21 ar
    18    16    17 ar
    19    17    18 ar
    20    18    19 ar
    21    19    20 ar
    22    19    22 1
    23    20    21 ar
    24    22    23 1
    25    22    25 1
    26    23    24 1
    27    25    26 1

@<TRIPOS>MOLECULE
ZINC27528910_replica-1.pdb
 27 29 0 0 0
SMALL
GASTEIGER

@<TRIPOS>ATOM
       1  C1          0.5840   35.7950   56.9240  C.3       1 <0>        -0.1085
       2  C2          2.0570   35.8150   57.2390  C.ar      1 <0>        -0.1498
       3  C3          2.9820   35.6740   56.2190  C.ar      1 <0>        -0.0716
       4  C4          4.3330   35.6930   56.5040  C.ar      1 <0>        -0.1957
       5  C5          4.7640   35.8530   57.8150  C.ar      1 <0>         0.2164
       6  C6          3.8320   35.9940   58.8360  C.ar      1 <0>        -0.1981
       7  C7          2.4820   35.9750   58.5450  C.ar      1 <0>        -0.0719
       8  N1          6.1290   35.8720   58.1060  N.pl3     1 <0>        -0.7607
       9  C8          7.1040   36.1060   57.0370  C.3       1 <0>         0.1339
      10  C9          8.0750   37.2090   57.4650  C.3       1 <0>        -0.0819
      11  C10         8.8710   36.7430   58.6560  C.ar      1 <0>        -0.1412
      12  C11         8.9740   37.5500   59.7740  C.ar      1 <0>        -0.0635
      13  C12         9.6990   37.1240   60.8710  C.ar      1 <0>        -0.1986
      14  C13        10.3330   35.8880   60.8440  C.ar      1 <0>         0.2194
      15  C14        10.2320   35.0820   59.7180  C.ar      1 <0>        -0.1914
      16  C15         9.5010   35.5120   58.6270  C.ar      1 <0>        -0.0636
      17  N2         11.0710   35.4570   61.9490  N.pl3     1 <0>        -0.7566
      18  C16        12.3780   34.8240   61.7540  C.3       1 <0>         0.1627
      19  C17        12.4030   33.4940   62.4610  C.ar      1 <0>        -0.0543
      20  C18        13.5960   32.9850   62.9370  C.ar      1 <0>        -0.0988
      21  C19        13.6170   31.7660   63.5890  C.ar      1 <0>        -0.0552
      22  C20        12.4460   31.0520   63.7580  C.ar      1 <0>        -0.0374
      23  C21        11.2520   31.5580   63.2780  C.ar      1 <0>        -0.0553
      24  C22        11.2310   32.7790   62.6290  C.ar      1 <0>        -0.0988
      25  N3         12.4690   29.7450   64.4520  N.pl3     1 <0>         0.0241
      26  O1         12.0400   28.7520   63.8940  O.2       1 <0>        -0.1546
      27  O2         12.9160   29.6650   65.5820  O.3       1 <0>        -0.1543
@<TRIPOS>BOND
     1     1     2 1
     2     2     7 ar
     3     2     3 ar
     4     3     4 ar
     5     4     5 ar
     6     5     6 ar
     7     5     8 1
     8     6     7 ar
     9     8     9 1
    10     9    10 1
    11    10    11 1
    12    11    16 ar
    13    11    12 ar
    14    12    13 ar
    15    13    14 ar
    16    14    15 ar
    17    14    17 1
    18    15    16 ar
    19    17    18 1
    20    18    19 1
    21    19    24 ar
    22    19    20 ar
    23    20    21 ar
    24    21    22 ar
    25    22    23 ar
    26    22    25 1
    27    23    24 ar
    28    25    26 2
    29    25    27 1

@<TRIPOS>MOLECULE
ZINC36957366_replica-1.pdb
 20 21 0 0 0
SMALL
GASTEIGER

@<TRIPOS>ATOM
       1  C1          8.4140   32.8800   59.9050  C.3       1 <0>        -0.1644
       2  C2          9.1180   34.1830   60.2870  C.3       1 <0>         0.1908
       3  C3         10.3120   33.8740   61.1530  C.ar      1 <0>        -0.0968
       4  C4         10.3830   32.6700   61.8290  C.ar      1 <0>        -0.1079
       5  C5         11.4780   32.3860   62.6230  C.ar      1 <0>        -0.1132
       6  C6         12.5030   33.3070   62.7420  C.ar      1 <0>        -0.0724
       7  C7         12.4320   34.5110   62.0660  C.ar      1 <0>        -0.1106
       8  C8         11.3390   34.7930   61.2680  C.ar      1 <0>        -0.1054
       9  C9         13.6960   32.9980   63.6090  C.3       1 <0>        -0.0591
      10  C10        13.7940   31.4860   63.8220  C.3       1 <0>        -0.1451
      11  C11        14.9680   33.4990   62.9220  C.3       1 <0>        -0.1449
      12  N1          9.5610   34.8730   59.0730  N.pl3     1 <0>        -0.7353
      13  C12         9.0530   36.1400   58.7620  C.ar      1 <0>         0.2417
      14  C13         9.1510   37.1720   59.6810  C.ar      1 <0>        -0.1854
      15  C14         8.6480   38.4230   59.3710  C.ar      1 <0>        -0.0727
      16  C15         8.0460   38.6480   58.1480  C.ar      1 <0>        -0.1613
      17  C16         7.9440   37.6240   57.2250  C.ar      1 <0>        -0.0848
      18  C17         8.4510   36.3670   57.5240  C.ar      1 <0>        -0.1596
      19  S1          8.3280   35.0620   56.3470  S.3       1 <0>        -0.1381
      20  C18         6.8030   35.4320   55.4380  C.3       1 <0>        -0.1354
@<TRIPOS>BOND
     1     1     2 1
     2     2     3 1
     3     2    12 1
     4     3     8 ar
     5     3     4 ar
     6     4     5 ar
     7     5     6 ar
     8     6     7 ar
     9     6     9 1
    10     7     8 ar
    11     9    10 1
    12     9    11 1
    13    12    13 1
    14    13    18 ar
    15    13    14 ar
    16    14    15 ar
    17    15    16 ar
    18    16    17 ar
    19    17    18 ar
    20    18    19 1
    21    19    20 1

@<TRIPOS>MOLECULE
ZINC57656978_replica-1.pdb
 23 24 0 0 0
SMALL
GASTEIGER

@<TRIPOS>ATOM
       1  C1         -1.8370   27.6140   50.6950  C.3       1 <0>        -0.1157
       2  C2         -1.1830   27.3060   52.0190  C.ar      1 <0>        -0.0461
       3  C3         -0.5530   26.0900   52.2110  C.ar      1 <0>        -0.1663
       4  C4          0.0480   25.8040   53.4230  C.ar      1 <0>        -0.0722
       5  C5          0.0190   26.7320   54.4470  C.ar      1 <0>        -0.1577
       6  C6         -0.6130   27.9550   54.2560  C.ar      1 <0>         0.2188
       7  C7         -1.2110   28.2410   53.0350  C.ar      1 <0>        -0.1816
       8  N1         -0.6430   28.8950   55.2870  N.pl3     1 <0>        -0.7486
       9  C8         -1.9160   29.2490   55.9190  C.3       1 <0>         0.1964
      10  C9         -2.0520   30.7730   55.9750  C.3       1 <0>        -0.0262
      11  N2         -0.8710   31.3900   55.3640  N.pl3     1 <0>        -0.0095
      12  O1         -0.8030   31.5090   54.1630  O.2       1 <0>        -0.1453
      13  O2          0.0350   31.7800   56.0630  O.3       1 <0>        -0.1639
      14  C10        -1.9560   28.6900   57.3180  C.ar      1 <0>        -0.1187
      15  C11        -1.2000   29.2740   58.3170  C.ar      1 <0>        -0.0889
      16  C12        -1.2360   28.7610   59.6000  C.ar      1 <0>        -0.1166
      17  C13        -2.0290   27.6650   59.8850  C.ar      1 <0>        -0.0613
      18  C14        -2.7860   27.0820   58.8850  C.ar      1 <0>        -0.1117
      19  C15        -2.7520   27.5970   57.6030  C.ar      1 <0>        -0.1001
      20  C16        -2.0690   27.1060   61.2830  C.3       1 <0>        -0.0608
      21  C17        -2.4640   28.2100   62.2640  C.3       1 <0>        -0.1451
      22  C18        -3.0940   25.9720   61.3500  C.3       1 <0>        -0.1454
      23  C19         0.6730   26.4190   55.7670  C.3       1 <0>        -0.1054
@<TRIPOS>BOND
     1     1     2 1
     2     2     7 ar
     3     2     3 ar
     4     3     4 ar
     5     4     5 ar
     6     5     6 ar
     7     5    23 1
     8     6     7 ar
     9     6     8 1
    10     8     9 1
    11     9    10 1
    12     9    14 1
    13    10    11 1
    14    11    12 2
    15    11    13 1
    16    14    19 ar
    17    14    15 ar
    18    15    16 ar
    19    16    17 ar
    20    17    18 ar
    21    17    20 1
    22    18    19 ar
    23    20    21 1
    24    20    22 1

@<TRIPOS>MOLECULE
ZINC59249413_replica-1.pdb
 27 29 0 0 0
SMALL
GASTEIGER

@<TRIPOS>ATOM
       1  C1          8.4790   38.6050   57.7900  C.3       1 <0>        -0.1565
       2  C2          8.0280   37.1520   57.9550  C.3       1 <0>         0.0090
       3  C3          9.0490   36.3990   58.7690  C.2       1 <0>         0.5049
       4  O1          9.4670   36.8740   59.8110  O.co2     1 <0>        -0.6702
       5  O2          9.4540   35.3150   58.3870  O.co2     1 <0>        -0.6847
       6  O3          6.7660   37.1180   58.6240  O.3       1 <0>        -0.2742
       7  C4          5.8330   36.2610   58.1360  C.ar      1 <0>         0.1724
       8  C5          5.8600   35.8980   56.7950  C.ar      1 <0>        -0.2295
       9  C6          4.9150   35.0300   56.2940  C.ar      1 <0>        -0.0390
      10  C7          3.9270   34.5120   57.1390  C.ar      1 <0>        -0.1492
      11  C8          3.9040   34.8810   58.4890  C.ar      1 <0>        -0.0242
      12  C9          4.8570   35.7460   58.9800  C.ar      1 <0>        -0.1752
      13  C10         2.9150   33.5850   56.6090  C.2       1 <0>         0.2227
      14  N1          2.4170   32.6570   57.3770  N.2       1 <0>        -0.4975
      15  C11         1.4760   31.7950   56.8850  C.ar      1 <0>         0.0626
      16  C12         0.9060   32.0220   55.6290  C.ar      1 <0>        -0.1201
      17  C13        -0.0400   31.1500   55.1370  C.ar      1 <0>        -0.1509
      18  C14        -0.4300   30.0460   55.8870  C.ar      1 <0>         0.1681
      19  C15         0.1350   29.8170   57.1380  C.ar      1 <0>        -0.1535
      20  C16         1.0870   30.6810   57.6340  C.ar      1 <0>        -0.0726
      21  N2         -1.3900   29.1660   55.3850  N.pl3     1 <0>        -0.6845
      22  C17        -1.0880   28.3530   54.2910  C.ar      1 <0>         0.1827
      23  C18        -0.2610   27.2480   54.4520  C.ar      1 <0>        -0.1664
      24  C19         0.0350   26.4450   53.3680  C.ar      1 <0>        -0.0861
      25  C20        -0.4910   26.7390   52.1240  C.ar      1 <0>        -0.1567
      26  C21        -1.3150   27.8380   51.9600  C.ar      1 <0>        -0.0866
      27  C22        -1.6190   28.6420   53.0400  C.ar      1 <0>        -0.1699
@<TRIPOS>BOND
     1     1     2 1
     2     2     3 1
     3     2     6 1
     4     3     4 2
     5     3     5 1
     6     6     7 1
     7     7    12 ar
     8     7     8 ar
     9     8     9 ar
    10     9    10 ar
    11    10    11 ar
    12    10    13 1
    13    11    12 ar
    14    13    14 2
    15    14    15 1
    16    15    20 ar
    17    15    16 ar
    18    16    17 ar
    19    17    18 ar
    20    18    19 ar
    21    18    21 1
    22    19    20 ar
    23    21    22 1
    24    22    27 ar
    25    22    23 ar
    26    23    24 ar
    27    24    25 ar
    28    25    26 ar
    29    26    27 ar

@<TRIPOS>MOLECULE
ZINC40066290_replica-1.pdb
 32 36 0 0 0
SMALL
GASTEIGER

@<TRIPOS>ATOM
       1  C1         -3.0940   28.2120   56.6620  C.3       1 <0>        -0.1245
       2  C2         -2.0110   28.9590   57.3970  C.ar      1 <0>        -0.0235
       3  C3         -1.4630   28.4120   58.5500  C.ar      1 <0>        -0.1387
       4  C4         -0.4810   29.0790   59.2290  C.ar      1 <0>        -0.0337
       5  C5         -0.0320   30.3130   58.7590  C.ar      1 <0>        -0.2151
       6  C6          1.0230   31.0580   59.4910  C.2       1 <0>         0.4563
       7  O1          1.6620   30.5780   60.4100  O.2       1 <0>        -0.4330
       8  C7          1.2240   32.4250   59.0010  C.2       1 <0>        -0.2479
       9  C8          0.6300   32.8550   57.8480  C.2       1 <0>         0.0892
      10  O2         -0.1570   32.0610   57.0970  O.3       1 <0>        -0.1788
      11  C9         -0.5750   30.8730   57.5910  C.ar      1 <0>         0.1442
      12  C10        -1.5730   30.1710   56.9150  C.ar      1 <0>        -0.1023
      13  C11        -2.1780   30.7450   55.6590  C.3       1 <0>        -0.1156
      14  C12         1.0120   34.2610   57.6280  C.2       1 <0>         0.5720
      15  O3          0.6480   34.9410   56.6890  O.2       1 <0>        -0.4842
      16  N1          1.8240   34.6820   58.6200  N.am      1 <0>        -0.5871
      17  C13         2.0190   33.5620   59.5540  C.3       1 <0>         0.2311
      18  C14         3.4790   33.1900   59.6230  C.ar      1 <0>        -0.1035
      19  C15         4.1030   32.6420   58.5180  C.ar      1 <0>        -0.0791
      20  C16         5.4400   32.2990   58.5770  C.ar      1 <0>        -0.0989
      21  C17         6.1570   32.5080   59.7480  C.ar      1 <0>        -0.0722
      22  C18         5.5260   33.0600   60.8570  C.ar      1 <0>        -0.1310
      23  C19         4.1910   33.4040   60.7880  C.ar      1 <0>        -0.0641
      24  S1          7.8620   32.0720   59.8290  S.3       1 <0>        -0.1146
      25  C20         8.0360   30.7470   58.6010  C.3       1 <0>        -0.1451
      26  C21         2.4100   36.0190   58.7430  C.3       1 <0>         0.1805
      27  C22         3.7800   36.0260   58.1160  C.ar      1 <0>        -0.1207
      28  C23         3.9190   35.8120   56.7560  C.ar      1 <0>        -0.0941
      29  C24         5.1750   35.8190   56.1810  C.ar      1 <0>        -0.1216
      30  C25         6.2940   36.0390   56.9630  C.ar      1 <0>        -0.1097
      31  C26         6.1540   36.2530   58.3220  C.ar      1 <0>        -0.1231
      32  C27         4.8970   36.2510   58.8980  C.ar      1 <0>        -0.1010
@<TRIPOS>BOND
     1     1     2 1
     2     2    12 ar
     3     2     3 ar
     4     3     4 ar
     5     4     5 ar
     6     5    11 ar
     7     5     6 1
     8     6     7 2
     9     6     8 1
    10     8    17 1
    11     8     9 2
    12     9    10 1
    13     9    14 1
    14    10    11 1
    15    11    12 ar
    16    12    13 1
    17    14    15 2
    18    14    16 am
    19    16    17 1
    20    16    26 1
    21    17    18 1
    22    18    23 ar
    23    18    19 ar
    24    19    20 ar
    25    20    21 ar
    26    21    22 ar
    27    21    24 1
    28    22    23 ar
    29    24    25 1
    30    26    27 1
    31    27    32 ar
    32    27    28 ar
    33    28    29 ar
    34    29    30 ar
    35    30    31 ar
    36    31    32 ar

@<TRIPOS>MOLECULE
ZINC06941663_replica-1.pdb
 23 24 0 0 0
SMALL
GASTEIGER

@<TRIPOS>ATOM
       1  C1          5.3380   36.4480   55.8020  C.3       1 <0>        -0.1526
       2  C2          6.0510   35.3000   55.0850  C.3       1 <0>         0.0598
       3  O1          7.3070   35.0480   55.7200  O.3       1 <0>        -0.3421
       4  C3          7.2830   34.3240   56.8500  C.2       1 <0>         0.4912
       5  O2          6.5680   33.3540   56.9310  O.2       1 <0>        -0.4802
       6  C4          8.1480   34.7230   58.0180  C.3       1 <0>        -0.0452
       7  C5          7.8680   36.1570   58.3850  C.ar      1 <0>        -0.0970
       8  C6          8.6240   37.1730   57.8290  C.ar      1 <0>        -0.0905
       9  C7          8.3670   38.4890   58.1650  C.ar      1 <0>        -0.1152
      10  C8          7.3540   38.7890   59.0570  C.ar      1 <0>        -0.1045
      11  C9          6.5990   37.7740   59.6110  C.ar      1 <0>        -0.1164
      12  C10         6.8530   36.4590   59.2720  C.ar      1 <0>        -0.0990
      13  S1          7.7790   33.6530   59.4370  S.3       1 <0>        -0.0330
      14  C11         9.2530   33.7000   60.4010  C.ar      1 <0>        -0.0997
      15  C12         9.5990   32.6140   61.1960  C.ar      1 <0>        -0.1343
      16  C13        10.7560   32.6550   61.9510  C.ar      1 <0>        -0.0951
      17  C14        11.5670   33.7740   61.9150  C.ar      1 <0>        -0.0699
      18  C15        11.2240   34.8570   61.1260  C.ar      1 <0>        -0.1029
      19  C16        10.0730   34.8220   60.3640  C.ar      1 <0>        -0.0932
      20  C17        12.8270   33.8140   62.7410  C.3       1 <0>        -0.0297
      21  C18        13.0750   32.4370   63.3600  C.3       1 <0>        -0.1391
      22  C19        14.0110   34.1920   61.8470  C.3       1 <0>        -0.1463
      23  C20        12.6760   34.8540   63.8530  C.3       1 <0>        -0.1393
@<TRIPOS>BOND
     1     1     2 1
     2     2     3 1
     3     3     4 1
     4     4     5 2
     5     4     6 1
     6     6     7 1
     7     6    13 1
     8     7    12 ar
     9     7     8 ar
    10     8     9 ar
    11     9    10 ar
    12    10    11 ar
    13    11    12 ar
    14    13    14 1
    15    14    19 ar
    16    14    15 ar
    17    15    16 ar
    18    16    17 ar
    19    17    18 ar
    20    17    20 1
    21    18    19 ar
    22    20    21 1
    23    20    22 1
    24    20    23 1

@<TRIPOS>MOLECULE
ZINC63492758_replica-1.pdb
 29 32 0 0 0
SMALL
GASTEIGER

@<TRIPOS>ATOM
       1  C1         -1.1330   25.8150   51.3080  C.ar      1 <0>        -0.1191
       2  C2         -0.3820   25.4060   52.3940  C.ar      1 <0>        -0.1155
       3  C3         -0.0940   26.2960   53.4110  C.ar      1 <0>        -0.1131
       4  C4         -0.5570   27.5980   53.3420  C.ar      1 <0>        -0.0769
       5  C5         -1.3080   28.0070   52.2550  C.ar      1 <0>        -0.1150
       6  C6         -1.5960   27.1150   51.2400  C.ar      1 <0>        -0.1176
       7  C7         -0.2440   28.5680   54.4510  C.3       1 <0>        -0.0018
       8  C8         -0.9340   29.9050   54.1680  C.3       1 <0>        -0.1220
       9  C9          0.0310   31.0520   54.4770  C.3       1 <0>         0.1173
      10  N1          0.8380   30.7070   55.6500  N.am      1 <0>        -0.7249
      11  C10         0.6410   31.3500   56.8180  C.2       1 <0>         0.5113
      12  O1         -0.2050   32.2170   56.8970  O.2       1 <0>        -0.5310
      13  C11         1.4710   30.9960   58.0240  C.3       1 <0>        -0.1384
      14  C12         0.6910   30.0250   58.9130  C.3       1 <0>        -0.0786
      15  C13         0.4590   30.6550   60.2620  C.2       1 <0>         0.0742
      16  C14        -0.3860   30.2240   61.2260  C.ar      1 <0>        -0.1741
      17  C15        -1.3090   29.0840   61.3040  C.ar      1 <0>        -0.0091
      18  C16        -2.0410   28.9100   62.4270  C.ar      1 <0>        -0.1539
      19  C17        -1.9440   29.7880   63.5150  C.ar      1 <0>         0.0551
      20  C18        -1.1190   30.8570   63.5180  C.ar      1 <0>        -0.2111
      21  C19        -0.3010   31.1360   62.3900  C.ar      1 <0>         0.3271
      22  N2          0.5630   32.0940   62.1540  N.pl3     1 <0>        -0.5881
      23  C20         1.1300   31.8920   60.8150  C.3       1 <0>         0.0593
      24  C21        -0.7420   28.0130   55.7610  C.ar      1 <0>        -0.0771
      25  C22        -1.9760   28.3980   56.2490  C.ar      1 <0>        -0.1154
      26  C23        -2.4330   27.8890   57.4500  C.ar      1 <0>        -0.1179
      27  C24        -1.6550   26.9950   58.1620  C.ar      1 <0>        -0.1199
      28  C25        -0.4220   26.6090   57.6730  C.ar      1 <0>        -0.1149
      29  C26         0.0330   27.1150   56.4690  C.ar      1 <0>        -0.1129
@<TRIPOS>BOND
     1     1     6 ar
     2     1     2 ar
     3     2     3 ar
     4     3     4 ar
     5     4     5 ar
     6     4     7 1
     7     5     6 ar
     8     7     8 1
     9     7    24 1
    10     8     9 1
    11     9    10 1
    12    10    11 am
    13    11    12 2
    14    11    13 1
    15    13    14 1
    16    14    15 1
    17    15    23 1
    18    15    16 2
    19    16    21 ar
    20    16    17 ar
    21    17    18 ar
    22    18    19 ar
    23    19    20 ar
    24    20    21 ar
    25    21    22 2
    26    22    23 1
    27    24    29 ar
    28    24    25 ar
    29    25    26 ar
    30    26    27 ar
    31    27    28 ar
    32    28    29 ar

@<TRIPOS>MOLECULE
ZINC66183447_replica-1.pdb
 21 22 0 0 0
SMALL
GASTEIGER

@<TRIPOS>ATOM
      1  C7        -3.0940   30.3210   54.3750 C.3     0  <0>0        0.1086
      2  N1        -2.4280   30.7200   55.6170 N.pl3   0  <0>0       -0.3306
      3  H4        -2.1460   31.6400   55.7420 H       0  <0>0        0.1469
      4  C3        -2.1960   29.7750   56.6200 C.ar    0  <0>0        0.0562
      5  C2        -2.9680   28.6230   56.6820 C.ar    0  <0>0        0.0152
      6  C1        -2.7380   27.6900   57.6750 C.ar    0  <0>0        0.0022
      7  C6        -1.7390   27.9010   58.6060 C.ar    0  <0>0        0.0123
      8  C5        -0.9660   29.0480   58.5490 C.ar    0  <0>0        0.0694
      9  C4        -1.1920   29.9860   57.5570 C.ar    0  <0>0        0.0812
     10 Cl          0.2880   29.3100   59.7210 Cl      0  <0>0       -0.0813
     11 Cl         -0.2230   31.4250   57.4850 Cl      0  <0>0       -0.0801
     12  C8        -2.0660   30.2530   53.2440 C.3     0  <0>0        0.1085
     13  N2        -0.9490   29.3960   53.6510 N.pl3   0  <0>0       -0.3313
     14  H9        -0.2940   29.7210   54.2880 H       0  <0>0        0.1469
     15  C9        -0.8270   28.1080   53.1210 C.ar    0  <0>0        0.0448
     16  C14       -0.1020   27.1400   53.8030 C.ar    0  <0>0        0.0166
     17  C13        0.0130   25.8670   53.2800 C.ar    0  <0>0        0.0309
     18  C12       -0.5840   25.5590   52.0700 C.ar    0  <0>0        0.1402
     19  C11       -1.3030   26.5230   51.3850 C.ar    0  <0>0        0.0309
     20  F1        -0.4660   24.3150   51.5570 F       0  <0>0       -0.2042
     21  C10       -1.4260   27.7960   51.9070 C.ar    0  <0>0        0.0166
@<TRIPOS>BOND
     1    19    21   ar
     2    19    18   ar
     3    20    18    1
     4    21    15   ar
     5    18    17   ar
     6    15    13    1
     7    15    16   ar
     8    12    13    1
     9    12     1    1
    10    17    16   ar
    11    13    14    1
    12     1     2    1
    13     2     3    1
    14     2     4    1
    15     4     5   ar
    16     4     9   ar
    17     5     6   ar
    18    11     9    1
    19     9     8   ar
    20     6     7   ar
    21     8     7   ar
    22     8    10    1


@<TRIPOS>MOLECULE
ZINC32230567_replica-1.pdb
 23 24 0 0 0
SMALL
GASTEIGER

@<TRIPOS>ATOM
       1  C1         -0.1580   33.3780   62.7360  C.3       1 <0>        -0.1080
       2  C2          0.2970   32.8690   61.3920  C.ar      1 <0>        -0.1458
       3  C3          0.2730   31.5120   61.1240  C.ar      1 <0>        -0.0753
       4  C4          0.6900   31.0430   59.8950  C.ar      1 <0>        -0.1988
       5  C5          1.1400   31.9340   58.9280  C.ar      1 <0>         0.2186
       6  C6          1.1580   33.2960   59.2000  C.ar      1 <0>        -0.1597
       7  C7          0.7400   33.7590   60.4320  C.ar      1 <0>        -0.0720
       8  C8          1.6400   34.2660   58.1530  C.3       1 <0>        -0.1081
       9  N1          1.5670   31.4610   57.6850  N.pl3     1 <0>        -0.7487
      10  C9          0.6450   30.7120   56.8300  C.3       1 <0>         0.1395
      11  C10         0.3690   31.5100   55.5550  C.3       1 <0>         0.1151
      12  C11        -0.3690   30.6260   54.5480  C.3       1 <0>         0.0282
      13  O1         -0.5600   29.3250   55.1060  O.3       1 <0>        -0.3122
      14  C12        -0.5470   28.2750   54.2430  C.ar      1 <0>         0.1259
      15  C13        -1.1810   28.3780   53.0120  C.ar      1 <0>        -0.2016
      16  C14        -1.1620   27.3130   52.1350  C.ar      1 <0>        -0.0519
      17  C15        -0.5220   26.1380   52.4860  C.ar      1 <0>        -0.1181
      18  C16         0.1050   26.0300   53.7140  C.ar      1 <0>        -0.0797
      19  C17         0.0940   27.0960   54.5920  C.ar      1 <0>        -0.1176
      20  C18         0.7770   26.9770   55.9310  C.3       1 <0>        -0.1040
      21  C19        -0.5080   24.9740   51.5290  C.3       1 <0>        -0.1126
      22  C20        -1.8430   27.4270   50.7960  C.3       1 <0>        -0.1239
      23  O2         -0.4350   32.6480   55.8680  O.3       1 <0>        -0.5906
@<TRIPOS>BOND
     1     1     2 1
     2     2     7 ar
     3     2     3 ar
     4     3     4 ar
     5     4     5 ar
     6     5     6 ar
     7     5     9 1
     8     6     7 ar
     9     6     8 1
    10     9    10 1
    11    10    11 1
    12    11    12 1
    13    11    23 1
    14    12    13 1
    15    13    14 1
    16    14    19 ar
    17    14    15 ar
    18    15    16 ar
    19    16    17 ar
    20    16    22 1
    21    17    18 ar
    22    17    21 1
    23    18    19 ar
    24    19    20 1

@<TRIPOS>MOLECULE
ZINC38646036_replica-1.pdb
 25 27 0 0 0
SMALL
GASTEIGER

@<TRIPOS>ATOM
       1  C1          0.9700   35.1490   58.0390  C.3       1 <0>        -0.1739
       2  C2          1.8360   36.0030   57.1100  C.3       1 <0>         0.1119
       3  N1          3.0580   35.2700   56.7710  N.pl3     1 <0>        -0.6134
       4  C3          2.9790   34.0480   55.9660  C.3       1 <0>         0.1118
       5  C4          3.5350   32.8710   56.7700  C.3       1 <0>        -0.1740
       6  C5          4.2940   35.7350   57.2120  C.ar      1 <0>         0.2662
       7  C6          5.3010   36.0130   56.2900  C.ar      1 <0>        -0.2163
       8  C7          6.5230   36.4740   56.7220  C.ar      1 <0>        -0.0247
       9  C8          6.7550   36.6640   58.0890  C.ar      1 <0>        -0.0354
      10  C9          5.7400   36.3850   59.0110  C.ar      1 <0>         0.0478
      11  C10         4.5180   35.9280   58.5710  C.ar      1 <0>        -0.2160
      12  C11         5.9840   36.5880   60.4850  C.3       1 <0>        -0.1205
      13  N2          7.9660   37.1210   58.5210  N.2       1 <0>        -0.1492
      14  N3          8.9950   36.3430   58.4950  N.2       1 <0>        -0.2216
      15  C12         9.6880   36.0890   59.6460  C.2       1 <0>         0.2218
      16  C13        10.3910   34.9050   59.9420  C.2       1 <0>        -0.2022
      17  C14        10.9440   35.0480   61.1800  C.2       1 <0>         0.1278
      18  N4         10.5970   36.2820   61.6480  N.pl3     1 <0>        -0.4603
      19  N5          9.8190   36.9130   60.6690  N.2       1 <0>        -0.2656
      20  C15        11.7670   34.0430   61.8900  C.ar      1 <0>        -0.0337
      21  C16        13.1260   34.2750   62.1030  C.ar      1 <0>        -0.0900
      22  C17        13.8880   33.3350   62.7660  C.ar      1 <0>        -0.1143
      23  C18        13.3070   32.1640   63.2190  C.ar      1 <0>        -0.1100
      24  C19        11.9600   31.9290   63.0120  C.ar      1 <0>        -0.1145
      25  C20        11.1860   32.8650   62.3560  C.ar      1 <0>        -0.1100
@<TRIPOS>BOND
     1     1     2 1
     2     2     3 1
     3     3     4 1
     4     3     6 1
     5     4     5 1
     6     6    11 ar
     7     6     7 ar
     8     7     8 ar
     9     8     9 ar
    10     9    10 ar
    11     9    13 1
    12    10    11 ar
    13    10    12 1
    14    13    14 2
    15    14    15 1
    16    15    19 2
    17    15    16 1
    18    16    17 2
    19    17    18 1
    20    17    20 1
    21    18    19 1
    22    20    25 ar
    23    20    21 ar
    24    21    22 ar
    25    22    23 ar
    26    23    24 ar
    27    24    25 ar

@<TRIPOS>MOLECULE
ZINC11825738_replica-1.pdb
 27 28 0 0 0
SMALL
GASTEIGER

@<TRIPOS>ATOM
       1  C1         -1.4710   27.5600   57.3270  C.3       1 <0>        -0.1466
       2  C2         -0.2240   27.3560   56.4640  C.3       1 <0>        -0.0171
       3  C3          0.2170   25.8930   56.5450  C.3       1 <0>        -0.1397
       4  C4          0.9020   28.2570   56.9740  C.3       1 <0>        -0.1379
       5  C5         -0.5400   27.7080   55.0330  C.ar      1 <0>        -0.0585
       6  C6         -0.2730   26.8030   54.0240  C.ar      1 <0>        -0.1169
       7  C7         -0.5630   27.1270   52.7070  C.ar      1 <0>         0.0907
       8  C8         -1.1270   28.3580   52.4040  C.ar      1 <0>        -0.1745
       9  C9         -1.3880   29.2650   53.4120  C.ar      1 <0>        -0.1696
      10  C10        -1.0980   28.9400   54.7300  C.ar      1 <0>         0.1075
      11  O1         -1.3600   29.8310   55.7230  O.3       1 <0>        -0.2890
      12  C11        -1.1400   31.2130   55.4310  C.3       1 <0>         0.0653
      13  C12         0.2640   31.6140   55.8840  C.3       1 <0>         0.0312
      14  O2          0.2510   32.9730   56.3270  O.3       1 <0>        -0.2142
      15  C13         0.5400   33.1970   57.6340  C.ar      1 <0>         0.2397
      16  C14         0.4000   32.1790   58.5610  C.ar      1 <0>        -0.2610
      17  C15         0.7020   32.4080   59.8950  C.ar      1 <0>         0.2089
      18  C16         1.1340   33.6640   60.3110  C.ar      1 <0>        -0.2542
      19  C17         1.2710   34.6870   59.4010  C.ar      1 <0>        -0.0046
      20  C18         0.9760   34.4640   58.0510  C.ar      1 <0>        -0.1918
      21  C19         1.1220   35.5540   57.0740  C.2       1 <0>         0.3835
      22  S1          2.6810   36.0950   56.6210  S.2       1 <0>        -0.4998
      23  N1          0.0270   36.1280   56.5360  N.pl3     1 <0>        -0.7790
      24  O3          0.5690   31.4060   60.8000  O.3       1 <0>        -0.3083
      25  C20         1.5530   30.3700   60.7720  C.3       1 <0>         0.0228
      26  O4         -0.3010   26.2360   51.7140  O.3       1 <0>        -0.3190
      27  C21        -0.6840   24.8780   51.9440  C.3       1 <0>         0.0285
@<TRIPOS>BOND
     1     1     2 1
     2     2     3 1
     3     2     4 1
     4     2     5 1
     5     5    10 ar
     6     5     6 ar
     7     6     7 ar
     8     7     8 ar
     9     7    26 1
    10     8     9 ar
    11     9    10 ar
    12    10    11 1
    13    11    12 1
    14    12    13 1
    15    13    14 1
    16    14    15 1
    17    15    20 ar
    18    15    16 ar
    19    16    17 ar
    20    17    18 ar
    21    17    24 1
    22    18    19 ar
    23    19    20 ar
    24    20    21 1
    25    21    22 2
    26    21    23 1
    27    24    25 1
    28    26    27 1

@<TRIPOS>MOLECULE
ZINC02597718_replica-1.pdb
 29 31 0 0 0
SMALL
GASTEIGER

@<TRIPOS>ATOM
       1  C1         11.3120   35.4750   61.7370  C.3       1 <0>        -0.1249
       2  C2         10.3510   35.8690   60.6440  C.ar      1 <0>        -0.0430
       3  C3          9.6790   37.0750   60.7200  C.ar      1 <0>        -0.1329
       4  C4          8.7980   37.4420   59.7240  C.ar      1 <0>        -0.0462
       5  C5          8.5850   36.5910   58.6360  C.ar      1 <0>        -0.1370
       6  C6          9.2640   35.3720   58.5690  C.ar      1 <0>        -0.0553
       7  C7         10.1460   35.0220   59.5700  C.ar      1 <0>        -0.1347
       8  C8          7.6430   36.9760   57.5660  C.2       1 <0>         0.5103
       9  O1          7.5280   38.1430   57.2500  O.2       1 <0>        -0.4839
      10  O2          6.9110   36.0340   56.9410  O.3       1 <0>        -0.2902
      11  C9          5.6030   35.9360   57.2900  C.ar      1 <0>         0.1119
      12  C10         5.2550   35.6990   58.6140  C.ar      1 <0>        -0.1266
      13  C11         3.9280   35.5930   58.9710  C.ar      1 <0>        -0.0621
      14  C12         2.9320   35.7370   58.0020  C.ar      1 <0>        -0.0682
      15  C13         3.2860   35.9820   56.6730  C.ar      1 <0>        -0.0585
      16  C14         4.6150   36.0790   56.3230  C.ar      1 <0>        -0.1214
      17  C15         1.5110   35.6300   58.3810  C.2       1 <0>         0.1617
      18  N1          0.9880   34.4660   58.6170  N.2       1 <0>        -0.2903
      19  N2         -0.1000   34.0190   57.8570  N.pl3     1 <0>        -0.5319
      20  C16         0.0110   32.9020   57.1120  C.2       1 <0>         0.5844
      21  S1          1.5580   32.3190   56.6670  S.2       1 <0>        -0.5862
      22  N3         -1.0970   32.2440   56.7160  N.pl3     1 <0>        -0.6096
      23  C17        -0.9820   31.0210   56.0450  C.ar      1 <0>         0.1086
      24  C18        -0.7120   30.9990   54.6820  C.ar      1 <0>        -0.0913
      25  C19        -0.5910   29.7900   54.0230  C.ar      1 <0>        -0.1472
      26  C20        -0.7530   28.6030   54.7170  C.ar      1 <0>         0.1069
      27  C21        -1.0280   28.6240   56.0740  C.ar      1 <0>        -0.1435
      28  C22        -1.1430   29.8290   56.7380  C.ar      1 <0>        -0.0454
      29  F1         -0.6420   27.4230   54.0690  F         1 <0>        -0.1363
@<TRIPOS>BOND
     1     1     2 1
     2     2     7 ar
     3     2     3 ar
     4     3     4 ar
     5     4     5 ar
     6     5     6 ar
     7     5     8 1
     8     6     7 ar
     9     8     9 2
    10     8    10 1
    11    10    11 1
    12    11    16 ar
    13    11    12 ar
    14    12    13 ar
    15    13    14 ar
    16    14    15 ar
    17    14    17 1
    18    15    16 ar
    19    17    18 2
    20    18    19 1
    21    19    20 1
    22    20    21 2
    23    20    22 1
    24    22    23 1
    25    23    28 ar
    26    23    24 ar
    27    24    25 ar
    28    25    26 ar
    29    26    27 ar
    30    26    29 1
    31    27    28 ar

@<TRIPOS>MOLECULE
ZINC13257863_replica-1.pdb
 26 27 0 0 0
SMALL
GASTEIGER

@<TRIPOS>ATOM
       1  C1          5.1390   36.0680   58.6320  C.ar      1 <0>        -0.0961
       2  C2          3.7950   35.9840   58.9430  C.ar      1 <0>        -0.1613
       3  C3          2.8510   35.9500   57.9310  C.ar      1 <0>         0.0893
       4  C4          3.2540   36.0050   56.6070  C.ar      1 <0>        -0.1575
       5  C5          4.5990   36.0960   56.2990  C.ar      1 <0>        -0.0332
       6  C6          5.5400   36.1300   57.3100  C.ar      1 <0>        -0.0842
       7  C7          7.0050   36.2280   56.9720  C.3       1 <0>         0.2009
       8  C8          7.2850   37.5730   56.3000  C.3       1 <0>        -0.1637
       9  C9          8.0160   38.4730   57.2640  C.2       1 <0>         0.4690
      10  O1          9.1920   38.7030   57.1030  O.co2     1 <0>        -0.6341
      11  N1          7.7980   36.1210   58.1990  N.am      1 <0>        -0.7181
      12  C10         8.5540   35.0280   58.4210  C.2       1 <0>         0.5530
      13  O2          8.5100   34.0910   57.6450  O.2       1 <0>        -0.5231
      14  C11         9.4350   34.9670   59.6020  C.ar      1 <0>        -0.1131
      15  C12         9.7290   33.7340   60.1930  C.ar      1 <0>        -0.0639
      16  C13        10.5530   33.6800   61.2870  C.ar      1 <0>        -0.1275
      17  C14        11.0860   34.8520   61.8180  C.ar      1 <0>        -0.0896
      18  C15        10.7900   36.0820   61.2350  C.ar      1 <0>        -0.0881
      19  C16         9.9720   36.1420   60.1370  C.ar      1 <0>        -0.0403
      20  S1         12.1380   34.7790   63.2300  S.3       1 <0>        -0.0198
      21  C17        13.5580   33.8000   62.6690  C.3       1 <0>         0.4508
      22  F1         14.6430   34.0190   63.5250  F         1 <0>        -0.1621
      23  F2         13.2230   32.4410   62.6810  F         1 <0>        -0.1456
      24  F3         13.9050   34.1820   61.3690  F         1 <0>        -0.1615
      25  F4          1.5370   35.8610   58.2340  F         1 <0>        -0.1470
      26  O3          7.3610   39.0190   58.3000  O.co2     1 <0>        -0.7700
@<TRIPOS>BOND
     1     1     6 ar
     2     1     2 ar
     3     2     3 ar
     4     3     4 ar
     5     3    25 1
     6     4     5 ar
     7     5     6 ar
     8     6     7 1
     9     7     8 1
    10     7    11 1
    11     8     9 1
    12     9    10 2
    13     9    26 1
    14    11    12 am
    15    12    13 2
    16    12    14 1
    17    14    19 ar
    18    14    15 ar
    19    15    16 ar
    20    16    17 ar
    21    17    18 ar
    22    17    20 1
    23    18    19 ar
    24    20    21 1
    25    21    22 1
    26    21    23 1
    27    21    24 1

@<TRIPOS>MOLECULE
ZINC50003079_replica-1.pdb
 20 21 0 0 0
SMALL
GASTEIGER

@<TRIPOS>ATOM
       1  C1         -2.5870   26.4530   59.4170  C.3       1 <0>        -0.1293
       2  C2         -2.3120   27.5900   58.4670  C.ar      1 <0>        -0.0459
       3  C3         -3.0940   27.7520   57.3390  C.ar      1 <0>        -0.1064
       4  C4         -2.8420   28.7950   56.4670  C.ar      1 <0>        -0.0665
       5  C5         -1.8080   29.6750   56.7230  C.ar      1 <0>        -0.1455
       6  C6         -1.0260   29.5130   57.8510  C.ar      1 <0>        -0.1179
       7  C7         -1.2810   28.4730   58.7250  C.ar      1 <0>        -0.1058
       8  C8         -1.5330   30.8110   55.7720  C.3       1 <0>         0.0517
       9  C9         -0.6670   30.3090   54.6150  C.3       1 <0>         0.1131
      10  N1         -1.5270   29.7730   53.5560  N.pl3     1 <0>        -0.6228
      11  C10        -2.6620   30.5610   53.0670  C.3       1 <0>         0.0865
      12  C11        -1.2660   28.5130   53.0150  C.ar      1 <0>         0.1952
      13  C12        -1.7700   28.1740   51.7650  C.ar      1 <0>        -0.1784
      14  C13        -1.5090   26.9270   51.2330  C.ar      1 <0>        -0.0748
      15  C14        -0.7480   26.0160   51.9420  C.ar      1 <0>        -0.1229
      16  C15        -0.2450   26.3500   53.1860  C.ar      1 <0>        -0.0738
      17  C16        -0.4960   27.5970   53.7220  C.ar      1 <0>        -0.1794
      18  C17        -0.4660   24.6560   51.3570  C.3       1 <0>        -0.1146
      19  N2         -0.8250   31.8850   56.4820  N.4       1 <0>        -0.5047
      20  C18         0.5150   32.0540   55.9040  C.3       1 <0>        -0.0527
@<TRIPOS>BOND
     1     1     2 1
     2     2     7 ar
     3     2     3 ar
     4     3     4 ar
     5     4     5 ar
     6     5     6 ar
     7     5     8 1
     8     6     7 ar
     9     8     9 1
    10     8    19 1
    11     9    10 1
    12    10    11 1
    13    10    12 1
    14    12    17 ar
    15    12    13 ar
    16    13    14 ar
    17    14    15 ar
    18    15    16 ar
    19    15    18 1
    20    16    17 ar
    21    19    20 1

@<TRIPOS>MOLECULE
ZINC21012539_replica-1.pdb
 21 22 0 0 0
SMALL
GASTEIGER

@<TRIPOS>ATOM
       1  C1          0.7880   31.3830   59.3050  C.3       1 <0>        -0.1084
       2  C2         -0.0700   30.9710   58.1360  C.ar      1 <0>        -0.1450
       3  C3         -0.1470   31.7810   57.0170  C.ar      1 <0>        -0.0754
       4  C4         -0.9260   31.4040   55.9420  C.ar      1 <0>        -0.1975
       5  C5         -1.6430   30.2150   55.9890  C.ar      1 <0>         0.2206
       6  C6         -1.5640   29.4040   57.1130  C.ar      1 <0>        -0.1605
       7  C7         -0.7770   29.7840   58.1840  C.ar      1 <0>        -0.0721
       8  C8         -2.3360   28.1100   57.1670  C.3       1 <0>        -0.1084
       9  N1         -2.4360   29.8330   54.9050  N.pl3     1 <0>        -0.7524
      10  C9         -1.9300   29.9820   53.5380  C.3       1 <0>         0.1936
      11  C10        -3.0590   30.4570   52.6230  C.3       1 <0>        -0.1642
      12  C11        -1.4110   28.6540   53.0480  C.ar      1 <0>        -0.0535
      13  C12        -1.7660   28.1930   51.7940  C.ar      1 <0>        -0.1373
      14  C13        -1.2870   26.9790   51.3390  C.ar      1 <0>        -0.0756
      15  C14        -0.4620   26.2170   52.1420  C.ar      1 <0>        -0.1900
      16  C15        -0.1030   26.6760   53.4010  C.ar      1 <0>         0.1110
      17  C16        -0.5820   27.8980   53.8540  C.ar      1 <0>        -0.1257
      18  O1          0.7130   25.9310   54.1910  O.3       1 <0>        -0.3190
      19  C17         0.3230   25.7690   55.5560  C.3       1 <0>         0.4093
      20  F1          0.6420   24.4750   55.9830  F         1 <0>        -0.1985
      21  F2          1.0000   26.7020   56.3490  F         1 <0>        -0.1985
@<TRIPOS>BOND
     1     1     2 1
     2     2     7 ar
     3     2     3 ar
     4     3     4 ar
     5     4     5 ar
     6     5     6 ar
     7     5     9 1
     8     6     7 ar
     9     6     8 1
    10     9    10 1
    11    10    11 1
    12    10    12 1
    13    12    17 ar
    14    12    13 ar
    15    13    14 ar
    16    14    15 ar
    17    15    16 ar
    18    16    17 ar
    19    16    18 1
    20    18    19 1
    21    19    20 1
    22    19    21 1

@<TRIPOS>MOLECULE
ZINC48430008_replica-1.pdb
 20 21 0 0 0
SMALL
GASTEIGER

@<TRIPOS>ATOM
      1  S1         7.3640   36.8670   59.4680 S.O2    0  <0>0        0.0936
      2  O1         7.1650   35.7580   60.3340 O.2     0  <0>0       -0.1483
      3  O2         6.7400   38.1240   59.6850 O.2     0  <0>0       -0.1483
      4  N1         8.9960   37.1490   59.4290 N.pl3   0  <0>0       -0.0965
      5  C6         9.8490   36.4260   60.2670 C.ar    0  <0>0        0.0910
      6  C5        10.2470   36.9630   61.4850 C.ar    0  <0>0        0.0177
      7  C4        11.0900   36.2460   62.3110 C.ar    0  <0>0       -0.0029
      8  C3        11.5370   34.9960   61.9270 C.ar    0  <0>0       -0.0221
      9  C8        11.1470   34.4600   60.7130 C.ar    0  <0>0       -0.0029
     10  C7        10.3000   35.1690   59.8850 C.ar    0  <0>0        0.0177
     11  C2        12.4580   34.2160   62.8310 C.3     0  <0>0        0.0264
     12  C1        13.8170   34.0430   62.1480 C.3     0  <0>0        0.0050
     13  C9         6.8880   36.3390   57.8560 C.ar    0  <0>0        0.1377
     14  C14        5.5720   35.9990   57.6010 C.ar    0  <0>0        0.0788
     15  C13        5.1960   35.5890   56.3340 C.ar    0  <0>0        0.0424
     16 Cl          4.3900   36.0940   58.8690 Cl      0  <0>0       -0.0808
     17  C12        6.1410   35.5100   55.3250 C.ar    0  <0>0        0.1411
     18  C11        7.4590   35.8450   55.5840 C.ar    0  <0>0        0.0311
     19  F1         5.7760   35.1050   54.0890 F       0  <0>0       -0.2041
     20  C10        7.8310   36.2590   56.8480 C.ar    0  <0>0        0.0234
@<TRIPOS>BOND
     1    19    17    1
     2    17    18   ar
     3    17    15   ar
     4    18    20   ar
     5    15    14   ar
     6    20    13   ar
     7    14    13   ar
     8    14    16    1
     9    13     1    1
    10     4     1    1
    11     4     5    1
    12     1     3    2
    13     1     2    2
    14    10     5   ar
    15    10     9   ar
    16     5     6   ar
    17     9     8   ar
    18     6     7   ar
    19     8     7   ar
    20     8    11    1
    21    12    11    1


@<TRIPOS>MOLECULE
ZINC46078225_replica-1.pdb
 26 28 0 0 0
SMALL
GASTEIGER

@<TRIPOS>ATOM
       1  C1          3.5430   35.8510   58.8720  C.3       1 <0>        -0.2018
       2  C2          4.9130   35.5590   59.4890  C.3       1 <0>        -0.0962
       3  C3          5.9090   36.5840   59.0100  C.ar      1 <0>        -0.0417
       4  C4          6.0930   37.7540   59.7210  C.ar      1 <0>        -0.1153
       5  C5          7.0060   38.6940   59.2820  C.ar      1 <0>        -0.0820
       6  C6          7.7380   38.4670   58.1300  C.ar      1 <0>        -0.1172
       7  C7          7.5580   37.2990   57.4150  C.ar      1 <0>        -0.0491
       8  C8          6.6460   36.3500   57.8570  C.ar      1 <0>         0.1011
       9  N1          6.4660   35.1600   57.1370  N.pl3     1 <0>        -0.3157
      10  C9          7.0720   33.9720   57.3520  C.2       1 <0>         0.2578
      11  N2          6.6160   33.1370   56.4550  N.2       1 <0>        -0.3263
      12  N3          5.7630   33.7150   55.6890  N.2       1 <0>        -0.0323
      13  N4          5.6110   34.9460   56.0410  N.2       1 <0>        -0.0675
      14  C10         8.0850   33.6670   58.4240  C.3       1 <0>         0.2740
      15  C11         7.4170   33.7510   59.7980  C.3       1 <0>        -0.2127
      16  C12         8.6420   32.2570   58.2140  C.3       1 <0>        -0.1627
      17  C13         8.1310   31.3360   59.3230  C.3       1 <0>        -0.1532
      18  N5          9.1790   34.6380   58.3520  N.pl3     1 <0>        -0.7315
      19  C14         9.8220   35.0540   59.5200  C.ar      1 <0>         0.2180
      20  C15        10.6930   34.1950   60.1790  C.ar      1 <0>        -0.2087
      21  C16        11.3290   34.6090   61.3330  C.ar      1 <0>        -0.0737
      22  C17        11.0970   35.8770   61.8340  C.ar      1 <0>        -0.1422
      23  C18        10.2300   36.7340   61.1810  C.ar      1 <0>        -0.0703
      24  C19         9.5960   36.3290   60.0240  C.ar      1 <0>        -0.1854
      25  C20        11.7910   36.3260   63.0950  C.3       1 <0>        -0.1083
      26  C21         8.3550   37.0530   56.1610  C.3       1 <0>        -0.1343
@<TRIPOS>BOND
     1     1     2 1
     2     2     3 1
     3     3     8 ar
     4     3     4 ar
     5     4     5 ar
     6     5     6 ar
     7     6     7 ar
     8     7     8 ar
     9     7    26 1
    10     8     9 1
    11     9    13 1
    12     9    10 1
    13    10    11 2
    14    10    14 1
    15    11    12 1
    16    12    13 2
    17    14    15 1
    18    14    16 1
    19    14    18 1
    20    16    17 1
    21    18    19 1
    22    19    24 ar
    23    19    20 ar
    24    20    21 ar
    25    21    22 ar
    26    22    23 ar
    27    22    25 1
    28    23    24 ar

@<TRIPOS>MOLECULE
ZINC37198416_replica-1.pdb
 21 23 0 0 0
SMALL
GASTEIGER

@<TRIPOS>ATOM
       1  C1         -2.0910   24.1300   59.6100  C.3       1 <0>         0.0264
       2  O1         -2.2100   25.5430   59.7820  O.3       1 <0>        -0.3175
       3  C2         -1.8930   26.3240   58.7160  C.ar      1 <0>         0.1311
       4  C3         -0.6690   26.1690   58.0810  C.ar      1 <0>        -0.2060
       5  C4         -0.3490   26.9650   56.9980  C.ar      1 <0>        -0.0672
       6  C5         -1.2470   27.9150   56.5460  C.ar      1 <0>        -0.1387
       7  C6         -2.4660   28.0710   57.1780  C.ar      1 <0>        -0.0586
       8  C7         -2.7940   27.2740   58.2570  C.ar      1 <0>        -0.1516
       9  C8         -0.8950   28.7810   55.3650  C.3       1 <0>         0.2292
      10  C9         -0.2870   30.0960   55.8590  C.3       1 <0>        -0.1660
      11  C10        -1.2510   31.2210   56.2390  C.3       1 <0>        -0.1642
      12  C11        -0.4260   31.3220   54.9540  C.3       1 <0>        -0.1705
      13  N1          0.0750   28.0820   54.5190  N.pl3     1 <0>        -0.7270
      14  C12        -0.3640   27.3500   53.4110  C.ar      1 <0>         0.2237
      15  C13        -1.1060   27.9720   52.4160  C.ar      1 <0>        -0.2114
      16  C14        -1.5380   27.2440   51.3220  C.ar      1 <0>         0.1409
      17  C15        -1.2310   25.8980   51.2170  C.ar      1 <0>        -0.1866
      18  C16        -0.4920   25.2760   52.2070  C.ar      1 <0>        -0.0751
      19  C17        -0.0520   25.9980   53.3010  C.ar      1 <0>         0.0096
      20  F1          0.6740   25.3910   54.2640  F         1 <0>        -0.1391
      21  F2         -2.2610   27.8480   50.3530  F         1 <0>        -0.1342
@<TRIPOS>BOND
     1     1     2 1
     2     2     3 1
     3     3     8 ar
     4     3     4 ar
     5     4     5 ar
     6     5     6 ar
     7     6     7 ar
     8     6     9 1
     9     7     8 ar
    10     9    10 1
    11     9    13 1
    12    10    12 1
    13    10    11 1
    14    11    12 1
    15    13    14 1
    16    14    19 ar
    17    14    15 ar
    18    15    16 ar
    19    16    17 ar
    20    16    21 1
    21    17    18 ar
    22    18    19 ar
    23    19    20 1

@<TRIPOS>MOLECULE
CHEMBL441373_replica-1.pdb
 27 30 0 0 0
SMALL
GASTEIGER

@<TRIPOS>ATOM
       1  C1         -0.5840   24.8430   51.7630  C.ar      1 <0>        -0.1173
       2  C2         -1.2790   25.8380   51.1010  C.ar      1 <0>        -0.1171
       3  C3         -1.3840   27.0980   51.6560  C.ar      1 <0>        -0.1088
       4  C4         -0.7880   27.3640   52.8870  C.ar      1 <0>        -0.0473
       5  C5         -0.0890   26.3580   53.5500  C.ar      1 <0>        -0.1104
       6  C6          0.0100   25.1020   52.9850  C.ar      1 <0>        -0.1176
       7  C7         -0.8960   28.7160   53.4880  C.ar      1 <0>        -0.0251
       8  C8         -2.0440   29.4820   53.2870  C.ar      1 <0>        -0.1225
       9  C9         -2.1430   30.7390   53.8470  C.ar      1 <0>        -0.0959
      10  C10        -1.1070   31.2440   54.6090  C.ar      1 <0>        -0.1181
      11  C11         0.0410   30.4880   54.8160  C.ar      1 <0>         0.1467
      12  C12         0.1460   29.2220   54.2610  C.ar      1 <0>        -0.1353
      13  N1          1.0880   31.0030   55.5880  N.am      1 <0>        -0.6701
      14  C13         0.9970   31.0040   56.9330  C.2       1 <0>         0.5278
      15  O1          0.0520   30.4730   57.4770  O.2       1 <0>        -0.5080
      16  C14         2.0690   31.6650   57.7610  C.3       1 <0>        -0.1235
      17  C15         1.4470   32.5200   58.8900  C.3       1 <0>        -0.1479
      18  C16         2.3530   33.7280   58.9820  C.2       1 <0>         0.5212
      19  O2          2.3860   34.5010   59.9170  O.2       1 <0>        -0.5196
      20  N2          3.1160   33.8190   57.8800  N.am      1 <0>        -0.6155
      21  C17         2.8240   32.7330   56.9370  C.3       1 <0>         0.1165
      22  C18         4.1110   34.8690   57.6470  C.3       1 <0>         0.1616
      23  C19         4.0870   35.2770   56.1730  C.3       1 <0>        -0.1335
      24  C20         5.1260   36.3730   55.9290  C.3       1 <0>        -0.1150
      25  C21         6.5160   35.8470   56.2890  C.3       1 <0>        -0.1232
      26  C22         6.5400   35.4390   57.7640  C.3       1 <0>        -0.1150
      27  C23         5.5010   34.3430   58.0070  C.3       1 <0>        -0.1347
@<TRIPOS>BOND
     1     1     6 ar
     2     1     2 ar
     3     2     3 ar
     4     3     4 ar
     5     4     5 ar
     6     4     7 1
     7     5     6 ar
     8     7    12 ar
     9     7     8 ar
    10     8     9 ar
    11     9    10 ar
    12    10    11 ar
    13    11    12 ar
    14    11    13 1
    15    13    14 am
    16    14    15 2
    17    14    16 1
    18    16    21 1
    19    16    17 1
    20    17    18 1
    21    18    19 2
    22    18    20 am
    23    20    21 1
    24    20    22 1
    25    22    27 1
    26    22    23 1
    27    23    24 1
    28    24    25 1
    29    25    26 1
    30    26    27 1

@<TRIPOS>MOLECULE
ZINC49897647_replica-1.pdb
 22 24 0 0 0
SMALL
GASTEIGER

@<TRIPOS>ATOM
       1  C1         12.5880   29.4360   64.3220  C.3       1 <0>        -0.1068
       2  C2         12.4760   30.8190   63.7340  C.ar      1 <0>        -0.1421
       3  C3         11.2390   31.3140   63.3660  C.ar      1 <0>        -0.0771
       4  C4         11.1330   32.5810   62.8270  C.ar      1 <0>        -0.1899
       5  C5         12.2720   33.3590   62.6550  C.ar      1 <0>         0.2108
       6  C6         13.5120   32.8580   63.0260  C.ar      1 <0>        -0.1603
       7  C7         13.6100   31.5920   63.5690  C.ar      1 <0>        -0.0740
       8  C8         14.7510   33.6970   62.8410  C.3       1 <0>        -0.1050
       9  N1         12.1680   34.6400   62.1100  N.pl3     1 <0>        -0.7503
      10  C9         11.1000   34.9460   61.1550  C.3       1 <0>         0.1284
      11  C10        10.5780   36.3620   61.4100  C.3       1 <0>        -0.1577
      12  C11         9.0570   36.3820   61.2440  C.3       1 <0>         0.1557
      13  C12         8.7100   36.8580   59.8560  C.ar      1 <0>        -0.1177
      14  C13         8.3310   38.1710   59.6500  C.ar      1 <0>        -0.1113
      15  C14         8.0140   38.6050   58.3780  C.ar      1 <0>        -0.1034
      16  C15         8.0730   37.7290   57.3080  C.ar      1 <0>        -0.0950
      17  C16         8.4510   36.4160   57.5140  C.ar      1 <0>        -0.0938
      18  C17         8.7750   35.9830   58.7900  C.ar      1 <0>        -0.0965
      19  C18         8.4360   35.6660   56.1990  C.3       1 <0>        -0.0846
      20  C19         7.5940   36.5390   55.2460  C.3       1 <0>        -0.1214
      21  C20         7.7790   37.9520   55.8400  C.3       1 <0>        -0.0851
      22  O1          8.4840   37.2660   62.2080  O.3       1 <0>        -0.5512
@<TRIPOS>BOND
     1     1     2 1
     2     2     7 ar
     3     2     3 ar
     4     3     4 ar
     5     4     5 ar
     6     5     6 ar
     7     5     9 1
     8     6     7 ar
     9     6     8 1
    10     9    10 1
    11    10    11 1
    12    11    12 1
    13    12    13 1
    14    12    22 1
    15    13    18 ar
    16    13    14 ar
    17    14    15 ar
    18    15    16 ar
    19    16    21 1
    20    16    17 ar
    21    17    18 ar
    22    17    19 1
    23    19    20 1
    24    20    21 1

@<TRIPOS>MOLECULE
ZINC31980001_replica-1.pdb
 20 21 0 0 0
SMALL
GASTEIGER

@<TRIPOS>ATOM
       1  C1         11.5200   36.6570   62.6440  C.3       1 <0>        -0.1734
       2  C2         10.9950   35.4340   61.8900  C.3       1 <0>         0.1352
       3  C3         10.2300   35.8840   60.6730  C.ar      1 <0>        -0.1459
       4  C4          9.6580   37.1420   60.6430  C.ar      1 <0>        -0.0436
       5  C5          8.9600   37.5580   59.5260  C.ar      1 <0>        -0.1961
       6  C6          8.8220   36.7070   58.4370  C.ar      1 <0>         0.2164
       7  C7          9.3930   35.4410   58.4730  C.ar      1 <0>        -0.1948
       8  C8         10.0940   35.0330   59.5910  C.ar      1 <0>        -0.0604
       9  N1          8.1120   37.1230   57.3080  N.pl3     1 <0>        -0.6381
      10  C9          7.3360   36.1520   56.5330  C.3       1 <0>         0.0921
      11  C10         8.1430   38.5300   56.9010  C.3       1 <0>         0.0919
      12  O1         12.0960   34.6160   61.4840  O.3       1 <0>        -0.3145
      13  C11        12.3500   33.5080   62.2300  C.ar      1 <0>         0.0764
      14  C12        11.3140   32.6490   62.5680  C.ar      1 <0>        -0.1035
      15  C13        11.5720   31.5200   63.3210  C.ar      1 <0>        -0.1615
      16  C14        12.8650   31.2510   63.7490  C.ar      1 <0>         0.1826
      17  C15        13.9000   32.1140   63.4150  C.ar      1 <0>        -0.1584
      18  C16        13.6420   33.2400   62.6570  C.ar      1 <0>        -0.1612
      19  N2         13.1250   30.1100   64.5160  N.pl3     1 <0>        -0.7675
      20  C17        12.0960   29.0790   64.6670  C.3       1 <0>         0.0955
@<TRIPOS>BOND
     1     1     2 1
     2     2     3 1
     3     2    12 1
     4     3     8 ar
     5     3     4 ar
     6     4     5 ar
     7     5     6 ar
     8     6     7 ar
     9     6     9 1
    10     7     8 ar
    11     9    10 1
    12     9    11 1
    13    12    13 1
    14    13    18 ar
    15    13    14 ar
    16    14    15 ar
    17    15    16 ar
    18    16    17 ar
    19    16    19 1
    20    17    18 ar
    21    19    20 1

@<TRIPOS>MOLECULE
ZINC35181348_replica-1.pdb
 21 22 0 0 0
SMALL
GASTEIGER

@<TRIPOS>ATOM
       1  C1         -0.1480   25.2130   59.1540  C.3       1 <0>        -0.1535
       2  C2         -0.4650   26.2340   60.2480  C.3       1 <0>         0.0546
       3  O1         -1.7570   26.7970   60.0150  O.3       1 <0>        -0.3159
       4  C3         -1.8820   27.6390   58.9540  C.ar      1 <0>         0.0969
       5  C4         -1.0630   28.7540   58.8540  C.ar      1 <0>        -0.1689
       6  C5         -1.1900   29.6090   57.7770  C.ar      1 <0>        -0.1713
       7  C6         -2.1350   29.3530   56.7940  C.ar      1 <0>         0.0908
       8  C7         -2.9530   28.2370   56.8950  C.ar      1 <0>        -0.1060
       9  C8         -2.8240   27.3790   57.9700  C.ar      1 <0>        -0.1102
      10  O2         -2.2610   30.1950   55.7340  O.3       1 <0>        -0.2900
      11  C9         -2.4140   29.5980   54.4460  C.3       1 <0>         0.0421
      12  C10        -3.0890   30.5920   53.4990  C.3       1 <0>        -0.1787
      13  C11        -1.0580   29.2260   53.9010  C.2       1 <0>         0.4018
      14  O3         -0.1290   29.9970   54.0090  O.2       1 <0>        -0.4186
      15  C12        -0.8640   27.9270   53.2390  C.ar      1 <0>        -0.1776
      16  C13        -0.1390   26.9150   53.8770  C.ar      1 <0>        -0.0478
      17  C14         0.0400   25.7010   53.2510  C.ar      1 <0>        -0.1637
      18  C15        -0.4970   25.4810   51.9910  C.ar      1 <0>         0.1357
      19  C16        -1.2170   26.4800   51.3540  C.ar      1 <0>        -0.1630
      20  C17        -1.4080   27.6980   51.9710  C.ar      1 <0>        -0.0268
      21  F1         -0.3170   24.2880   51.3820  F         1 <0>        -0.1299
@<TRIPOS>BOND
     1     1     2 1
     2     2     3 1
     3     3     4 1
     4     4     9 ar
     5     4     5 ar
     6     5     6 ar
     7     6     7 ar
     8     7     8 ar
     9     7    10 1
    10     8     9 ar
    11    10    11 1
    12    11    12 1
    13    11    13 1
    14    13    14 2
    15    13    15 1
    16    15    20 ar
    17    15    16 ar
    18    16    17 ar
    19    17    18 ar
    20    18    19 ar
    21    18    21 1
    22    19    20 ar

@<TRIPOS>MOLECULE
ZINC57671447_replica-1.pdb
 21 22 0 0 0
SMALL
GASTEIGER

@<TRIPOS>ATOM
       1  C1         -0.1960   26.1590   56.8410  C.3       1 <0>        -0.1525
       2  C2          0.6170   26.3810   55.5630  C.3       1 <0>        -0.1315
       3  C3          0.1660   27.6790   54.8910  C.3       1 <0>         0.2050
       4  C4         -0.4360   27.3670   53.5470  C.ar      1 <0>        -0.0829
       5  C5         -0.2530   26.1200   52.9800  C.ar      1 <0>        -0.1126
       6  C6         -0.8050   25.8330   51.7460  C.ar      1 <0>        -0.1184
       7  C7         -1.5400   26.7940   51.0770  C.ar      1 <0>        -0.1254
       8  C8         -1.7230   28.0420   51.6430  C.ar      1 <0>        -0.1178
       9  C9         -1.1750   28.3270   52.8800  C.ar      1 <0>        -0.1140
      10  N1         -0.8320   28.3430   55.7320  N.pl3     1 <0>        -0.7364
      11  C10        -0.5510   29.5880   56.3000  C.ar      1 <0>         0.0113
      12  C11        -0.2110   29.6800   57.6430  C.ar      1 <0>        -0.1289
      13  C12         0.0680   30.9120   58.2020  C.ar      1 <0>        -0.1373
      14  C13         0.0080   32.0540   57.4250  C.ar      1 <0>        -0.3009
      15  C14        -0.3310   31.9670   56.0860  C.ar      1 <0>        -0.1405
      16  C15        -0.6040   30.7370   55.5200  C.ar      1 <0>        -0.1258
      17  N2          0.2890   33.3000   57.9920  N.4       1 <0>        -0.2592
      18  C16         1.0050   33.1110   59.2600  C.3       1 <0>        -0.0137
      19  C17         0.3430   33.9550   60.3510  C.3       1 <0>        -0.1633
      20  C18         1.1230   34.0820   57.0690  C.3       1 <0>        -0.0138
      21  C19         0.6220   35.5270   57.0290  C.3       1 <0>        -0.1632
@<TRIPOS>BOND
     1     1     2 1
     2     2     3 1
     3     3     4 1
     4     3    10 1
     5     4     9 ar
     6     4     5 ar
     7     5     6 ar
     8     6     7 ar
     9     7     8 ar
    10     8     9 ar
    11    10    11 1
    12    11    16 ar
    13    11    12 ar
    14    12    13 ar
    15    13    14 ar
    16    14    15 ar
    17    14    17 1
    18    15    16 ar
    19    17    18 1
    20    17    20 1
    21    18    19 1
    22    20    21 1

@<TRIPOS>MOLECULE
ZINC66170284_replica-1.pdb
 24 26 0 0 0
SMALL
GASTEIGER

@<TRIPOS>ATOM
       1  C1         14.5810   33.7080   62.8970  C.ar      1 <0>        -0.1319
       2  C2         14.6620   32.4970   63.5610  C.ar      1 <0>        -0.0821
       3  C3         13.5420   31.6970   63.6760  C.ar      1 <0>        -0.1571
       4  C4         12.3380   32.1060   63.1250  C.ar      1 <0>         0.1156
       5  C5         12.2590   33.3180   62.4620  C.ar      1 <0>        -0.1438
       6  C6         13.3800   34.1180   62.3480  C.ar      1 <0>        -0.0721
       7  C7         10.9510   33.7650   61.8620  C.3       1 <0>         0.1709
       8  N1         11.0500   35.1720   61.4670  N.pl3     1 <0>        -0.7463
       9  C8         10.2700   35.6590   60.4120  C.ar      1 <0>         0.1827
      10  C9         10.0570   34.8760   59.2860  C.ar      1 <0>        -0.1574
      11  C10         9.2860   35.3580   58.2460  C.ar      1 <0>        -0.1027
      12  C11         8.7250   36.6240   58.3270  C.ar      1 <0>         0.0745
      13  C12         8.9380   37.4070   59.4510  C.ar      1 <0>        -0.1584
      14  C13         9.7040   36.9250   60.4940  C.ar      1 <0>        -0.1544
      15  O1          7.9660   37.0970   57.3020  O.3       1 <0>        -0.3195
      16  C14         7.3430   36.1280   56.4550  C.3       1 <0>         0.0606
      17  C15         5.9970   36.6680   55.9670  C.3       1 <0>        -0.1144
      18  C16         4.8640   35.8830   56.6300  C.3       1 <0>        -0.0833
      19  C17         3.5220   36.3380   56.0520  C.3       1 <0>        -0.1192
      20  C18         2.3880   35.5530   56.7140  C.3       1 <0>        -0.1205
      21  C19         2.4060   35.8070   58.2230  C.3       1 <0>        -0.1213
      22  C20         3.7480   35.3530   58.8020  C.3       1 <0>        -0.1203
      23  C21         4.8810   36.1380   58.1390  C.3       1 <0>        -0.1135
      24  F1         11.2430   31.3230   63.2370  F         1 <0>        -0.1328
@<TRIPOS>BOND
     1     1     6 ar
     2     1     2 ar
     3     2     3 ar
     4     3     4 ar
     5     4     5 ar
     6     4    24 1
     7     5     6 ar
     8     5     7 1
     9     7     8 1
    10     8     9 1
    11     9    14 ar
    12     9    10 ar
    13    10    11 ar
    14    11    12 ar
    15    12    13 ar
    16    12    15 1
    17    13    14 ar
    18    15    16 1
    19    16    17 1
    20    17    18 1
    21    18    23 1
    22    18    19 1
    23    19    20 1
    24    20    21 1
    25    21    22 1
    26    22    23 1

@<TRIPOS>MOLECULE
ZINC32117472_replica-1.pdb
 20 21 0 0 0
SMALL
GASTEIGER

@<TRIPOS>ATOM
       1  C1         -0.4700   24.6820   51.5080  C.3       1 <0>        -0.1079
       2  C2         -0.7340   26.0790   52.0070  C.ar      1 <0>        -0.1510
       3  C3         -1.5170   26.9410   51.2610  C.ar      1 <0>        -0.0708
       4  C4         -1.7610   28.2220   51.7170  C.ar      1 <0>        -0.1951
       5  C5         -1.2200   28.6440   52.9240  C.ar      1 <0>         0.2182
       6  C6         -0.4290   27.7770   53.6680  C.ar      1 <0>        -0.2006
       7  C7         -0.1930   26.4960   53.2100  C.ar      1 <0>        -0.0708
       8  N1         -1.4640   29.9390   53.3870  N.pl3     1 <0>        -0.7522
       9  C8         -0.6590   30.4920   54.4780  C.3       1 <0>         0.1445
      10  C9         -1.5790   30.9370   55.6170  C.3       1 <0>         0.1530
      11  C10        -1.8230   29.7780   56.5490  C.ar      1 <0>        -0.1337
      12  C11        -1.0010   29.5860   57.6430  C.ar      1 <0>        -0.1049
      13  C12        -1.2250   28.5230   58.4970  C.ar      1 <0>        -0.1198
      14  C13        -2.2720   27.6530   58.2580  C.ar      1 <0>        -0.0686
      15  C14        -3.0920   27.8430   57.1610  C.ar      1 <0>        -0.1167
      16  C15        -2.8710   28.9080   56.3090  C.ar      1 <0>        -0.0934
      17  C16        -2.5170   26.4940   59.1900  C.3       1 <0>        -0.0601
      18  C17        -2.5010   26.9910   60.6370  C.3       1 <0>        -0.1461
      19  C18        -1.4190   25.4440   58.9980  C.3       1 <0>        -0.1464
      20  O1         -0.9610   32.0050   56.3380  O.3       1 <0>        -0.5891
@<TRIPOS>BOND
     1     1     2 1
     2     2     7 ar
     3     2     3 ar
     4     3     4 ar
     5     4     5 ar
     6     5     6 ar
     7     5     8 1
     8     6     7 ar
     9     8     9 1
    10     9    10 1
    11    10    11 1
    12    10    20 1
    13    11    16 ar
    14    11    12 ar
    15    12    13 ar
    16    13    14 ar
    17    14    15 ar
    18    14    17 1
    19    15    16 ar
    20    17    18 1
    21    17    19 1

@<TRIPOS>MOLECULE
ZINC49880936_replica-1.pdb
 21 22 0 0 0
SMALL
GASTEIGER

@<TRIPOS>ATOM
       1  C1         -0.6260   24.5390   51.7130  C.3       1 <0>        -0.1555
       2  C2         -0.1960   26.0070   51.6510  C.3       1 <0>        -0.1161
       3  C3         -1.3850   26.9020   52.0050  C.3       1 <0>        -0.0552
       4  C4         -1.8690   27.6290   50.7490  C.3       1 <0>        -0.1465
       5  C5         -0.9620   27.9140   53.0380  C.ar      1 <0>        -0.0690
       6  C6         -1.5120   29.1820   53.0310  C.ar      1 <0>        -0.1112
       7  C7         -1.1240   30.1100   53.9780  C.ar      1 <0>        -0.1030
       8  C8         -0.1840   29.7700   54.9340  C.ar      1 <0>        -0.1238
       9  C9          0.3660   28.5020   54.9430  C.ar      1 <0>        -0.1059
      10  C10        -0.0260   27.5730   53.9970  C.ar      1 <0>        -0.1138
      11  C11         0.2410   30.7820   55.9670  C.3       1 <0>         0.1411
      12  C12         0.3530   30.1010   57.3320  C.3       1 <0>         0.1000
      13  N1         -0.9780   29.9960   57.9370  N.pl3     1 <0>        -0.7436
      14  C13        -1.4450   28.7600   58.3880  C.ar      1 <0>         0.2154
      15  C14        -0.8850   28.1740   59.5170  C.ar      1 <0>        -0.1965
      16  C15        -1.3490   26.9510   59.9610  C.ar      1 <0>        -0.0777
      17  C16        -2.3700   26.3090   59.2820  C.ar      1 <0>        -0.1755
      18  C17        -2.9290   26.8900   58.1590  C.ar      1 <0>        -0.0740
      19  C18        -2.4730   28.1160   57.7140  C.ar      1 <0>        -0.1620
      20  C19        -3.0890   28.7510   56.4920  C.3       1 <0>        -0.1068
      21  O1          1.5090   31.3310   55.6030  O.3       1 <0>        -0.5500
@<TRIPOS>BOND
     1     1     2 1
     2     2     3 1
     3     3     4 1
     4     3     5 1
     5     5    10 ar
     6     5     6 ar
     7     6     7 ar
     8     7     8 ar
     9     8     9 ar
    10     8    11 1
    11     9    10 ar
    12    11    12 1
    13    11    21 1
    14    12    13 1
    15    13    14 1
    16    14    19 ar
    17    14    15 ar
    18    15    16 ar
    19    16    17 ar
    20    17    18 ar
    21    18    19 ar
    22    19    20 1

@<TRIPOS>MOLECULE
ZINC36953436_replica-1.pdb
 21 22 0 0 0
SMALL
GASTEIGER

@<TRIPOS>ATOM
       1  C1         13.3090   31.5630   63.3590  C.3       1 <0>        -0.1554
       2  C2         12.2360   32.5050   62.8080  C.3       1 <0>        -0.1158
       3  C3         12.7540   33.9450   62.8450  C.3       1 <0>        -0.0454
       4  C4         14.1120   34.0150   62.1450  C.3       1 <0>        -0.1455
       5  C5         11.7770   34.8480   62.1380  C.ar      1 <0>        -0.1333
       6  C6         11.5210   36.1120   62.6360  C.ar      1 <0>        -0.0648
       7  C7         10.6260   36.9430   61.9910  C.ar      1 <0>        -0.1915
       8  C8          9.9810   36.5060   60.8400  C.ar      1 <0>         0.2142
       9  C9         10.2400   35.2350   60.3430  C.ar      1 <0>        -0.1965
      10  C10        11.1410   34.4120   60.9890  C.ar      1 <0>        -0.0687
      11  N1          9.0750   37.3430   60.1860  N.pl3     1 <0>        -0.7442
      12  C11         8.7210   37.0880   58.7870  C.3       1 <0>         0.1937
      13  C12         8.6550   38.4140   58.0270  C.3       1 <0>        -0.1662
      14  C13         7.3790   36.4050   58.7260  C.ar      1 <0>        -0.1660
      15  C14         6.2810   36.9790   59.3450  C.ar      1 <0>         0.1346
      16  C15         5.0480   36.3510   59.2870  C.ar      1 <0>        -0.1600
      17  C16         4.9130   35.1530   58.6120  C.ar      1 <0>        -0.0583
      18  C17         6.0080   34.5800   57.9940  C.ar      1 <0>        -0.1592
      19  C18         7.2400   35.2080   58.0450  C.ar      1 <0>         0.1402
      20  F1          8.3090   34.6500   57.4350  F         1 <0>        -0.1254
      21  F2          6.4130   38.1500   60.0050  F         1 <0>        -0.1251
@<TRIPOS>BOND
     1     1     2 1
     2     2     3 1
     3     3     4 1
     4     3     5 1
     5     5    10 ar
     6     5     6 ar
     7     6     7 ar
     8     7     8 ar
     9     8     9 ar
    10     8    11 1
    11     9    10 ar
    12    11    12 1
    13    12    13 1
    14    12    14 1
    15    14    19 ar
    16    14    15 ar
    17    15    16 ar
    18    15    21 1
    19    16    17 ar
    20    17    18 ar
    21    18    19 ar
    22    19    20 1

@<TRIPOS>MOLECULE
ZINC32230386_replica-1.pdb
 23 24 0 0 0
SMALL
GASTEIGER

@<TRIPOS>ATOM
       1  C1         10.7500   34.4970   61.3070  C.3       1 <0>        -0.1180
       2  C2         10.0740   35.4050   60.3120  C.ar      1 <0>        -0.0427
       3  C3          9.8410   36.7300   60.6340  C.ar      1 <0>        -0.1783
       4  C4          9.2200   37.5660   59.7250  C.ar      1 <0>        -0.0696
       5  C5          8.8300   37.0810   58.4920  C.ar      1 <0>        -0.1696
       6  C6          9.0580   35.7500   58.1680  C.ar      1 <0>         0.2267
       7  C7          9.6880   34.9130   59.0820  C.ar      1 <0>        -0.2025
       8  N1          8.6610   35.2540   56.9240  N.pl3     1 <0>        -0.7502
       9  C8          8.3810   33.8260   56.7600  C.3       1 <0>         0.1392
      10  C9          6.8700   33.5940   56.8010  C.3       1 <0>         0.1149
      11  C10         6.1810   34.5490   55.8230  C.3       1 <0>         0.0280
      12  O1          5.8070   35.7460   56.5080  O.3       1 <0>        -0.3130
      13  C11         4.5610   35.7840   57.0490  C.ar      1 <0>         0.1294
      14  C12         3.4440   35.7030   56.2290  C.ar      1 <0>        -0.2052
      15  C13         2.1790   35.7370   56.7810  C.ar      1 <0>        -0.0849
      16  C14         2.0240   35.8610   58.1500  C.ar      1 <0>        -0.1524
      17  C15         3.1340   35.9470   58.9690  C.ar      1 <0>        -0.0793
      18  C16         4.4020   35.9090   58.4210  C.ar      1 <0>        -0.1054
      19  C17         5.6120   36.0030   59.3140  C.3       1 <0>        -0.0510
      20  C18         5.5380   37.2900   60.1390  C.3       1 <0>        -0.1450
      21  C19         5.6480   34.7960   60.2540  C.3       1 <0>        -0.1448
      22  O2          6.5830   32.2450   56.4300  O.3       1 <0>        -0.5904
      23  C20         8.1530   37.9930   57.5010  C.3       1 <0>        -0.1027
@<TRIPOS>BOND
     1     1     2 1
     2     2     7 ar
     3     2     3 ar
     4     3     4 ar
     5     4     5 ar
     6     5     6 ar
     7     5    23 1
     8     6     7 ar
     9     6     8 1
    10     8     9 1
    11     9    10 1
    12    10    11 1
    13    10    22 1
    14    11    12 1
    15    12    13 1
    16    13    18 ar
    17    13    14 ar
    18    14    15 ar
    19    15    16 ar
    20    16    17 ar
    21    17    18 ar
    22    18    19 1
    23    19    20 1
    24    19    21 1

@<TRIPOS>MOLECULE
ZINC58846064_replica-1.pdb
 32 36 0 0 0
SMALL
GASTEIGER

@<TRIPOS>ATOM
       1  C1          0.6310   23.0180   54.8850  C.3       1 <0>        -0.1476
       2  C2          0.7620   24.5030   55.2320  C.3       1 <0>        -0.0828
       3  C3          0.2420   25.3330   54.0880  C.ar      1 <0>        -0.0999
       4  C4         -0.2220   24.7170   52.9410  C.ar      1 <0>        -0.0955
       5  C5         -0.6980   25.4770   51.8910  C.ar      1 <0>        -0.1321
       6  C6         -0.7130   26.8570   51.9810  C.ar      1 <0>        -0.0938
       7  C7         -0.2500   27.4800   53.1240  C.ar      1 <0>        -0.1716
       8  C8          0.2240   26.7180   54.1850  C.ar      1 <0>         0.1612
       9  N1          0.6880   27.3450   55.3430  N.pl3     1 <0>        -1.0553
      10  S1         -0.3890   27.9370   56.4530  S.o2      1 <0>         2.6915
      11  O1         -1.6870   27.7150   55.9180  O.2       1 <0>        -0.9557
      12  O2          0.0100   27.4260   57.7170  O.2       1 <0>        -0.9535
      13  C9         -0.1630   29.6830   56.5190  C.ar      1 <0>        -0.7249
      14  C10        -0.2500   30.4340   55.3610  C.ar      1 <0>         0.0304
      15  C11        -0.0650   31.8000   55.4160  C.ar      1 <0>        -0.2118
      16  C12         0.2040   32.4210   56.6310  C.ar      1 <0>         0.2947
      17  C13         0.2790   31.6710   57.7950  C.ar      1 <0>        -0.1517
      18  C14         0.0940   30.2980   57.7280  C.ar      1 <0>         0.0286
      19  C15         0.5260   32.3050   59.1220  C.3       1 <0>        -0.0092
      20  C16         1.9400   32.0950   59.5970  C.2       1 <0>        -0.1499
      21  C17         2.3660   33.1550   60.2380  C.2       1 <0>        -0.1664
      22  C18         1.2990   34.2260   60.2770  C.3       1 <0>        -0.1000
      23  C19         0.3230   33.8190   59.1480  C.3       1 <0>        -0.0920
      24  C20         0.7570   34.5140   57.8750  C.3       1 <0>         0.2076
      25  N2          0.4060   33.7960   56.6680  N.pl3     1 <0>        -0.7246
      26  C21         2.2490   34.7210   57.9260  C.ar      1 <0>        -0.1379
      27  C22         3.0950   33.7940   57.3460  C.ar      1 <0>        -0.0858
      28  C23         4.4640   33.9840   57.3920  C.ar      1 <0>        -0.1328
      29  C24         4.9870   35.1000   58.0190  C.ar      1 <0>        -0.0873
      30  C25         4.1430   36.0280   58.5980  C.ar      1 <0>        -0.1606
      31  C26         2.7720   35.8410   58.5470  C.ar      1 <0>         0.1299
      32  F1          1.9450   36.7500   59.1100  F         1 <0>        -0.1218
@<TRIPOS>BOND
     1     1     2 1
     2     2     3 1
     3     3     8 ar
     4     3     4 ar
     5     4     5 ar
     6     5     6 ar
     7     6     7 ar
     8     7     8 ar
     9     8     9 1
    10     9    10 1
    11    10    11 2
    12    10    12 2
    13    10    13 1
    14    13    18 ar
    15    13    14 ar
    16    14    15 ar
    17    15    16 ar
    18    16    25 1
    19    16    17 ar
    20    17    18 ar
    21    17    19 1
    22    19    23 1
    23    19    20 1
    24    20    21 2
    25    21    22 1
    26    22    23 1
    27    23    24 1
    28    24    25 1
    29    24    26 1
    30    26    31 ar
    31    26    27 ar
    32    27    28 ar
    33    28    29 ar
    34    29    30 ar
    35    30    31 ar
    36    31    32 1

@<TRIPOS>MOLECULE
ZINC34724896_replica-1.pdb
 28 31 0 0 0
SMALL
GASTEIGER

@<TRIPOS>ATOM
       1  C1          5.8290   27.6070   59.4760  C.3       1 <0>        -0.1460
       2  C2          5.6490   29.0600   59.9220  C.3       1 <0>        -0.0857
       3  C3          4.2950   29.6220   59.4370  C.3       1 <0>        -0.0244
       4  C4          4.5800   31.0610   59.0980  C.2       1 <0>        -0.2309
       5  C5          5.8960   31.2930   58.9650  C.2       1 <0>        -0.0433
       6  C6          6.2450   32.6830   58.6370  C.2       1 <0>        -0.2441
       7  C7          7.5890   33.2630   58.4290  C.2       1 <0>         0.5765
       8  O1          8.5830   32.5660   58.5230  O.2       1 <0>        -0.4952
       9  N1          7.6990   34.5700   58.1330  N.am      1 <0>        -0.5493
      10  C8          6.6190   35.3630   58.0230  C.2       1 <0>         0.7089
      11  O2          6.7690   36.5380   57.7530  O.2       1 <0>        -0.5283
      12  N2          5.3730   34.8820   58.2030  N.am      1 <0>        -0.4922
      13  C9          5.1730   33.5600   58.5080  C.2       1 <0>         0.0465
      14  S1          3.8150   32.6340   58.7950  S.3       1 <0>         0.2861
      15  C10         4.2240   35.7810   58.0740  C.3       1 <0>         0.1119
      16  C11         3.4900   35.4850   56.7640  C.3       1 <0>        -0.1133
      17  C12         1.9900   35.7190   56.9560  C.3       1 <0>        -0.1582
      18  C13         4.0140   36.4100   55.6640  C.3       1 <0>        -0.1444
      19  C14         9.0300   35.1470   57.9260  C.3       1 <0>         0.1529
      20  C15         9.6200   35.5380   59.2570  C.ar      1 <0>        -0.1306
      21  C16        10.5060   34.6900   59.8940  C.ar      1 <0>        -0.0624
      22  C17        11.0490   35.0470   61.1150  C.ar      1 <0>        -0.1594
      23  C18        10.7040   36.2550   61.6980  C.ar      1 <0>         0.1096
      24  C19         9.8160   37.1030   61.0580  C.ar      1 <0>        -0.1601
      25  C20         9.2790   36.7460   59.8360  C.ar      1 <0>        -0.0627
      26  F1         11.2330   36.6050   62.8910  F         1 <0>        -0.1375
      27  C21         6.6510   29.9860   59.2030  C.3       1 <0>        -0.0268
      28  C22         7.0780   29.3710   57.8680  C.3       1 <0>        -0.1393
@<TRIPOS>BOND
     1     1     2 1
     2     2    27 1
     3     2     3 1
     4     3     4 1
     5     4    14 1
     6     4     5 2
     7     5     6 1
     8     5    27 1
     9     6    13 2
    10     6     7 1
    11     7     8 2
    12     7     9 am
    13     9    10 am
    14     9    19 1
    15    10    11 2
    16    10    12 am
    17    12    13 1
    18    12    15 1
    19    13    14 1
    20    15    16 1
    21    16    17 1
    22    16    18 1
    23    19    20 1
    24    20    25 ar
    25    20    21 ar
    26    21    22 ar
    27    22    23 ar
    28    23    24 ar
    29    23    26 1
    30    24    25 ar
    31    27    28 1

@<TRIPOS>MOLECULE
ZINC03709983_replica-1.pdb
 21 23 0 0 0
SMALL
GASTEIGER

@<TRIPOS>ATOM
       1  C1         12.3620   35.0490   63.7050  C.3       1 <0>        -0.1391
       2  C2         12.1420   34.3480   62.3640  C.3       1 <0>        -0.0315
       3  C3         11.5550   32.9560   62.6060  C.3       1 <0>        -0.1454
       4  C4         13.4790   34.2180   61.6300  C.3       1 <0>        -0.1389
       5  C5         11.1850   35.1570   61.5250  C.ar      1 <0>        -0.0655
       6  C6         10.7400   36.3850   61.9770  C.ar      1 <0>        -0.1159
       7  C7          9.8630   37.1270   61.2070  C.ar      1 <0>        -0.1066
       8  C8          9.4330   36.6420   59.9870  C.ar      1 <0>        -0.1088
       9  C9          9.8750   35.4110   59.5380  C.ar      1 <0>        -0.0944
      10  C10        10.7540   34.6700   60.3050  C.ar      1 <0>        -0.1227
      11  C11         8.4780   37.4500   59.1480  C.3       1 <0>         0.1936
      12  C12         7.0770   36.8170   59.1730  C.3       1 <0>        -0.0752
      13  C13         6.7910   36.4660   57.7310  C.ar      1 <0>        -0.1316
      14  C14         5.6890   35.8740   57.1450  C.ar      1 <0>        -0.0929
      15  C15         5.6620   35.6540   55.7760  C.ar      1 <0>         0.0768
      16  C16         6.7500   36.0250   54.9990  C.ar      1 <0>        -0.1599
      17  C17         7.8470   36.6200   55.5830  C.ar      1 <0>        -0.1415
      18  C18         7.8790   36.8440   56.9610  C.ar      1 <0>         0.1635
      19  N1          8.8860   37.4220   57.7410  N.pl3     1 <0>        -0.7390
      20  O1          4.5780   35.0710   55.1980  O.3       1 <0>        -0.3203
      21  C19         4.7500   34.5390   53.8840  C.3       1 <0>         0.0294
@<TRIPOS>BOND
     1     1     2 1
     2     2     3 1
     3     2     4 1
     4     2     5 1
     5     5    10 ar
     6     5     6 ar
     7     6     7 ar
     8     7     8 ar
     9     8     9 ar
    10     8    11 1
    11     9    10 ar
    12    11    19 1
    13    11    12 1
    14    12    13 1
    15    13    18 ar
    16    13    14 ar
    17    14    15 ar
    18    15    16 ar
    19    15    20 1
    20    16    17 ar
    21    17    18 ar
    22    18    19 1
    23    20    21 1

@<TRIPOS>MOLECULE
ZINC21237752_replica-1.pdb
 34 38 0 0 0
SMALL
GASTEIGER

@<TRIPOS>ATOM
       1  C1         15.2800   33.8450   64.3300  C.3       1 <0>        -0.1498
       2  C2         14.7580   33.0740   63.1160  C.3       1 <0>        -0.0950
       3  C3         13.7690   32.0010   63.5780  C.3       1 <0>        -0.1490
       4  C4         14.0520   34.0400   62.1630  C.3       1 <0>         0.0613
       5  O1         12.9600   34.6650   62.8400  O.3       1 <0>        -0.3126
       6  C5         11.8000   34.8010   62.1460  C.ar      1 <0>         0.1326
       7  C6         11.1550   33.6780   61.6450  C.ar      1 <0>        -0.1498
       8  C7          9.9750   33.8180   60.9390  C.ar      1 <0>        -0.0708
       9  C8          9.4370   35.0750   60.7330  C.ar      1 <0>        -0.1204
      10  C9         10.0800   36.1950   61.2270  C.ar      1 <0>        -0.0719
      11  C10        11.2570   36.0600   61.9370  C.ar      1 <0>        -0.2066
      12  C11         8.1490   35.2250   59.9640  C.3       1 <0>        -0.0298
      13  C12         6.9600   35.0980   60.9140  C.3       1 <0>        -0.1037
      14  C13         5.6620   35.2650   60.1440  C.2       1 <0>         0.2727
      15  C14         5.6040   36.0710   59.0700  C.2       1 <0>        -0.3067
      16  C15         4.3840   36.3280   58.2180  C.3       1 <0>         0.2875
      17  N1          3.1450   35.8350   58.7800  N.pl3     1 <0>        -0.7823
      18  C16         2.9320   34.4700   58.9660  C.ar      1 <0>         0.1702
      19  C17         1.9910   33.7770   58.2240  C.ar      1 <0>        -0.1256
      20  C18         1.8920   32.4030   58.3640  C.ar      1 <0>        -0.1083
      21  C19         2.7230   31.7260   59.2380  C.ar      1 <0>        -0.1232
      22  C20         3.6510   32.4200   59.9970  C.ar      1 <0>        -0.1162
      23  C21         3.7380   33.7960   59.8710  C.ar      1 <0>         0.1142
      24  N2          4.6120   34.5590   60.6360  N.pl3     1 <0>        -0.6987
      25  C22         4.5930   35.6730   56.8760  C.ar      1 <0>        -0.0911
      26  C23         5.4540   34.5970   56.7590  C.ar      1 <0>        -0.0757
      27  C24         5.6420   33.9940   55.5300  C.ar      1 <0>        -0.1579
      28  C25         4.9770   34.4730   54.4140  C.ar      1 <0>         0.0959
      29  C26         4.1200   35.5540   54.5320  C.ar      1 <0>        -0.1576
      30  C27         3.9290   36.1520   55.7630  C.ar      1 <0>        -0.0615
      31  F1          5.1640   33.8860   53.2120  F         1 <0>        -0.1423
      32  C28         6.7600   36.7660   58.6390  C.2       1 <0>         0.4007
      33  O2          6.6740   37.5090   57.6810  O.2       1 <0>        -0.4729
      34  C29         8.0860   36.6160   59.3210  C.3       1 <0>        -0.1601
@<TRIPOS>BOND
     1     1     2 1
     2     2     3 1
     3     2     4 1
     4     4     5 1
     5     5     6 1
     6     6    11 ar
     7     6     7 ar
     8     7     8 ar
     9     8     9 ar
    10     9    10 ar
    11     9    12 1
    12    10    11 ar
    13    12    34 1
    14    12    13 1
    15    13    14 1
    16    14    24 1
    17    14    15 2
    18    15    16 1
    19    15    32 1
    20    16    17 1
    21    16    25 1
    22    17    18 1
    23    18    23 ar
    24    18    19 ar
    25    19    20 ar
    26    20    21 ar
    27    21    22 ar
    28    22    23 ar
    29    23    24 1
    30    25    30 ar
    31    25    26 ar
    32    26    27 ar
    33    27    28 ar
    34    28    29 ar
    35    28    31 1
    36    29    30 ar
    37    32    33 2
    38    32    34 1

@<TRIPOS>MOLECULE
ZINC21816843_replica-1.pdb
 21 22 0 0 0
SMALL
GASTEIGER

@<TRIPOS>ATOM
       1  C1         10.6400   31.6610   63.0450  C.3       1 <0>        -0.1085
       2  C2         12.0260   32.2530   63.0470  C.ar      1 <0>        -0.1750
       3  C3         13.0720   31.5620   63.6300  C.ar      1 <0>        -0.0428
       4  C4         14.3440   32.1030   63.6320  C.ar      1 <0>        -0.2132
       5  C5         14.5760   33.3370   63.0460  C.ar      1 <0>         0.1420
       6  C6         13.5330   34.0340   62.4660  C.ar      1 <0>        -0.2395
       7  C7         12.2540   33.4920   62.4620  C.ar      1 <0>         0.2536
       8  N1         11.1990   34.1910   61.8720  N.pl3     1 <0>        -0.7466
       9  C8         11.3370   35.6220   61.5860  C.3       1 <0>         0.1929
      10  C9         11.0670   36.4240   62.8600  C.3       1 <0>        -0.1653
      11  C10        10.3470   36.0190   60.5220  C.ar      1 <0>        -0.1129
      12  C11        10.1120   35.1800   59.4490  C.ar      1 <0>        -0.0751
      13  C12         9.2010   35.5390   58.4750  C.ar      1 <0>        -0.1847
      14  C13         8.5290   36.7500   58.5680  C.ar      1 <0>         0.1069
      15  C14         8.7710   37.5930   59.6430  C.ar      1 <0>        -0.1283
      16  C15         9.6790   37.2270   60.6180  C.ar      1 <0>        -0.0735
      17  O1          7.6380   37.1090   57.6080  O.3       1 <0>        -0.3188
      18  C16         7.7530   38.4320   57.0780  C.3       1 <0>         0.4089
      19  F1          9.0840   38.6790   56.7280  F         1 <0>        -0.1986
      20  F2          6.9430   38.5500   55.9430  F         1 <0>        -0.1985
      21  F3         15.8210   33.8610   63.0450  F         1 <0>        -0.1406
@<TRIPOS>BOND
     1     1     2 1
     2     2     7 ar
     3     2     3 ar
     4     3     4 ar
     5     4     5 ar
     6     5     6 ar
     7     5    21 1
     8     6     7 ar
     9     7     8 1
    10     8     9 1
    11     9    10 1
    12     9    11 1
    13    11    16 ar
    14    11    12 ar
    15    12    13 ar
    16    13    14 ar
    17    14    15 ar
    18    14    17 1
    19    15    16 ar
    20    17    18 1
    21    18    19 1
    22    18    20 1

@<TRIPOS>MOLECULE
ZINC21246281_replica-1.pdb
 35 39 0 0 0
SMALL
GASTEIGER

@<TRIPOS>ATOM
       1  C1          8.3620   38.6730   56.9540  C.3       1 <0>        -0.1782
       2  C2          8.1060   37.1750   57.1320  C.3       1 <0>         0.0765
       3  C3          8.8480   36.6750   58.3730  C.3       1 <0>        -0.1486
       4  O1          6.7050   36.9470   57.2920  O.3       1 <0>        -0.3060
       5  C4          6.2060   35.7890   56.7850  C.ar      1 <0>         0.1535
       6  C5          6.3070   35.5240   55.4260  C.ar      1 <0>        -0.2163
       7  C6          5.7960   34.3500   54.9120  C.ar      1 <0>        -0.0817
       8  C7          5.1920   33.4310   55.7520  C.ar      1 <0>        -0.1609
       9  C8          5.0940   33.6890   57.1060  C.ar      1 <0>        -0.0657
      10  C9          5.6000   34.8670   57.6250  C.ar      1 <0>        -0.1024
      11  C10         5.4920   35.1470   59.1020  C.3       1 <0>         0.2991
      12  C11         5.5140   33.8320   59.8410  C.2       1 <0>        -0.3080
      13  C12         4.4740   33.2710   60.4830  C.2       1 <0>         0.2699
      14  C13         4.6370   31.9430   61.2030  C.3       1 <0>        -0.1035
      15  C14         5.6690   31.0800   60.4780  C.3       1 <0>        -0.0265
      16  C15         6.9950   31.8500   60.4690  C.3       1 <0>        -0.1601
      17  C16         6.7690   33.1810   59.8150  C.2       1 <0>         0.3978
      18  O2          7.6970   33.7180   59.2430  O.2       1 <0>        -0.4709
      19  C17         5.8430   29.7730   61.2070  C.ar      1 <0>        -0.1390
      20  C18         4.7450   28.9680   61.4520  C.ar      1 <0>        -0.0647
      21  C19         4.9020   27.7660   62.1140  C.ar      1 <0>        -0.1920
      22  C20         6.1620   27.3710   62.5450  C.ar      1 <0>         0.2132
      23  C21         7.2620   28.1850   62.3020  C.ar      1 <0>        -0.1923
      24  C22         7.0990   29.3830   61.6330  C.ar      1 <0>        -0.0635
      25  N1          6.3240   26.1600   63.2190  N.pl3     1 <0>        -0.6383
      26  C23         7.1440   25.0980   62.6320  C.3       1 <0>         0.0921
      27  C24         5.6740   25.9510   64.5150  C.3       1 <0>         0.0922
      28  N2          3.2340   33.8170   60.5680  N.pl3     1 <0>        -0.6978
      29  C25         2.5310   34.3630   59.5000  C.ar      1 <0>         0.1177
      30  C26         1.3510   33.8100   59.0300  C.ar      1 <0>        -0.1155
      31  C27         0.6760   34.4320   57.9940  C.ar      1 <0>        -0.1258
      32  C28         1.1750   35.5960   57.4370  C.ar      1 <0>        -0.1107
      33  C29         2.3630   36.1400   57.8930  C.ar      1 <0>        -0.1253
      34  C30         3.0520   35.5060   58.9150  C.ar      1 <0>         0.1771
      35  N3          4.3060   35.9450   59.3300  N.pl3     1 <0>        -0.7755
@<TRIPOS>BOND
     1     1     2 1
     2     2     3 1
     3     2     4 1
     4     4     5 1
     5     5    10 ar
     6     5     6 ar
     7     6     7 ar
     8     7     8 ar
     9     8     9 ar
    10     9    10 ar
    11    10    11 1
    12    11    35 1
    13    11    12 1
    14    12    17 1
    15    12    13 2
    16    13    14 1
    17    13    28 1
    18    14    15 1
    19    15    16 1
    20    15    19 1
    21    16    17 1
    22    17    18 2
    23    19    24 ar
    24    19    20 ar
    25    20    21 ar
    26    21    22 ar
    27    22    23 ar
    28    22    25 1
    29    23    24 ar
    30    25    26 1
    31    25    27 1
    32    28    29 1
    33    29    34 ar
    34    29    30 ar
    35    30    31 ar
    36    31    32 ar
    37    32    33 ar
    38    33    34 ar
    39    34    35 1

@<TRIPOS>MOLECULE
ZINC41433401_replica-1.pdb
 31 35 0 0 0
SMALL
GASTEIGER

@<TRIPOS>ATOM
       1  C1         -0.4750   24.3910   51.2570  C.3       1 <0>        -0.1196
       2  C2         -0.7210   25.7590   51.8390  C.ar      1 <0>        -0.0720
       3  C3         -1.5150   26.6660   51.1620  C.ar      1 <0>        -0.1243
       4  C4         -1.7410   27.9210   51.6970  C.ar      1 <0>        -0.0890
       5  C5         -1.1730   28.2680   52.9080  C.ar      1 <0>        -0.1078
       6  C6         -0.3800   27.3620   53.5860  C.ar      1 <0>        -0.0890
       7  C7         -0.1580   26.1060   53.0540  C.ar      1 <0>        -0.1243
       8  C8         -1.4180   29.6370   53.4890  C.3       1 <0>         0.0985
       9  O1         -2.3970   29.5440   54.5280  O.3       1 <0>        -0.2951
      10  C9         -1.9380   29.5150   55.8060  C.ar      1 <0>         0.2077
      11  C10        -2.3390   28.4910   56.6600  C.ar      1 <0>        -0.1936
      12  C11        -1.8840   28.4520   57.9470  C.ar      1 <0>         0.0646
      13  C12        -1.0150   29.4410   58.4070  C.ar      1 <0>        -0.3045
      14  C13        -0.6050   30.4790   57.5540  C.ar      1 <0>         0.1841
      15  C14        -1.0720   30.5020   56.2470  C.ar      1 <0>        -0.2447
      16  O2          0.2260   31.2980   58.2340  O.3       1 <0>        -0.2174
      17  C15         0.4060   30.8740   59.5070  C.2       1 <0>        -0.0893
      18  C16         1.1850   31.4810   60.4470  C.2       1 <0>         0.0623
      19  C17         1.9170   32.7010   60.1100  C.2       1 <0>        -0.1899
      20  C18         1.4210   33.8090   59.4570  C.2       1 <0>         0.1198
      21  N1          2.4030   34.7360   59.3300  N.pl3     1 <0>        -0.4714
      22  C19         3.5780   34.2770   59.8910  C.ar      1 <0>         0.0840
      23  C20         3.3320   32.9950   60.4070  C.ar      1 <0>        -0.0778
      24  C21         4.3520   32.2890   61.0400  C.ar      1 <0>        -0.0774
      25  C22         5.6020   32.8570   61.1610  C.ar      1 <0>        -0.1334
      26  C23         5.8460   34.1260   60.6550  C.ar      1 <0>        -0.1007
      27  C24         4.8470   34.8310   60.0180  C.ar      1 <0>        -0.1208
      28  C25         2.2400   36.0410   58.6870  C.3       1 <0>         0.0705
      29  C26        -0.3550   29.6900   59.7010  C.2       1 <0>         0.4181
      30  O3         -0.4430   29.0240   60.7180  O.2       1 <0>        -0.4389
      31  C27        -2.3190   27.3420   58.8690  C.3       1 <0>        -0.1271
@<TRIPOS>BOND
     1     1     2 1
     2     2     7 ar
     3     2     3 ar
     4     3     4 ar
     5     4     5 ar
     6     5     6 ar
     7     5     8 1
     8     6     7 ar
     9     8     9 1
    10     9    10 1
    11    10    15 ar
    12    10    11 ar
    13    11    12 ar
    14    12    13 ar
    15    12    31 1
    16    13    29 1
    17    13    14 ar
    18    14    15 ar
    19    14    16 1
    20    16    17 1
    21    17    18 2
    22    17    29 1
    23    18    19 1
    24    19    23 1
    25    19    20 2
    26    20    21 1
    27    21    22 1
    28    21    28 1
    29    22    27 ar
    30    22    23 ar
    31    23    24 ar
    32    24    25 ar
    33    25    26 ar
    34    26    27 ar
    35    29    30 2

@<TRIPOS>MOLECULE
ZINC49927744_replica-1.pdb
 23 24 0 0 0
SMALL
GASTEIGER

@<TRIPOS>ATOM
       1  C1         -0.4790   24.5790   51.4090  C.3       1 <0>        -0.1067
       2  C2         -0.7500   25.9660   51.9340  C.ar      1 <0>        -0.1477
       3  C3         -0.2470   26.3480   53.1640  C.ar      1 <0>        -0.0716
       4  C4         -0.4920   27.6170   53.6490  C.ar      1 <0>        -0.1919
       5  C5         -1.2450   28.5120   52.8980  C.ar      1 <0>         0.2126
       6  C6         -1.7490   28.1250   51.6620  C.ar      1 <0>        -0.1958
       7  C7         -1.4950   26.8560   51.1810  C.ar      1 <0>        -0.0723
       8  N1         -1.4960   29.7960   53.3850  N.pl3     1 <0>        -0.7427
       9  C8         -0.5370   30.4370   54.2900  C.3       1 <0>         0.1045
      10  C9         -1.2940   31.1770   55.3940  C.3       1 <0>         0.1508
      11  C10        -0.9670   30.5590   56.7280  C.ar      1 <0>        -0.1488
      12  C11        -1.4740   29.3160   57.0580  C.ar      1 <0>        -0.0664
      13  C12        -1.1740   28.7480   58.2820  C.ar      1 <0>        -0.1010
      14  C13        -0.3660   29.4210   59.1800  C.ar      1 <0>        -0.0767
      15  C14         0.1430   30.6640   58.8560  C.ar      1 <0>        -0.2024
      16  C15        -0.1520   31.2340   57.6260  C.ar      1 <0>         0.1342
      17  O1          0.3530   32.4530   57.3020  O.3       1 <0>        -0.3156
      18  C16         1.6800   32.7440   57.7440  C.3       1 <0>         0.0268
      19  C17        -1.7290   27.3930   58.6390  C.3       1 <0>        -0.0260
      20  C18        -3.0940   27.2100   57.9720  C.3       1 <0>        -0.1397
      21  C19        -0.7720   26.3050   58.1490  C.3       1 <0>        -0.1460
      22  C20        -1.8850   27.2910   60.1570  C.3       1 <0>        -0.1400
      23  O2         -2.7000   31.0800   55.1560  O.3       1 <0>        -0.5501
@<TRIPOS>BOND
     1     1     2 1
     2     2     7 ar
     3     2     3 ar
     4     3     4 ar
     5     4     5 ar
     6     5     6 ar
     7     5     8 1
     8     6     7 ar
     9     8     9 1
    10     9    10 1
    11    10    11 1
    12    10    23 1
    13    11    16 ar
    14    11    12 ar
    15    12    13 ar
    16    13    14 ar
    17    13    19 1
    18    14    15 ar
    19    15    16 ar
    20    16    17 1
    21    17    18 1
    22    19    20 1
    23    19    21 1
    24    19    22 1

@<TRIPOS>MOLECULE
ZINC66092261_replica-1.pdb
 29 31 0 0 0
SMALL
GASTEIGER

@<TRIPOS>ATOM
       1  C1          5.8790   33.7570   59.3990  C.3       1 <0>         0.0546
       2  N1          6.4560   35.0370   58.9760  N.am      1 <0>        -0.5526
       3  C2          7.6890   35.4500   59.4910  C.ar      1 <0>         0.1517
       4  C3          8.8700   34.9860   58.9230  C.ar      1 <0>        -0.1614
       5  C4         10.0860   35.3960   59.4340  C.ar      1 <0>        -0.0972
       6  C5         10.1290   36.2670   60.5070  C.ar      1 <0>        -0.1463
       7  C6          8.9570   36.7300   61.0740  C.ar      1 <0>        -0.0969
       8  C7          7.7370   36.3280   60.5650  C.ar      1 <0>        -0.1625
       9  C8          5.7990   35.8140   58.0930  C.2       1 <0>         0.5667
      10  O1          6.3280   36.8180   57.6560  O.2       1 <0>        -0.5169
      11  C9          4.4380   35.4470   57.6580  C.ar      1 <0>        -0.2040
      12  C10         3.3640   35.5620   58.5460  C.ar      1 <0>        -0.0497
      13  C11         2.0960   35.2200   58.1370  C.ar      1 <0>        -0.2023
      14  C12         1.8810   34.7590   56.8400  C.ar      1 <0>         0.2494
      15  C13         2.9500   34.6430   55.9540  C.ar      1 <0>        -0.2118
      16  C14         4.2190   34.9890   56.3550  C.ar      1 <0>        -0.0027
      17  N2          0.5980   34.4140   56.4300  N.pl3     1 <0>        -0.7263
      18  C15        -0.0980   33.2940   57.0680  C.3       1 <0>         0.1008
      19  C16         0.1770   32.0270   56.3000  C.2       1 <0>         0.5091
      20  O2          0.9670   31.2150   56.7340  O.2       1 <0>        -0.5324
      21  N3         -0.4530   31.7950   55.1320  N.am      1 <0>        -0.7265
      22  C17        -0.1850   30.5640   54.3860  C.3       1 <0>         0.1243
      23  C18        -1.4640   29.7280   54.3030  C.3       1 <0>        -0.0984
      24  C19        -1.2640   28.6020   53.3220  C.2       1 <0>        -0.1241
      25  C20        -0.4410   27.6550   53.6450  C.2       1 <0>        -0.1443
      26  C21        -0.1330   26.4760   52.7690  C.3       1 <0>        -0.0925
      27  C22        -1.2040   26.3270   51.6870  C.3       1 <0>        -0.1220
      28  C23        -1.4080   27.6910   51.0150  C.3       1 <0>        -0.1214
      29  C24        -2.0370   28.6420   52.0370  C.3       1 <0>        -0.0836
@<TRIPOS>BOND
     1     1     2 1
     2     2     3 1
     3     2     9 am
     4     3     8 ar
     5     3     4 ar
     6     4     5 ar
     7     5     6 ar
     8     6     7 ar
     9     7     8 ar
    10     9    10 2
    11     9    11 1
    12    11    16 ar
    13    11    12 ar
    14    12    13 ar
    15    13    14 ar
    16    14    15 ar
    17    14    17 1
    18    15    16 ar
    19    17    18 1
    20    18    19 1
    21    19    20 2
    22    19    21 am
    23    21    22 1
    24    22    23 1
    25    23    24 1
    26    24    29 1
    27    24    25 2
    28    25    26 1
    29    26    27 1
    30    27    28 1
    31    28    29 1

@<TRIPOS>MOLECULE
ZINC49927819_replica-1.pdb
 23 24 0 0 0
SMALL
GASTEIGER

@<TRIPOS>ATOM
       1  C1         -1.9110   27.6560   50.7700  C.3       1 <0>        -0.1132
       2  C2         -1.3020   27.6740   52.1490  C.ar      1 <0>        -0.1191
       3  C3         -1.4730   28.7770   52.9650  C.ar      1 <0>        -0.0682
       4  C4         -0.9160   28.7960   54.2280  C.ar      1 <0>        -0.1537
       5  C5         -0.1840   27.7070   54.6790  C.ar      1 <0>         0.1378
       6  C6         -0.0150   26.6010   53.8590  C.ar      1 <0>        -0.2032
       7  C7         -0.5780   26.5850   52.5990  C.ar      1 <0>        -0.0419
       8  C8         -0.3990   25.3810   51.7090  C.3       1 <0>        -0.1206
       9  O1          0.3650   27.7240   55.9220  O.3       1 <0>        -0.3149
      10  C9          0.2530   26.5280   56.6970  C.3       1 <0>         0.0268
      11  C10        -1.1020   30.0000   55.1160  C.3       1 <0>         0.1515
      12  C11         0.0190   31.0070   54.8500  C.3       1 <0>         0.1047
      13  N1          1.1170   30.7740   55.7910  N.pl3     1 <0>        -0.7430
      14  C12         1.0330   31.2580   57.0990  C.ar      1 <0>         0.2139
      15  C13         0.8260   30.3800   58.1540  C.ar      1 <0>        -0.1970
      16  C14         0.7430   30.8610   59.4460  C.ar      1 <0>        -0.0697
      17  C15         0.8630   32.2180   59.6880  C.ar      1 <0>        -0.1358
      18  C16         1.0680   33.0950   58.6390  C.ar      1 <0>        -0.0654
      19  C17         1.1590   32.6190   57.3460  C.ar      1 <0>        -0.1929
      20  C18         0.7710   32.7400   61.0990  C.3       1 <0>        -0.0500
      21  C19         0.0040   34.0640   61.1030  C.3       1 <0>        -0.1442
      22  C20         0.0350   31.7220   61.9730  C.3       1 <0>        -0.1443
      23  O2         -2.3650   30.6080   54.8360  O.3       1 <0>        -0.5507
@<TRIPOS>BOND
     1     1     2 1
     2     2     7 ar
     3     2     3 ar
     4     3     4 ar
     5     4     5 ar
     6     4    11 1
     7     5     6 ar
     8     5     9 1
     9     6     7 ar
    10     7     8 1
    11     9    10 1
    12    11    12 1
    13    11    23 1
    14    12    13 1
    15    13    14 1
    16    14    19 ar
    17    14    15 ar
    18    15    16 ar
    19    16    17 ar
    20    17    18 ar
    21    17    20 1
    22    18    19 ar
    23    20    21 1
    24    20    22 1

@<TRIPOS>MOLECULE
ZINC19231196_replica-1.pdb
 21 22 0 0 0
SMALL
GASTEIGER

@<TRIPOS>ATOM
      1  C4        -0.7010   29.5320   55.1300 C.3     0  <0>0        0.0919
      2  C3        -1.6710   30.5760   54.5700 C.3     0  <0>0        0.0241
      3  C2        -2.8480   30.7450   55.5330 C.3     0  <0>0        0.0020
      4  C1        -3.0750   29.4390   56.2950 C.3     0  <0>0        0.0001
      5  C5        -0.6200   28.3640   54.1820 C.ar    0  <0>0       -0.0045
      6  C10        0.0690   27.2220   54.5500 C.ar    0  <0>0       -0.0018
      7  C9         0.1450   26.1510   53.6800 C.ar    0  <0>0        0.0111
      8  C8        -0.4690   26.2190   52.4430 C.ar    0  <0>0        0.0577
      9  C7        -1.1570   27.3620   52.0740 C.ar    0  <0>0        0.0111
     10 Cl         -0.3740   24.8730   51.3500 Cl      0  <0>0       -0.0822
     11  C6        -1.2380   28.4310   52.9470 C.ar    0  <0>0       -0.0018
     12  N1         0.6270   30.1310   55.2830 N.pl3   0  <0>0       -0.3305
     13  H13        1.4480   29.8220   54.6200 H       0  <0>0        0.1471
     14  C11        0.8490   31.0960   56.2700 C.ar    0  <0>0        0.0472
     15  C16        1.4680   32.2940   55.9450 C.ar    0  <0>0        0.0463
     16  C15        1.6820   33.2480   56.9230 C.ar    0  <0>0        0.1686
     17  C14        1.2850   33.0030   58.2290 C.ar    0  <0>0        0.1675
     18  F1         2.2810   34.4180   56.6070 F       0  <0>0       -0.2018
     19  C13        0.6730   31.8060   58.5550 C.ar    0  <0>0        0.0332
     20  F2         1.5000   33.9340   59.1840 F       0  <0>0       -0.2018
     21  C12        0.4540   30.8530   57.5800 C.ar    0  <0>0        0.0168
@<TRIPOS>BOND
     1    10     8    1
     2     9     8   ar
     3     9    11   ar
     4     8     7   ar
     5    11     5   ar
     6     7     6   ar
     7     5     6   ar
     8     5     1    1
     9     2     1    1
    10     2     3    1
    11    13    12    1
    12     1    12    1
    13    12    14    1
    14     3     4    1
    15    15    14   ar
    16    15    16   ar
    17    14    21   ar
    18    18    16    1
    19    16    17   ar
    20    21    19   ar
    21    17    19   ar
    22    17    20    1


@<TRIPOS>MOLECULE
ZINC49903282_replica-1.pdb
 22 23 0 0 0
SMALL
GASTEIGER

@<TRIPOS>ATOM
       1  C1          0.7770   33.0790   61.7700  C.3       1 <0>        -0.1072
       2  C2          0.6440   32.9770   60.2720  C.ar      1 <0>        -0.1409
       3  C3          0.5430   31.7350   59.6710  C.ar      1 <0>        -0.0772
       4  C4          0.4210   31.6380   58.3000  C.ar      1 <0>        -0.1897
       5  C5          0.4010   32.7900   57.5230  C.ar      1 <0>         0.2100
       6  C6          0.5040   34.0350   58.1290  C.ar      1 <0>        -0.1590
       7  C7          0.6190   34.1250   59.5020  C.ar      1 <0>        -0.0741
       8  C8          0.4840   35.2860   57.2900  C.3       1 <0>        -0.1054
       9  N1          0.2790   32.6950   56.1340  N.pl3     1 <0>        -0.7500
      10  C9          0.6670   31.4600   55.4470  C.3       1 <0>         0.1265
      11  C10        -0.5400   30.8940   54.6960  C.3       1 <0>        -0.1661
      12  C11        -0.9670   29.5730   55.3400  C.3       1 <0>         0.1540
      13  C12        -0.8150   28.4550   54.3400  C.ar      1 <0>        -0.1214
      14  C13        -1.4260   28.5460   53.1030  C.ar      1 <0>        -0.0601
      15  C14        -1.2860   27.5210   52.1870  C.ar      1 <0>        -0.1281
      16  C15        -0.5370   26.4050   52.5080  C.ar      1 <0>        -0.0751
      17  C16         0.0750   26.3150   53.7440  C.ar      1 <0>        -0.1275
      18  C17        -0.0610   27.3420   54.6590  C.ar      1 <0>        -0.0670
      19  C18         0.6100   27.2460   56.0050  C.3       1 <0>        -0.1218
      20  C19        -0.3860   25.2860   51.5090  C.3       1 <0>        -0.1167
      21  C20        -2.2440   29.7630   52.7540  C.3       1 <0>        -0.1256
      22  O1         -2.3340   29.6640   55.7490  O.3       1 <0>        -0.5563
@<TRIPOS>BOND
     1     1     2 1
     2     2     7 ar
     3     2     3 ar
     4     3     4 ar
     5     4     5 ar
     6     5     6 ar
     7     5     9 1
     8     6     7 ar
     9     6     8 1
    10     9    10 1
    11    10    11 1
    12    11    12 1
    13    12    13 1
    14    12    22 1
    15    13    18 ar
    16    13    14 ar
    17    14    15 ar
    18    14    21 1
    19    15    16 ar
    20    16    17 ar
    21    16    20 1
    22    17    18 ar
    23    18    19 1

@<TRIPOS>MOLECULE
ZINC10237044_replica-1.pdb
 29 32 0 0 0
SMALL
GASTEIGER

@<TRIPOS>ATOM
       1  C1          4.9250   34.1990   54.7970  C.3       1 <0>        -0.1613
       2  C2          5.1870   35.3360   55.7870  C.3       1 <0>         0.1864
       3  C3          4.0260   35.4480   56.7410  C.ar      1 <0>        -0.0764
       4  C4          4.2210   35.2320   58.0930  C.ar      1 <0>        -0.0967
       5  C5          3.1590   35.3390   58.9720  C.ar      1 <0>        -0.1185
       6  C6          1.8970   35.6520   58.4960  C.ar      1 <0>         0.0714
       7  C7          1.7010   35.8640   57.1400  C.ar      1 <0>         0.0759
       8  C8          2.7680   35.7610   56.2640  C.ar      1 <0>        -0.1127
       9  F1          0.4700   36.1690   56.6740  F         1 <0>        -0.1234
      10  F2          0.8570   35.7510   59.3540  F         1 <0>        -0.1245
      11  N1          6.4130   35.0550   56.5390  N.am      1 <0>        -0.7251
      12  C9          7.5810   35.6040   56.1520  C.2       1 <0>         0.5166
      13  O1          7.6170   36.3340   55.1840  O.2       1 <0>        -0.5176
      14  C10         8.8430   35.3110   56.9220  C.3       1 <0>        -0.0901
      15  C11         8.9200   36.2150   58.1250  C.2       1 <0>         0.0752
      16  C12         8.3060   37.3980   58.1000  C.2       1 <0>        -0.1598
      17  S1          8.6960   38.0500   59.7160  S.3       1 <0>         0.1453
      18  C13         9.6570   36.6730   60.3000  C.2       1 <0>         0.1855
      19  N2          9.6200   35.8060   59.2390  N.pl3     1 <0>        -0.4226
      20  C14        10.3580   34.7020   59.6500  C.2       1 <0>        -0.0260
      21  C15        10.7930   34.9450   60.9100  C.2       1 <0>         0.0819
      22  N3         10.3520   36.1660   61.2760  N.2       1 <0>        -0.4325
      23  C16        11.6190   34.0330   61.7380  C.ar      1 <0>        -0.0178
      24  C17        11.0650   32.8620   62.2520  C.ar      1 <0>        -0.0776
      25  C18        11.8390   32.0140   63.0200  C.ar      1 <0>        -0.1513
      26  C19        13.1610   32.3300   63.2850  C.ar      1 <0>         0.1028
      27  C20        13.7140   33.4950   62.7800  C.ar      1 <0>        -0.1515
      28  C21        12.9500   34.3470   62.0080  C.ar      1 <0>        -0.0599
      29  F3         13.9140   31.5000   64.0400  F         1 <0>        -0.1376
@<TRIPOS>BOND
     1     1     2 1
     2     2     3 1
     3     2    11 1
     4     3     8 ar
     5     3     4 ar
     6     4     5 ar
     7     5     6 ar
     8     6     7 ar
     9     6    10 1
    10     7     8 ar
    11     7     9 1
    12    11    12 am
    13    12    13 2
    14    12    14 1
    15    14    15 1
    16    15    19 1
    17    15    16 2
    18    16    17 1
    19    17    18 1
    20    18    22 2
    21    18    19 1
    22    19    20 1
    23    20    21 2
    24    21    22 1
    25    21    23 1
    26    23    28 ar
    27    23    24 ar
    28    24    25 ar
    29    25    26 ar
    30    26    27 ar
    31    26    29 1
    32    27    28 ar

@<TRIPOS>MOLECULE
ZINC21013354_replica-1.pdb
 22 23 0 0 0
SMALL
GASTEIGER

@<TRIPOS>ATOM
      1  C4        10.1490   35.4600   60.0080 C.3     0  <0>0        0.0919
      2  C3         9.7360   36.8570   60.4750 C.3     0  <0>0        0.0241
      3  C2         8.6570   36.7350   61.5540 C.3     0  <0>0        0.0020
      4  C1         7.2880   37.0420   60.9430 C.3     0  <0>0        0.0001
      5  C5         9.3440   35.0790   58.7920 C.ar    0  <0>0       -0.0029
      6  C10        8.9920   36.0440   57.8670 C.ar    0  <0>0        0.0214
      7  C9         8.2530   35.6950   56.7510 C.ar    0  <0>0        0.1426
      8  C8         7.8680   34.3810   56.5610 C.ar    0  <0>0        0.0241
      9  C7         8.2160   33.4180   57.4890 C.ar    0  <0>0        0.0014
     10  C6         8.9590   33.7650   58.6010 C.ar    0  <0>0       -0.0026
     11  N1         7.8750   36.7290   55.7610 N.pl3   0  <0>0        0.0577
     12  O1         7.8580   37.9020   56.0820 O.2     0  <0>0       -0.1261
     13  O2         7.5800   36.4030   54.6250 O.2     0  <0>0       -0.1261
     14  N2         9.8990   34.4940   61.0810 N.pl3   0  <0>0       -0.3306
     15  H13        8.8670   34.2350   61.3580 H       0  <0>0        0.1471
     16  C11       10.9730   33.9010   61.7500 C.ar    0  <0>0        0.0449
     17  C16       10.8480   32.6170   62.2670 C.ar    0  <0>0        0.0152
     18  C15       11.9110   32.0340   62.9270 C.ar    0  <0>0        0.0127
     19  C14       13.1000   32.7250   63.0760 C.ar    0  <0>0        0.0578
     20  C13       13.2270   34.0050   62.5630 C.ar    0  <0>0        0.0127
     21 Cl         14.4340   31.9890   63.9070 Cl      0  <0>0       -0.0822
     22  C12       12.1700   34.5910   61.8960 C.ar    0  <0>0        0.0152
@<TRIPOS>BOND
     1    13    11    2
     2    11    12    2
     3    11     7    1
     4     8     7   ar
     5     8     9   ar
     6     7     6   ar
     7     9    10   ar
     8     6     5   ar
     9    10     5   ar
    10     5     1    1
    11     1     2    1
    12     1    14    1
    13     2     3    1
    14     4     3    1
    15    14    15    1
    16    14    16    1
    17    16    22   ar
    18    16    17   ar
    19    22    20   ar
    20    17    18   ar
    21    20    19   ar
    22    18    19   ar
    23    19    21    1


@<TRIPOS>MOLECULE
ZINC03307576_replica-1.pdb
 30 33 0 0 0
SMALL
GASTEIGER

@<TRIPOS>ATOM
       1  C1          7.2480   36.1030   55.2120  C.ar      1 <0>        -0.1189
       2  C2          7.4100   34.9260   55.9210  C.ar      1 <0>        -0.1214
       3  C3          7.9520   34.9490   57.1890  C.ar      1 <0>        -0.1088
       4  C4          8.3380   36.1630   57.7570  C.ar      1 <0>        -0.0388
       5  C5          8.1670   37.3460   57.0410  C.ar      1 <0>        -0.0899
       6  C6          7.6290   37.3100   55.7700  C.ar      1 <0>        -0.1201
       7  C7          8.9220   36.1950   59.1200  C.ar      1 <0>        -0.0789
       8  C8         10.0750   35.4660   59.4040  C.ar      1 <0>        -0.0686
       9  C9         10.6140   35.4980   60.6740  C.ar      1 <0>        -0.1543
      10  C10        10.0140   36.2520   61.6680  C.ar      1 <0>        -0.0768
      11  C11         8.8720   36.9820   61.3950  C.ar      1 <0>        -0.2087
      12  C12         8.3180   36.9550   60.1250  C.ar      1 <0>         0.1406
      13  O1          7.1930   37.6690   59.8570  O.3       1 <0>        -0.2984
      14  C13         5.9790   37.2180   60.4630  C.3       1 <0>         0.0953
      15  C14         5.3830   36.1140   59.6290  C.ar      1 <0>        -0.0655
      16  C15         5.5190   34.7960   60.0310  C.ar      1 <0>        -0.0985
      17  C16         4.9750   33.7800   59.2730  C.ar      1 <0>        -0.0556
      18  C17         4.2850   34.0830   58.0970  C.ar      1 <0>        -0.1209
      19  C18         4.1510   35.4140   57.6970  C.ar      1 <0>        -0.0893
      20  C19         4.7010   36.4200   58.4650  C.ar      1 <0>        -0.0990
      21  C20         3.7000   33.0000   57.2800  C.2       1 <0>         0.5774
      22  O2          4.2990   31.9510   57.1430  O.2       1 <0>        -0.4926
      23  N1          2.5020   33.1750   56.6880  N.am      1 <0>        -0.5794
      24  N2          1.9470   32.1480   55.9130  N.2       1 <0>        -0.2208
      25  C21         0.6630   31.9380   55.9360  C.2       1 <0>         0.1385
      26  C22         0.0820   30.8620   55.1250  C.2       1 <0>         0.0215
      27  C23        -1.1420   30.8910   54.4930  C.2       1 <0>        -0.1244
      28  C24        -1.2950   29.6630   53.8340  C.2       1 <0>        -0.2071
      29  C25        -0.1910   28.9210   54.0770  C.2       1 <0>         0.0176
      30  N3          0.6560   29.6410   54.8630  N.pl3     1 <0>        -0.5473
@<TRIPOS>BOND
     1     1     6 ar
     2     1     2 ar
     3     2     3 ar
     4     3     4 ar
     5     4     5 ar
     6     4     7 1
     7     5     6 ar
     8     7    12 ar
     9     7     8 ar
    10     8     9 ar
    11     9    10 ar
    12    10    11 ar
    13    11    12 ar
    14    12    13 1
    15    13    14 1
    16    14    15 1
    17    15    20 ar
    18    15    16 ar
    19    16    17 ar
    20    17    18 ar
    21    18    19 ar
    22    18    21 1
    23    19    20 ar
    24    21    22 2
    25    21    23 am
    26    23    24 1
    27    24    25 2
    28    25    26 1
    29    26    30 1
    30    26    27 2
    31    27    28 1
    32    28    29 2
    33    29    30 1

@<TRIPOS>MOLECULE
ZINC49903159_replica-1.pdb
 22 23 0 0 0
SMALL
GASTEIGER

@<TRIPOS>ATOM
       1  C1         -0.4940   24.7040   51.5330  C.3       1 <0>        -0.1179
       2  C2         -0.3710   25.7820   52.5800  C.ar      1 <0>        -0.0414
       3  C3          0.2910   25.5190   53.7660  C.ar      1 <0>        -0.1762
       4  C4          0.4060   26.5040   54.7290  C.ar      1 <0>        -0.0737
       5  C5         -0.1380   27.7540   54.5100  C.ar      1 <0>        -0.2000
       6  C6         -0.8020   28.0210   53.3190  C.ar      1 <0>         0.2188
       7  C7         -0.9120   27.0310   52.3520  C.ar      1 <0>        -0.1650
       8  C8         -1.6280   27.3180   51.0560  C.3       1 <0>        -0.1062
       9  N1         -1.3540   29.2840   53.0940  N.pl3     1 <0>        -0.7500
      10  C9         -1.0700   30.3830   54.0200  C.3       1 <0>         0.1284
      11  C10        -2.3650   30.8120   54.7150  C.3       1 <0>        -0.1574
      12  C11        -2.0770   31.1190   56.1860  C.3       1 <0>         0.1542
      13  C12        -1.9320   29.8280   56.9500  C.ar      1 <0>        -0.1229
      14  C13        -2.8230   28.7940   56.7350  C.ar      1 <0>        -0.1083
      15  C14        -2.6890   27.6100   57.4360  C.ar      1 <0>        -0.1144
      16  C15        -1.6640   27.4600   58.3510  C.ar      1 <0>        -0.0724
      17  C16        -0.7730   28.4950   58.5650  C.ar      1 <0>        -0.1114
      18  C17        -0.9040   29.6770   57.8620  C.ar      1 <0>        -0.1068
      19  C18        -1.5200   26.1700   59.1160  C.3       1 <0>        -0.0594
      20  C19        -2.8630   25.7990   59.7480  C.3       1 <0>        -0.1454
      21  C20        -1.0820   25.0580   58.1610  C.3       1 <0>        -0.1450
      22  O1         -0.8650   31.8710   56.2880  O.3       1 <0>        -0.5518
@<TRIPOS>BOND
     1     1     2 1
     2     2     7 ar
     3     2     3 ar
     4     3     4 ar
     5     4     5 ar
     6     5     6 ar
     7     6     7 ar
     8     6     9 1
     9     7     8 1
    10     9    10 1
    11    10    11 1
    12    11    12 1
    13    12    13 1
    14    12    22 1
    15    13    18 ar
    16    13    14 ar
    17    14    15 ar
    18    15    16 ar
    19    16    17 ar
    20    16    19 1
    21    17    18 ar
    22    19    20 1
    23    19    21 1

@<TRIPOS>MOLECULE
ZINC40722295_replica-1.pdb
 29 33 0 0 0
SMALL
GASTEIGER

@<TRIPOS>ATOM
       1  C1          5.3770   32.1880   57.3670  C.3       1 <0>        -0.1236
       2  C2          6.4050   32.1250   58.4670  C.ar      1 <0>        -0.0749
       3  C3          7.7510   32.0940   58.1550  C.ar      1 <0>        -0.1141
       4  C4          8.6930   32.0360   59.1640  C.ar      1 <0>        -0.1078
       5  C5          8.2900   32.0100   60.4860  C.ar      1 <0>        -0.1245
       6  C6          6.9440   32.0420   60.7990  C.ar      1 <0>        -0.0987
       7  C7          6.0010   32.1050   59.7890  C.ar      1 <0>        -0.0998
       8  C8          4.5340   32.1440   60.1310  C.3       1 <0>         0.1129
       9  O1          4.1840   33.4540   60.5790  O.3       1 <0>        -0.3287
      10  C9          3.1100   34.0430   59.9890  C.ar      1 <0>         0.0800
      11  C10         3.2940   35.0460   59.0510  C.ar      1 <0>        -0.1384
      12  C11         2.2010   35.6440   58.4530  C.ar      1 <0>        -0.1157
      13  C12         0.9210   35.2430   58.7880  C.ar      1 <0>        -0.0734
      14  C13         0.7290   34.2430   59.7230  C.ar      1 <0>        -0.1685
      15  C14         1.8210   33.6360   60.3220  C.ar      1 <0>         0.1212
      16  O2          1.6340   32.6480   61.2380  O.3       1 <0>        -0.3000
      17  C15         0.6770   32.8930   62.2710  C.3       1 <0>         0.0197
      18  C16         4.6880   35.4860   58.6840  C.3       1 <0>         0.0447
      19  N1          5.3820   35.9700   59.8850  N.4       1 <0>        -0.5017
      20  C17         6.7720   36.3030   59.5470  C.3       1 <0>         0.0608
      21  C18         6.9660   37.8190   59.6230  C.3       1 <0>        -0.1252
      22  C19         8.4140   38.1660   59.2710  C.3       1 <0>        -0.0784
      23  C20         9.3580   37.4800   60.2600  C.3       1 <0>        -0.1191
      24  C21         9.1640   35.9640   60.1840  C.3       1 <0>        -0.0783
      25  C22         7.7160   35.6170   60.5360  C.3       1 <0>        -0.1260
      26  C23         9.4740   35.4820   58.7650  C.3       1 <0>        -0.1192
      27  C24         8.5300   36.1680   57.7760  C.3       1 <0>        -0.0791
      28  C25         8.7230   37.6840   57.8520  C.3       1 <0>        -0.1191
      29  C26         7.0820   35.8200   58.1280  C.3       1 <0>        -0.1268
@<TRIPOS>BOND
     1     1     2 1
     2     2     7 ar
     3     2     3 ar
     4     3     4 ar
     5     4     5 ar
     6     5     6 ar
     7     6     7 ar
     8     7     8 1
     9     8     9 1
    10     9    10 1
    11    10    15 ar
    12    10    11 ar
    13    11    12 ar
    14    11    18 1
    15    12    13 ar
    16    13    14 ar
    17    14    15 ar
    18    15    16 1
    19    16    17 1
    20    18    19 1
    21    19    20 1
    22    20    25 1
    23    20    29 1
    24    20    21 1
    25    21    22 1
    26    22    28 1
    27    22    23 1
    28    23    24 1
    29    24    25 1
    30    24    26 1
    31    26    27 1
    32    27    28 1
    33    27    29 1

@<TRIPOS>MOLECULE
ZINC35698928_replica-1.pdb
 29 31 0 0 0
SMALL
GASTEIGER

@<TRIPOS>ATOM
       1  C1          6.4990   37.8260   59.9420  C.3       1 <0>        -0.1848
       2  C2          6.3090   36.7600   58.8620  C.3       1 <0>         0.0687
       3  C3          5.3690   35.6960   59.3660  C.ar      1 <0>        -0.1559
       4  C4          5.7910   34.8000   60.3310  C.ar      1 <0>        -0.1223
       5  C5          4.9280   33.8250   60.7940  C.ar      1 <0>        -0.0991
       6  C6          3.6430   33.7440   60.2920  C.ar      1 <0>        -0.0856
       7  C7          3.2200   34.6410   59.3280  C.ar      1 <0>        -0.0995
       8  C8          4.0810   35.6190   58.8680  C.ar      1 <0>        -0.0958
       9  N1          7.6070   36.1520   58.5390  N.4       1 <0>        -0.3932
      10  C9          8.6870   37.0680   58.9310  C.3       1 <0>         0.0395
      11  C10         9.6240   36.3630   59.8780  C.ar      1 <0>        -0.1482
      12  C11        10.1190   35.1130   59.5570  C.ar      1 <0>        -0.0853
      13  C12        10.9780   34.4660   60.4250  C.ar      1 <0>        -0.1010
      14  C13        11.3440   35.0700   61.6140  C.ar      1 <0>        -0.0304
      15  C14        10.8520   36.3210   61.9340  C.ar      1 <0>        -0.1043
      16  C15         9.9950   36.9700   61.0640  C.ar      1 <0>        -0.1261
      17  C16        12.2820   34.3650   62.5600  C.3       1 <0>        -0.0381
      18  C17        12.4480   35.1990   63.8310  C.3       1 <0>        -0.1426
      19  C18        11.7050   32.9940   62.9210  C.3       1 <0>        -0.1504
      20  C19        13.6430   34.1840   61.8860  C.3       1 <0>        -0.1436
      21  C20         7.6830   35.8960   57.0950  C.3       1 <0>         0.0794
      22  C21         7.4720   34.4270   56.8330  C.2       1 <0>         0.1979
      23  N2          7.7430   33.4690   57.6670  N.pl3     1 <0>        -0.4024
      24  C22         7.4190   32.2830   57.0800  C.2       1 <0>        -0.0022
      25  C23         6.9350   32.5700   55.8390  C.2       1 <0>         0.0651
      26  O1          6.9700   33.9050   55.7050  O.3       1 <0>        -0.1228
      27  C24         7.5650   30.9470   57.6750  C.2       1 <0>         0.5394
      28  O2          6.9000   30.0110   57.2500  O.co2     1 <0>        -0.6268
      29  O3          8.3510   30.7690   58.5960  O.co2     1 <0>        -0.6054
@<TRIPOS>BOND
     1     1     2 1
     2     2     3 1
     3     2     9 1
     4     3     8 ar
     5     3     4 ar
     6     4     5 ar
     7     5     6 ar
     8     6     7 ar
     9     7     8 ar
    10     9    10 1
    11     9    21 1
    12    10    11 1
    13    11    16 ar
    14    11    12 ar
    15    12    13 ar
    16    13    14 ar
    17    14    15 ar
    18    14    17 1
    19    15    16 ar
    20    17    18 1
    21    17    19 1
    22    17    20 1
    23    21    22 1
    24    22    26 1
    25    22    23 2
    26    23    24 1
    27    24    25 2
    28    24    27 1
    29    25    26 1
    30    27    28 2
    31    27    29 1

@<TRIPOS>MOLECULE
ZINC05553029_replica-1.pdb
 21 22 0 0 0
SMALL
GASTEIGER

@<TRIPOS>ATOM
       1  C1          1.2460   35.2310   58.9640  C.3       1 <0>        -0.1194
       2  C2          0.8490   33.7800   58.8730  C.ar      1 <0>        -0.0709
       3  C3          0.2020   33.3110   57.7440  C.ar      1 <0>        -0.1211
       4  C4         -0.1640   31.9830   57.6570  C.ar      1 <0>        -0.0574
       5  C5          0.1170   31.1170   58.7060  C.ar      1 <0>         0.1151
       6  C6          0.7620   31.5920   59.8410  C.ar      1 <0>        -0.0804
       7  C7          1.1300   32.9210   59.9180  C.ar      1 <0>        -0.1215
       8  C8          1.0640   30.6580   60.9830  C.3       1 <0>        -0.1154
       9  N1         -0.2520   29.7710   58.6220  N.pl3     1 <0>        -0.6372
      10  C9         -0.5280   29.2220   57.4220  C.2       1 <0>         0.5610
      11  S1         -2.1370   28.7850   57.0300  S.2       1 <0>        -0.6089
      12  N2          0.4610   29.0220   56.5280  N.pl3     1 <0>        -0.6394
      13  C10         0.1900   28.3760   55.3170  C.ar      1 <0>         0.1169
      14  C11        -0.4080   29.0730   54.2770  C.ar      1 <0>        -0.1182
      15  C12        -0.6700   28.4340   53.0800  C.ar      1 <0>        -0.1132
      16  C13        -0.3470   27.0990   52.9230  C.ar      1 <0>        -0.0669
      17  C14         0.2440   26.4010   53.9600  C.ar      1 <0>        -0.1128
      18  C15         0.5130   27.0350   55.1560  C.ar      1 <0>        -0.0650
      19  C16        -0.6390   26.4030   51.6180  C.3       1 <0>        -0.0592
      20  C17        -0.7820   24.8990   51.8630  C.3       1 <0>        -0.1454
      21  C18        -1.9400   26.9500   51.0280  C.3       1 <0>        -0.1463
@<TRIPOS>BOND
     1     1     2 1
     2     2     7 ar
     3     2     3 ar
     4     3     4 ar
     5     4     5 ar
     6     5     6 ar
     7     5     9 1
     8     6     7 ar
     9     6     8 1
    10     9    10 1
    11    10    11 2
    12    10    12 1
    13    12    13 1
    14    13    18 ar
    15    13    14 ar
    16    14    15 ar
    17    15    16 ar
    18    16    17 ar
    19    16    19 1
    20    17    18 ar
    21    19    20 1
    22    19    21 1

@<TRIPOS>MOLECULE
ZINC32787751_replica-1.pdb
 26 28 0 0 0
SMALL
GASTEIGER

@<TRIPOS>ATOM
       1  C1          0.4700   34.3460   57.8960  C.3       1 <0>        -0.1553
       2  C2          0.9970   35.6030   57.2010  C.3       1 <0>         0.0529
       3  O1          2.0090   36.2050   58.0110  O.3       1 <0>        -0.3160
       4  C3          3.2960   35.8400   57.7640  C.ar      1 <0>         0.0965
       5  C4          3.8730   36.1180   56.5340  C.ar      1 <0>        -0.1118
       6  C5          5.1800   35.7480   56.2850  C.ar      1 <0>        -0.1083
       7  C6          5.9160   35.0990   57.2650  C.ar      1 <0>         0.0915
       8  C7          5.3370   34.8170   58.4940  C.ar      1 <0>        -0.1678
       9  C8          4.0320   35.1910   58.7440  C.ar      1 <0>        -0.1696
      10  O2          7.2020   34.7340   57.0190  O.3       1 <0>        -0.3120
      11  C9          7.4140   33.4400   56.4520  C.3       1 <0>         0.0455
      12  C10         8.0750   32.5300   57.4890  C.3       1 <0>         0.1257
      13  N1          8.9970   33.3170   58.3120  N.am      1 <0>        -0.7292
      14  C11         8.8130   33.3940   59.6450  C.2       1 <0>         0.6029
      15  O3          7.8790   32.8120   60.1650  O.2       1 <0>        -0.5109
      16  C12         9.7340   34.1800   60.4660  C.2       1 <0>        -0.0754
      17  C13         9.7000   35.5550   60.6500  C.2       1 <0>        -0.0457
      18  C14        10.7750   35.8640   61.5160  C.2       1 <0>        -0.2115
      19  C15        11.3940   34.7040   61.8100  C.2       1 <0>        -0.0002
      20  O4         10.7720   33.6970   61.1820  O.3       1 <0>        -0.1606
      21  C16         8.7300   36.5070   60.0590  C.ar      1 <0>        -0.0347
      22  C17         7.5380   36.7950   60.7230  C.ar      1 <0>        -0.0615
      23  C18         6.6420   37.6860   60.1700  C.ar      1 <0>        -0.1239
      24  C19         6.9190   38.2860   58.9540  C.ar      1 <0>        -0.1118
      25  C20         8.0980   38.0000   58.2890  C.ar      1 <0>        -0.1272
      26  C21         9.0040   37.1150   58.8340  C.ar      1 <0>        -0.0999
@<TRIPOS>BOND
     1     1     2 1
     2     2     3 1
     3     3     4 1
     4     4     9 ar
     5     4     5 ar
     6     5     6 ar
     7     6     7 ar
     8     7     8 ar
     9     7    10 1
    10     8     9 ar
    11    10    11 1
    12    11    12 1
    13    12    13 1
    14    13    14 am
    15    14    15 2
    16    14    16 1
    17    16    20 1
    18    16    17 2
    19    17    18 1
    20    17    21 1
    21    18    19 2
    22    19    20 1
    23    21    26 ar
    24    21    22 ar
    25    22    23 ar
    26    23    24 ar
    27    24    25 ar
    28    25    26 ar

@<TRIPOS>MOLECULE
ZINC37881244_replica-1.pdb
 21 22 0 0 0
SMALL
GASTEIGER

@<TRIPOS>ATOM
       1  C1          0.2820   26.2590   55.7460  C.3       1 <0>        -0.1480
       2  C2          0.4080   27.4530   54.7960  C.3       1 <0>        -0.0769
       3  C3         -0.2710   27.1300   53.4900  C.ar      1 <0>        -0.1570
       4  C4         -0.1960   25.8540   52.9680  C.ar      1 <0>        -0.0716
       5  C5         -0.8180   25.5570   51.7700  C.ar      1 <0>        -0.1764
       6  C6         -1.5180   26.5370   51.0900  C.ar      1 <0>        -0.0768
       7  C7         -1.5980   27.8150   51.6060  C.ar      1 <0>        -0.1977
       8  C8         -0.9780   28.1150   52.8130  C.ar      1 <0>         0.2186
       9  N1         -1.0620   29.4060   53.3400  N.pl3     1 <0>        -0.7428
      10  C9         -2.3650   29.9640   53.7080  C.3       1 <0>         0.0995
      11  C10        -2.2260   30.7770   54.9960  C.3       1 <0>         0.1413
      12  C11        -2.0780   29.8410   56.1680  C.ar      1 <0>        -0.1238
      13  C12        -1.0600   30.0330   57.0810  C.ar      1 <0>        -0.1054
      14  C13        -0.9240   29.1750   58.1570  C.ar      1 <0>        -0.1142
      15  C14        -1.8070   28.1240   58.3170  C.ar      1 <0>        -0.0696
      16  C15        -2.8250   27.9310   57.4030  C.ar      1 <0>        -0.1114
      17  C16        -2.9650   28.7920   56.3310  C.ar      1 <0>        -0.1038
      18  C17        -1.6580   27.1870   59.4880  C.3       1 <0>        -0.0597
      19  C18        -1.6920   27.9880   60.7900  C.3       1 <0>        -0.1455
      20  C19        -2.8060   26.1750   59.4810  C.3       1 <0>        -0.1452
      21  O1         -1.0730   31.6160   54.9090  O.3       1 <0>        -0.5497
@<TRIPOS>BOND
     1     1     2 1
     2     2     3 1
     3     3     8 ar
     4     3     4 ar
     5     4     5 ar
     6     5     6 ar
     7     6     7 ar
     8     7     8 ar
     9     8     9 1
    10     9    10 1
    11    10    11 1
    12    11    12 1
    13    11    21 1
    14    12    17 ar
    15    12    13 ar
    16    13    14 ar
    17    14    15 ar
    18    15    16 ar
    19    15    18 1
    20    16    17 ar
    21    18    19 1
    22    18    20 1

@<TRIPOS>MOLECULE
ZINC01001446_replica-1.pdb
 26 27 0 0 0
SMALL
GASTEIGER

@<TRIPOS>ATOM
       1  C1         -2.6710   28.5250   56.8050  C.3       1 <0>        -0.1579
       2  C2         -1.8090   29.7890   56.8260  C.3       1 <0>        -0.1354
       3  C3         -0.3900   29.4470   56.3680  C.3       1 <0>         0.1434
       4  C4          0.5890   30.3940   57.0120  C.2       1 <0>         0.5288
       5  O1          0.6410   30.4820   58.2220  O.2       1 <0>        -0.4969
       6  N1          1.4070   31.1410   56.2470  N.am      1 <0>        -0.5819
       7  N2          2.3180   32.0210   56.8460  N.2       1 <0>        -0.2448
       8  C5          2.4860   33.2120   56.3580  C.2       1 <0>         0.1300
       9  C6          3.4450   34.1380   56.9890  C.ar      1 <0>        -0.1249
      10  C7          4.7880   34.1270   56.6010  C.ar      1 <0>        -0.0245
      11  C8          5.6780   34.9970   57.1890  C.ar      1 <0>        -0.2028
      12  C9          5.2470   35.8780   58.1740  C.ar      1 <0>         0.2335
      13  C10         3.9120   35.8890   58.5660  C.ar      1 <0>        -0.2048
      14  C11         3.0140   35.0250   57.9790  C.ar      1 <0>        -0.0362
      15  N3          6.1540   36.7540   58.7710  N.pl3     1 <0>        -0.6332
      16  C12         7.3640   37.1590   58.0520  C.3       1 <0>         0.0888
      17  C13         5.8950   37.2700   60.1180  C.3       1 <0>         0.0914
      18  N4         -0.3050   29.5720   54.9100  N.pl3     1 <0>        -0.7284
      19  C14        -0.3740   28.4330   54.1060  C.ar      1 <0>         0.2132
      20  C15         0.3910   27.3150   54.4130  C.ar      1 <0>        -0.1931
      21  C16         0.3200   26.1910   53.6160  C.ar      1 <0>        -0.0811
      22  C17        -0.5180   26.1730   52.5150  C.ar      1 <0>        -0.1385
      23  C18        -1.2760   27.2860   52.2020  C.ar      1 <0>        -0.0744
      24  C19        -1.2100   28.4150   52.9960  C.ar      1 <0>        -0.1523
      25  C20        -2.0420   29.6250   52.6580  C.3       1 <0>        -0.1091
      26  C21        -0.5980   24.9420   51.6500  C.3       1 <0>        -0.1073
@<TRIPOS>BOND
     1     1     2 1
     2     2     3 1
     3     3     4 1
     4     3    18 1
     5     4     5 2
     6     4     6 am
     7     6     7 1
     8     7     8 2
     9     8     9 1
    10     9    14 ar
    11     9    10 ar
    12    10    11 ar
    13    11    12 ar
    14    12    13 ar
    15    12    15 1
    16    13    14 ar
    17    15    16 1
    18    15    17 1
    19    18    19 1
    20    19    24 ar
    21    19    20 ar
    22    20    21 ar
    23    21    22 ar
    24    22    23 ar
    25    22    26 1
    26    23    24 ar
    27    24    25 1

@<TRIPOS>MOLECULE
CHEMBL217594_replica-1.pdb
 31 35 0 0 0
SMALL
GASTEIGER

@<TRIPOS>ATOM
       1  C1          6.5180   35.5280   60.0660  C.3       1 <0>         0.0547
       2  N1          7.5320   35.4080   59.0150  N.am      1 <0>        -0.6047
       3  C2          7.1240   35.2960   57.6140  C.3       1 <0>         0.1511
       4  C3          6.1070   34.1920   57.4720  C.ar      1 <0>        -0.0888
       5  C4          4.7860   34.4940   57.1490  C.ar      1 <0>        -0.0333
       6  C5          4.3710   35.8280   56.9480  C.ar      1 <0>        -0.1229
       7  C6          3.0760   36.0870   56.6340  C.ar      1 <0>        -0.1074
       8  C7          2.1340   35.0650   56.5030  C.ar      1 <0>        -0.1205
       9  C8          2.4660   33.7610   56.6830  C.ar      1 <0>        -0.0992
      10  C9          3.7970   33.4200   57.0110  C.ar      1 <0>        -0.0546
      11  C10         4.1710   32.0910   57.2030  C.ar      1 <0>        -0.0844
      12  C11         5.4930   31.7910   57.5270  C.ar      1 <0>        -0.0508
      13  C12         6.4840   32.8640   57.6580  C.ar      1 <0>        -0.0293
      14  C13         7.8150   32.5210   57.9800  C.ar      1 <0>        -0.1010
      15  C14         8.1480   31.2170   58.1540  C.ar      1 <0>        -0.1173
      16  C15         7.2070   30.1950   58.0220  C.ar      1 <0>        -0.1096
      17  C16         5.9080   30.4560   57.7280  C.ar      1 <0>        -0.1154
      18  C17         8.8400   35.4030   59.3390  C.2       1 <0>         0.5292
      19  O1          9.6810   35.4070   58.4660  O.2       1 <0>        -0.5216
      20  C18         9.2580   35.3920   60.7870  C.3       1 <0>        -0.1230
      21  C19        10.2300   36.5540   61.0920  C.3       1 <0>        -0.1434
      22  C20        11.2150   35.9670   62.0790  C.2       1 <0>         0.5224
      23  O2         11.9650   36.6120   62.7800  O.2       1 <0>        -0.5212
      24  N2         11.1350   34.6250   62.0670  N.am      1 <0>        -0.6149
      25  C21        10.1330   34.1580   61.1010  C.3       1 <0>         0.1159
      26  C22        11.9440   33.7410   62.9100  C.3       1 <0>         0.1623
      27  C23        13.3790   33.7040   62.3800  C.3       1 <0>        -0.1335
      28  C24        14.2240   32.7810   63.2600  C.3       1 <0>        -0.1147
      29  C25        13.6350   31.3700   63.2320  C.3       1 <0>        -0.1231
      30  C26        12.2000   31.4060   63.7620  C.3       1 <0>        -0.1147
      31  C27        11.3550   32.3290   62.8810  C.3       1 <0>        -0.1346
@<TRIPOS>BOND
     1     1     2 1
     2     2     3 1
     3     2    18 am
     4     3     4 1
     5     4    13 ar
     6     4     5 ar
     7     5    10 ar
     8     5     6 ar
     9     6     7 ar
    10     7     8 ar
    11     8     9 ar
    12     9    10 ar
    13    10    11 ar
    14    11    12 ar
    15    12    17 ar
    16    12    13 ar
    17    13    14 ar
    18    14    15 ar
    19    15    16 ar
    20    16    17 ar
    21    18    19 2
    22    18    20 1
    23    20    25 1
    24    20    21 1
    25    21    22 1
    26    22    23 2
    27    22    24 am
    28    24    25 1
    29    24    26 1
    30    26    31 1
    31    26    27 1
    32    27    28 1
    33    28    29 1
    34    29    30 1
    35    30    31 1

@<TRIPOS>MOLECULE
ZINC37126217_replica-1.pdb
 21 22 0 0 0
SMALL
GASTEIGER

@<TRIPOS>ATOM
       1  C1          8.3460   32.5040   57.4760  C.3       1 <0>        -0.1647
       2  C2          8.1870   33.8810   58.1230  C.3       1 <0>         0.1924
       3  C3          7.2700   34.7290   57.2790  C.ar      1 <0>        -0.0507
       4  C4          7.7370   35.2950   56.1060  C.ar      1 <0>        -0.1487
       5  C5          6.8990   36.0730   55.3300  C.ar      1 <0>        -0.0748
       6  C6          5.5920   36.2880   55.7240  C.ar      1 <0>        -0.2080
       7  C7          5.1210   35.7220   56.8990  C.ar      1 <0>         0.1312
       8  C8          5.9630   34.9350   57.6730  C.ar      1 <0>        -0.1421
       9  O1          3.8360   35.9310   57.2880  O.3       1 <0>        -0.3170
      10  C9          3.5690   35.8930   58.6920  C.3       1 <0>         0.0267
      11  N1          9.4970   34.5290   58.2230  N.pl3     1 <0>        -0.7370
      12  C10         9.8780   35.1560   59.4150  C.ar      1 <0>         0.1963
      13  C11        10.6090   34.4590   60.3660  C.ar      1 <0>        -0.1700
      14  C12        10.9850   35.0810   61.5410  C.ar      1 <0>        -0.1062
      15  C13        10.6330   36.3990   61.7730  C.ar      1 <0>        -0.1411
      16  C14         9.9050   37.1000   60.8290  C.ar      1 <0>        -0.1648
      17  C15         9.5290   36.4860   59.6460  C.ar      1 <0>         0.0586
      18  O2          8.8180   37.1750   58.7150  O.3       1 <0>        -0.3162
      19  C16         7.9930   38.2430   59.1890  C.3       1 <0>         0.0817
      20  C17         7.6190   39.1540   58.0190  C.3       1 <0>        -0.1804
      21  C18         6.7220   37.6680   59.8150  C.3       1 <0>        -0.1492
@<TRIPOS>BOND
     1     1     2 1
     2     2     3 1
     3     2    11 1
     4     3     8 ar
     5     3     4 ar
     6     4     5 ar
     7     5     6 ar
     8     6     7 ar
     9     7     8 ar
    10     7     9 1
    11     9    10 1
    12    11    12 1
    13    12    17 ar
    14    12    13 ar
    15    13    14 ar
    16    14    15 ar
    17    15    16 ar
    18    16    17 ar
    19    17    18 1
    20    18    19 1
    21    19    20 1
    22    19    21 1

@<TRIPOS>MOLECULE
ZINC01630689_replica-1.pdb
 29 32 0 0 0
SMALL
GASTEIGER

@<TRIPOS>ATOM
       1  C1         -3.0130   28.6110   56.6330  C.3       1 <0>        -0.1537
       2  C2         -2.0060   27.9440   57.5720  C.3       1 <0>         0.0585
       3  O1         -0.7790   27.6680   56.8480  O.3       1 <0>        -0.3459
       4  C3          0.3380   28.2920   57.2760  C.2       1 <0>         0.5192
       5  O2          1.2690   27.6420   57.7090  O.2       1 <0>        -0.4836
       6  C4          0.4280   29.7580   57.2180  C.ar      1 <0>        -0.2032
       7  C5          0.4380   30.5160   58.3970  C.ar      1 <0>         0.1168
       8  C6          0.5270   31.9260   58.2790  C.ar      1 <0>        -0.1427
       9  C7          0.5430   32.7490   59.4130  C.ar      1 <0>        -0.0654
      10  C8          0.6290   34.1010   59.2640  C.ar      1 <0>        -0.1392
      11  C9          0.7040   34.6750   57.9970  C.ar      1 <0>        -0.0700
      12  C10         0.6930   33.9040   56.8750  C.ar      1 <0>        -0.1197
      13  C11         0.6030   32.5060   56.9890  C.ar      1 <0>         0.2083
      14  N1          0.5960   31.7310   55.8970  N.ar      1 <0>        -0.5479
      15  C12         0.5080   30.4210   55.9720  C.ar      1 <0>         0.4654
      16  N2          0.5000   29.6760   54.8080  N.pl3     1 <0>        -0.5067
      17  N3         -0.7120   29.3980   54.1630  N.pl3     1 <0>        -0.5324
      18  C13        -0.8090   28.3050   53.2990  C.ar      1 <0>         0.2164
      19  C14        -0.1710   27.1110   53.6110  C.ar      1 <0>        -0.1859
      20  C15        -0.2690   26.0330   52.7540  C.ar      1 <0>        -0.0641
      21  C16        -1.0010   26.1400   51.5850  C.ar      1 <0>        -0.1756
      22  C17        -1.6360   27.3270   51.2710  C.ar      1 <0>        -0.0651
      23  C18        -1.5430   28.4090   52.1240  C.ar      1 <0>        -0.2027
      24  C19         0.3560   29.8660   59.7230  C.ar      1 <0>        -0.0819
      25  C20         1.5220   29.5410   60.4180  C.ar      1 <0>        -0.0878
      26  C21         1.4390   28.9400   61.6570  C.ar      1 <0>        -0.1192
      27  C22         0.2020   28.6490   62.2050  C.ar      1 <0>        -0.1030
      28  C23        -0.9580   28.9650   61.5200  C.ar      1 <0>        -0.1173
      29  C24        -0.8880   29.5710   60.2830  C.ar      1 <0>        -0.0896
@<TRIPOS>BOND
     1     1     2 1
     2     2     3 1
     3     3     4 1
     4     4     5 2
     5     4     6 1
     6     6    15 ar
     7     6     7 ar
     8     7     8 ar
     9     7    24 1
    10     8    13 ar
    11     8     9 ar
    12     9    10 ar
    13    10    11 ar
    14    11    12 ar
    15    12    13 ar
    16    13    14 ar
    17    14    15 ar
    18    15    16 1
    19    16    17 1
    20    17    18 1
    21    18    23 ar
    22    18    19 ar
    23    19    20 ar
    24    20    21 ar
    25    21    22 ar
    26    22    23 ar
    27    24    29 ar
    28    24    25 ar
    29    25    26 ar
    30    26    27 ar
    31    27    28 ar
    32    28    29 ar

@<TRIPOS>MOLECULE
ZINC16840745_replica-1.pdb
 25 27 0 0 0
SMALL
GASTEIGER

@<TRIPOS>ATOM
       1  C1          3.9220   35.4580   54.9210  C.3       1 <0>         0.0205
       2  O1          4.3490   36.2670   56.0200  O.3       1 <0>        -0.2894
       3  C2          5.6850   36.3150   56.2670  C.ar      1 <0>         0.1600
       4  C3          6.4710   37.2590   55.6450  C.ar      1 <0>        -0.1981
       5  C4          7.8400   37.3180   55.8880  C.ar      1 <0>        -0.0638
       6  C5          8.4330   36.4510   56.7550  C.ar      1 <0>        -0.1265
       7  C6          7.6620   35.4840   57.4150  C.ar      1 <0>        -0.0718
       8  C7          6.2710   35.4080   57.1730  C.ar      1 <0>         0.1292
       9  N1          5.5240   34.4910   57.8030  N.ar      1 <0>        -0.4362
      10  C8          6.0410   33.6370   58.6490  C.ar      1 <0>         0.1657
      11  C9          7.4130   33.6360   58.9460  C.ar      1 <0>        -0.0680
      12  C10         8.2520   34.5700   58.3210  C.ar      1 <0>         0.2520
      13  N2          9.6060   34.6020   58.5860  N.pl3     1 <0>        -0.7007
      14  C11        10.0740   35.1790   59.7700  C.ar      1 <0>         0.2040
      15  C12         9.6130   36.4290   60.1640  C.ar      1 <0>        -0.1485
      16  C13        10.0750   36.9950   61.3360  C.ar      1 <0>        -0.0723
      17  C14        10.9930   36.3180   62.1180  C.ar      1 <0>        -0.1135
      18  C15        11.4580   35.0770   61.7260  C.ar      1 <0>        -0.1370
      19  C16        10.9980   34.5040   60.5550  C.ar      1 <0>        -0.1310
      20  C17        12.4620   34.3440   62.5790  C.3       1 <0>         0.5082
      21  F1         13.7090   34.3560   61.9430  F         1 <0>        -0.1744
      22  F2         12.0430   33.0230   62.7600  F         1 <0>        -0.1765
      23  F3         12.5650   34.9760   63.8220  F         1 <0>        -0.1745
      24  C18         7.9520   32.6900   59.8780  C.1       1 <0>         0.2506
      25  N3          8.3780   31.9400   60.6160  N.1       1 <0>        -0.3868
@<TRIPOS>BOND
     1     1     2 1
     2     2     3 1
     3     3     8 ar
     4     3     4 ar
     5     4     5 ar
     6     5     6 ar
     7     6     7 ar
     8     7    12 ar
     9     7     8 ar
    10     8     9 ar
    11     9    10 ar
    12    10    11 ar
    13    11    12 ar
    14    11    24 1
    15    12    13 1
    16    13    14 1
    17    14    19 ar
    18    14    15 ar
    19    15    16 ar
    20    16    17 ar
    21    17    18 ar
    22    18    19 ar
    23    18    20 1
    24    20    21 1
    25    20    22 1
    26    20    23 1
    27    24    25 3

@<TRIPOS>MOLECULE
ZINC37188376_replica-1.pdb
 20 21 0 0 0
SMALL
GASTEIGER

@<TRIPOS>ATOM
       1  C1         -0.4670   24.8390   51.4040  C.3       1 <0>        -0.1185
       2  C2         -0.5580   26.0830   52.2500  C.ar      1 <0>        -0.0449
       3  C3         -1.2700   27.1770   51.7960  C.ar      1 <0>        -0.1523
       4  C4         -1.3560   28.3190   52.5690  C.ar      1 <0>        -0.0731
       5  C5         -0.7280   28.3700   53.7990  C.ar      1 <0>        -0.1286
       6  C6         -0.0110   27.2740   54.2570  C.ar      1 <0>         0.1412
       7  C7          0.0670   26.1270   53.4810  C.ar      1 <0>        -0.2051
       8  O1          0.6070   27.3230   55.4650  O.3       1 <0>        -0.3139
       9  C8          0.1070   26.4570   56.4850  C.3       1 <0>         0.0262
      10  C9         -0.8200   29.6170   54.6410  C.3       1 <0>         0.2007
      11  C10        -1.5710   30.7010   53.8670  C.3       1 <0>        -0.1608
      12  N1          0.5290   30.0910   54.9620  N.pl3     1 <0>        -0.7408
      13  C11         0.7450   30.8600   56.1080  C.ar      1 <0>         0.2385
      14  C12         0.4520   30.3370   57.3610  C.ar      1 <0>        -0.2016
      15  C13         0.6650   31.0970   58.4960  C.ar      1 <0>        -0.0524
      16  C14         1.1710   32.3780   58.3880  C.ar      1 <0>        -0.1935
      17  C15         1.4680   32.9060   57.1370  C.ar      1 <0>        -0.0342
      18  C16         1.2600   32.1430   55.9960  C.ar      1 <0>        -0.1783
      19  S1          2.1140   34.5400   57.0000  S.3       1 <0>        -0.1232
      20  C17         0.6390   35.5940   56.9590  C.3       1 <0>        -0.1421
@<TRIPOS>BOND
     1     1     2 1
     2     2     7 ar
     3     2     3 ar
     4     3     4 ar
     5     4     5 ar
     6     5     6 ar
     7     5    10 1
     8     6     7 ar
     9     6     8 1
    10     8     9 1
    11    10    11 1
    12    10    12 1
    13    12    13 1
    14    13    18 ar
    15    13    14 ar
    16    14    15 ar
    17    15    16 ar
    18    16    17 ar
    19    17    18 ar
    20    17    19 1
    21    19    20 1

@<TRIPOS>MOLECULE
ZINC58775208_replica-1.pdb
 31 33 0 0 0
SMALL
GASTEIGER

@<TRIPOS>ATOM
       1  C1          0.1290   32.9620   57.8600  C.3       1 <0>        -0.1537
       2  C2          0.3050   33.9900   58.9800  C.3       1 <0>         0.0535
       3  O1          0.7570   35.2270   58.4260  O.3       1 <0>        -0.3149
       4  C3          2.0920   35.3510   58.2020  C.ar      1 <0>         0.1372
       5  C4          2.5500   35.9150   57.0190  C.ar      1 <0>        -0.2040
       6  C5          3.9060   36.0390   56.7950  C.ar      1 <0>        -0.0604
       7  C6          4.8100   35.6040   57.7470  C.ar      1 <0>        -0.1302
       8  C7          4.3560   35.0420   58.9260  C.ar      1 <0>        -0.0700
       9  C8          3.0000   34.9200   59.1580  C.ar      1 <0>        -0.1468
      10  C9          6.2890   35.7410   57.4980  C.3       1 <0>         0.2366
      11  C10         6.9210   34.3740   57.4570  C.ar      1 <0>        -0.0914
      12  C11         6.5890   33.4890   56.4480  C.ar      1 <0>        -0.1041
      13  C12         7.1680   32.2350   56.4100  C.ar      1 <0>        -0.1197
      14  C13         8.0800   31.8650   57.3810  C.ar      1 <0>        -0.1176
      15  C14         8.4120   32.7500   58.3900  C.ar      1 <0>        -0.1177
      16  C15         7.8350   34.0060   58.4250  C.ar      1 <0>        -0.1016
      17  N1          6.8940   36.5260   58.5780  N.am      1 <0>        -0.7183
      18  C16         7.7840   37.4960   58.2890  C.2       1 <0>         0.5143
      19  O2          8.0830   37.7210   57.1350  O.2       1 <0>        -0.5280
      20  C17         8.4060   38.3040   59.3990  C.3       1 <0>         0.1004
      21  N2          9.5270   37.5580   59.9760  N.am      1 <0>        -0.7153
      22  C18         9.3280   36.7620   61.0460  C.2       1 <0>         0.5526
      23  O3          8.2160   36.6640   61.5320  O.2       1 <0>        -0.5450
      24  C19        10.4480   36.0170   61.6230  C.2       1 <0>        -0.2158
      25  C20        10.5640   34.6930   61.3980  C.2       1 <0>        -0.0112
      26  C21        11.6900   33.9440   61.9780  C.ar      1 <0>        -0.0808
      27  C22        12.9840   34.4720   61.9320  C.ar      1 <0>        -0.1003
      28  C23        14.0340   33.7650   62.4770  C.ar      1 <0>        -0.1226
      29  C24        13.8100   32.5330   63.0690  C.ar      1 <0>        -0.1068
      30  C25        12.5330   32.0030   63.1190  C.ar      1 <0>        -0.1229
      31  C26        11.4710   32.7020   62.5820  C.ar      1 <0>        -0.0935
@<TRIPOS>BOND
     1     1     2 1
     2     2     3 1
     3     3     4 1
     4     4     9 ar
     5     4     5 ar
     6     5     6 ar
     7     6     7 ar
     8     7     8 ar
     9     7    10 1
    10     8     9 ar
    11    10    11 1
    12    10    17 1
    13    11    16 ar
    14    11    12 ar
    15    12    13 ar
    16    13    14 ar
    17    14    15 ar
    18    15    16 ar
    19    17    18 am
    20    18    19 2
    21    18    20 1
    22    20    21 1
    23    21    22 am
    24    22    23 2
    25    22    24 1
    26    24    25 2
    27    25    26 1
    28    26    31 ar
    29    26    27 ar
    30    27    28 ar
    31    28    29 ar
    32    29    30 ar
    33    30    31 ar

@<TRIPOS>MOLECULE
ZINC32129225_replica-1.pdb
 21 22 0 0 0
SMALL
GASTEIGER

@<TRIPOS>ATOM
       1  C1         -0.5840   24.3950   51.3530  C.3       1 <0>        -0.1076
       2  C2         -0.6510   25.7480   52.0120  C.ar      1 <0>        -0.1470
       3  C3         -1.2750   26.8000   51.3670  C.ar      1 <0>        -0.0750
       4  C4         -1.3330   28.0430   51.9650  C.ar      1 <0>        -0.1982
       5  C5         -0.7750   28.2330   53.2240  C.ar      1 <0>         0.2194
       6  C6         -0.1540   27.1730   53.8720  C.ar      1 <0>        -0.1615
       7  C7         -0.0940   25.9340   53.2650  C.ar      1 <0>        -0.0722
       8  C8          0.4530   27.3740   55.2370  C.3       1 <0>        -0.1072
       9  N1         -0.8370   29.4870   53.8350  N.pl3     1 <0>        -0.7510
      10  C9         -2.1280   30.0310   54.2640  C.3       1 <0>         0.1438
      11  C10        -1.9710   30.6960   55.6330  C.3       1 <0>         0.1530
      12  C11        -1.9030   29.6360   56.7020  C.ar      1 <0>        -0.1336
      13  C12        -2.8380   28.6190   56.7270  C.ar      1 <0>        -0.0921
      14  C13        -2.7720   27.6430   57.7050  C.ar      1 <0>        -0.1169
      15  C14        -1.7780   27.6910   58.6630  C.ar      1 <0>        -0.0682
      16  C15        -0.8460   28.7130   58.6410  C.ar      1 <0>        -0.1200
      17  C16        -0.9080   29.6850   57.6600  C.ar      1 <0>        -0.1043
      18  C17        -1.7100   26.6320   59.7330  C.3       1 <0>        -0.0602
      19  C18        -3.0940   26.4480   60.3570  C.3       1 <0>        -0.1461
      20  C19        -1.2500   25.3110   59.1130  C.3       1 <0>        -0.1465
      21  O1         -3.0910   31.5490   55.8780  O.3       1 <0>        -0.5889
@<TRIPOS>BOND
     1     1     2 1
     2     2     7 ar
     3     2     3 ar
     4     3     4 ar
     5     4     5 ar
     6     5     6 ar
     7     5     9 1
     8     6     7 ar
     9     6     8 1
    10     9    10 1
    11    10    11 1
    12    11    12 1
    13    11    21 1
    14    12    17 ar
    15    12    13 ar
    16    13    14 ar
    17    14    15 ar
    18    15    16 ar
    19    15    18 1
    20    16    17 ar
    21    18    19 1
    22    18    20 1

@<TRIPOS>MOLECULE
ZINC66323794_replica-1.pdb
 26 29 0 0 0
SMALL
GASTEIGER

@<TRIPOS>ATOM
       1  C1          3.7460   34.9140   54.8600  C.ar      1 <0>        -0.1033
       2  C2          4.8080   34.0450   54.6930  C.ar      1 <0>        -0.1197
       3  C3          6.0660   34.3950   55.1480  C.ar      1 <0>        -0.0918
       4  C4          6.2610   35.6140   55.7680  C.ar      1 <0>        -0.0961
       5  C5          5.1990   36.4840   55.9340  C.ar      1 <0>        -0.0780
       6  C6          3.9420   36.1330   55.4810  C.ar      1 <0>        -0.1184
       7  C7          7.6320   35.9960   56.2640  C.3       1 <0>         0.1388
       8  C8          7.9620   35.2690   57.5900  C.3       1 <0>         0.3595
       9  N1          8.6990   36.3060   58.3390  N.am      1 <0>        -0.5972
      10  C9          8.4870   37.4860   57.7240  C.2       1 <0>         0.6492
      11  O1          8.9830   38.5320   58.0880  O.2       1 <0>        -0.4880
      12  O2          7.6680   37.3800   56.6620  O.3       1 <0>        -0.3054
      13  C10         9.4760   36.1010   59.4860  C.ar      1 <0>         0.1435
      14  C11         9.4490   37.0280   60.5190  C.ar      1 <0>        -0.0898
      15  C12        10.2180   36.8240   61.6490  C.ar      1 <0>        -0.1400
      16  C13        11.0130   35.6950   61.7520  C.ar      1 <0>         0.1092
      17  C14        11.0420   34.7700   60.7220  C.ar      1 <0>        -0.1390
      18  C15        10.2700   34.9670   59.5930  C.ar      1 <0>        -0.0735
      19  F1         11.7640   35.4980   62.8570  F         1 <0>        -0.1329
      20  C16         6.7010   34.8770   58.3150  C.ar      1 <0>        -0.1270
      21  C17         6.2620   33.5670   58.2790  C.ar      1 <0>        -0.0932
      22  C18         5.1050   33.2070   58.9440  C.ar      1 <0>        -0.1178
      23  C19         4.3880   34.1570   59.6470  C.ar      1 <0>        -0.1012
      24  C20         4.8280   35.4670   59.6840  C.ar      1 <0>        -0.1165
      25  C21         5.9870   35.8260   59.0220  C.ar      1 <0>        -0.0790
      26  O3          8.7910   34.1300   57.3530  O.3       1 <0>        -0.5288
@<TRIPOS>BOND
     1     1     6 ar
     2     1     2 ar
     3     2     3 ar
     4     3     4 ar
     5     4     5 ar
     6     4     7 1
     7     5     6 ar
     8     7    12 1
     9     7     8 1
    10     8     9 1
    11     8    20 1
    12     8    26 1
    13     9    10 am
    14     9    13 1
    15    10    11 2
    16    10    12 1
    17    13    18 ar
    18    13    14 ar
    19    14    15 ar
    20    15    16 ar
    21    16    17 ar
    22    16    19 1
    23    17    18 ar
    24    20    25 ar
    25    20    21 ar
    26    21    22 ar
    27    22    23 ar
    28    23    24 ar
    29    24    25 ar

@<TRIPOS>MOLECULE
ZINC47334405_replica-1.pdb
 29 31 0 0 0
SMALL
GASTEIGER

@<TRIPOS>ATOM
       1  C1          8.1120   36.3810   55.4910  C.3       1 <0>        -0.1602
       2  C2          7.2210   36.4960   56.7290  C.3       1 <0>         0.2030
       3  C3          8.0830   36.6290   57.9580  C.ar      1 <0>        -0.0538
       4  C4          8.1000   37.8180   58.6650  C.ar      1 <0>        -0.1509
       5  C5          8.8890   37.9420   59.7930  C.ar      1 <0>        -0.0724
       6  C6          9.6630   36.8800   60.2170  C.ar      1 <0>        -0.2052
       7  C7          9.6470   35.6860   59.5100  C.ar      1 <0>         0.1381
       8  C8          8.8500   35.5610   58.3810  C.ar      1 <0>        -0.1362
       9  O1         10.4080   34.6390   59.9250  O.3       1 <0>        -0.3116
      10  C9         10.0770   34.0560   61.1870  C.3       1 <0>         0.1146
      11  C10        11.3390   33.6090   61.8800  C.ar      1 <0>         0.1196
      12  C11        12.4520   34.4280   61.8670  C.ar      1 <0>        -0.1495
      13  C12        13.6070   34.0080   62.5080  C.ar      1 <0>        -0.0737
      14  C13        13.5990   32.7750   63.1410  C.ar      1 <0>        -0.1709
      15  C14        12.4480   32.0100   63.1120  C.ar      1 <0>         0.1046
      16  N1         11.3650   32.4450   62.4970  N.ar      1 <0>        -0.4808
      17  N2          6.3880   35.2960   56.8450  N.am      1 <0>        -0.7354
      18  C15         5.2410   35.3380   57.5490  C.2       1 <0>         0.7059
      19  O2          4.8960   36.3710   58.0900  O.2       1 <0>        -0.5668
      20  N3          4.4750   34.2330   57.6570  N.am      1 <0>        -0.6823
      21  C16         3.3450   34.2420   58.4830  C.ar      1 <0>         0.1691
      22  C17         2.2140   34.9550   58.1080  C.ar      1 <0>        -0.1283
      23  C18         1.1010   34.9610   58.9240  C.ar      1 <0>        -0.1026
      24  C19         1.1120   34.2600   60.1160  C.ar      1 <0>        -0.1379
      25  C20         2.2360   33.5500   60.4940  C.ar      1 <0>        -0.0946
      26  C21         3.3510   33.5340   59.6770  C.ar      1 <0>        -0.1112
      27  C22         4.5740   32.7550   60.0860  C.3       1 <0>        -0.0515
      28  C23         5.3370   33.5290   61.1630  C.3       1 <0>        -0.1460
      29  C24         4.1490   31.3930   60.6410  C.3       1 <0>        -0.1430
@<TRIPOS>BOND
     1     1     2 1
     2     2     3 1
     3     2    17 1
     4     3     8 ar
     5     3     4 ar
     6     4     5 ar
     7     5     6 ar
     8     6     7 ar
     9     7     8 ar
    10     7     9 1
    11     9    10 1
    12    10    11 1
    13    11    16 ar
    14    11    12 ar
    15    12    13 ar
    16    13    14 ar
    17    14    15 ar
    18    15    16 ar
    19    17    18 am
    20    18    19 2
    21    18    20 am
    22    20    21 1
    23    21    26 ar
    24    21    22 ar
    25    22    23 ar
    26    23    24 ar
    27    24    25 ar
    28    25    26 ar
    29    26    27 1
    30    27    28 1
    31    27    29 1

@<TRIPOS>MOLECULE
ZINC38070099_replica-1.pdb
 20 21 0 0 0
SMALL
GASTEIGER

@<TRIPOS>ATOM
       1  C1          6.5330   35.5490   55.4650  C.3       1 <0>        -0.1858
       2  C2          7.5880   36.6270   55.2110  C.3       1 <0>         0.0231
       3  C3          7.0300   37.9930   55.6160  C.3       1 <0>        -0.1845
       4  N1          8.7890   36.3330   56.0050  N.4       1 <0>        -0.5073
       5  C4          8.4650   35.3320   57.0300  C.3       1 <0>         0.0434
       6  C5          8.9880   35.7930   58.3660  C.ar      1 <0>        -0.1566
       7  C6          8.7300   37.0800   58.8000  C.ar      1 <0>        -0.1080
       8  C7          9.2080   37.5110   60.0250  C.ar      1 <0>        -0.1039
       9  C8          9.9450   36.6560   60.8210  C.ar      1 <0>        -0.0917
      10  C9         10.2070   35.3580   60.3870  C.ar      1 <0>        -0.0047
      11  C10         9.7190   34.9280   59.1550  C.ar      1 <0>        -0.1030
      12  C11        10.9990   34.4350   61.2370  C.ar      1 <0>        -0.1372
      13  C12        10.4660   33.2030   61.6150  C.ar      1 <0>        -0.0512
      14  C13        11.2040   32.3470   62.4040  C.ar      1 <0>        -0.1999
      15  C14        12.4780   32.7110   62.8230  C.ar      1 <0>         0.2348
      16  C15        13.0120   33.9380   62.4480  C.ar      1 <0>        -0.1995
      17  C16        12.2800   34.7960   61.6540  C.ar      1 <0>        -0.0475
      18  N2         13.2230   31.8430   63.6230  N.pl3     1 <0>        -0.6305
      19  C17        14.5680   32.2230   64.0610  C.3       1 <0>         0.0878
      20  C18        12.6600   30.5500   64.0240  C.3       1 <0>         0.0818
@<TRIPOS>BOND
     1     1     2 1
     2     2     3 1
     3     2     4 1
     4     4     5 1
     5     5     6 1
     6     6    11 ar
     7     6     7 ar
     8     7     8 ar
     9     8     9 ar
    10     9    10 ar
    11    10    11 ar
    12    10    12 1
    13    12    17 ar
    14    12    13 ar
    15    13    14 ar
    16    14    15 ar
    17    15    16 ar
    18    15    18 1
    19    16    17 ar
    20    18    19 1
    21    18    20 1

@<TRIPOS>MOLECULE
ZINC06734306_replica-1.pdb
 29 32 0 0 0
SMALL
GASTEIGER

@<TRIPOS>ATOM
       1  C1         -1.0880   25.2990   51.2180  C.3       1 <0>        -0.1471
       2  C2         -1.0920   26.7880   51.5700  C.3       1 <0>        -0.0829
       3  C3         -0.5500   26.9770   52.9640  C.ar      1 <0>        -0.0928
       4  C4          0.1920   25.9800   53.5580  C.ar      1 <0>        -0.0987
       5  C5          0.6980   26.1430   54.8400  C.ar      1 <0>        -0.1415
       6  C6          0.4680   27.2960   55.5360  C.ar      1 <0>        -0.0741
       7  C7         -0.2770   28.3220   54.9510  C.ar      1 <0>        -0.0947
       8  C8         -0.7960   28.1600   53.6540  C.ar      1 <0>         0.1035
       9  N1         -1.4820   29.3120   53.3430  N.pl3     1 <0>        -0.5912
      10  C9         -1.4200   30.1880   54.3940  C.2       1 <0>         0.0567
      11  C10        -0.7090   29.6480   55.3970  C.2       1 <0>        -0.1607
      12  C11        -0.4070   30.2900   56.7270  C.3       1 <0>         0.0480
      13  C12        -1.0700   31.6670   56.7910  C.3       1 <0>        -0.1306
      14  C13        -0.0300   32.7100   57.1090  C.2       1 <0>         0.5067
      15  O1          1.0550   32.6690   56.5680  O.2       1 <0>        -0.5198
      16  N2         -0.3050   33.6890   57.9940  N.am      1 <0>        -0.7343
      17  C14         0.7060   34.7040   58.3020  C.3       1 <0>         0.1243
      18  C15         1.2230   34.4900   59.7250  C.3       1 <0>        -0.1082
      19  C16         0.1410   33.8090   60.5650  C.3       1 <0>        -0.1466
      20  C17         2.4710   33.6050   59.6880  C.3       1 <0>        -0.1494
      21  C18        -0.9440   29.4220   57.8350  C.ar      1 <0>        -0.0438
      22  C19        -1.9620   28.5230   57.5780  C.ar      1 <0>        -0.1170
      23  C20        -2.4570   27.7260   58.5930  C.ar      1 <0>        -0.1128
      24  C21        -1.9360   27.8230   59.8700  C.ar      1 <0>        -0.1067
      25  C22        -0.9150   28.7210   60.1350  C.ar      1 <0>         0.0285
      26  C23        -0.4170   29.5250   59.1130  C.ar      1 <0>         0.0709
      27  O2          0.5720   30.3150   59.6220  O.3       1 <0>        -0.2928
      28  C24         0.9530   29.7000   60.8670  C.3       1 <0>         0.2114
      29  O3         -0.2350   29.0050   61.2840  O.3       1 <0>        -0.3108
@<TRIPOS>BOND
     1     1     2 1
     2     2     3 1
     3     3     8 ar
     4     3     4 ar
     5     4     5 ar
     6     5     6 ar
     7     6     7 ar
     8     7    11 1
     9     7     8 ar
    10     8     9 1
    11     9    10 1
    12    10    11 2
    13    11    12 1
    14    12    13 1
    15    12    21 1
    16    13    14 1
    17    14    15 2
    18    14    16 am
    19    16    17 1
    20    17    18 1
    21    18    19 1
    22    18    20 1
    23    21    26 ar
    24    21    22 ar
    25    22    23 ar
    26    23    24 ar
    27    24    25 ar
    28    25    29 1
    29    25    26 ar
    30    26    27 1
    31    27    28 1
    32    28    29 1

@<TRIPOS>MOLECULE
ZINC37060108_replica-1.pdb
 21 22 0 0 0
SMALL
GASTEIGER

@<TRIPOS>ATOM
      1  N1        10.6810   34.6120   60.1110 N.pl3   0  <0>0       -0.3284
      2  H6        11.5280   34.4120   59.6820 H       0  <0>0        0.1471
      3  C7        10.2370   33.8200   61.2600 C.3     0  <0>0        0.1143
      4  C6        11.4380   33.3140   62.0160 C.ar    0  <0>0       -0.0020
      5  C1        12.6000   34.0610   62.0470 C.ar    0  <0>0       -0.0003
      6  C2        13.7030   33.5980   62.7400 C.ar    0  <0>0        0.0299
      7  C3        13.6430   32.3840   63.4040 C.ar    0  <0>0        0.1462
      8  C4        12.4780   31.6360   63.3730 C.ar    0  <0>0        0.0617
      9  F1        14.7210   31.9310   64.0810 F       0  <0>0       -0.2037
     10  C5        11.3770   32.1020   62.6790 C.ar    0  <0>0        0.0063
     11 Br         12.3940   29.9780   64.2790 Br      0  <0>0       -0.0467
     12  C8         9.8850   35.6560   59.6330 C.ar    0  <0>0        0.0572
     13  C13        9.7180   36.8090   60.3910 C.ar    0  <0>0        0.0708
     14  C12        8.9340   37.8410   59.9120 C.ar    0  <0>0        0.0143
     15 Cl         10.4970   36.9540   61.9360 Cl      0  <0>0       -0.0810
     16  C11        8.3080   37.7240   58.6850 C.ar    0  <0>0        0.0250
     17  C10        8.4690   36.5760   57.9300 C.ar    0  <0>0        0.1442
     18  C9         9.2550   35.5430   58.4010 C.ar    0  <0>0        0.0392
     19  N2         7.7970   36.4550   56.6170 N.pl3   0  <0>0        0.0577
     20  O1         8.4390   36.1640   55.6350 O.2     0  <0>0       -0.1261
     21  O2         6.6070   36.6460   56.5280 O.2     0  <0>0       -0.1261
@<TRIPOS>BOND
     1    20    19    2
     2    21    19    2
     3    19    17    1
     4    17    18   ar
     5    17    16   ar
     6    18    12   ar
     7    16    14   ar
     8    12     1    1
     9    12    13   ar
    10     2     1    1
    11    14    13   ar
    12     1     3    1
    13    13    15    1
    14     3     4    1
    15     4     5   ar
    16     4    10   ar
    17     5     6   ar
    18    10     8   ar
    19     6     7   ar
    20     8     7   ar
    21     8    11    1
    22     7     9    1


@<TRIPOS>MOLECULE
ZINC37199954_replica-1.pdb
 21 22 0 0 0
SMALL
GASTEIGER

@<TRIPOS>ATOM
       1  C1         -2.4540   28.0790   57.6010  C.3       1 <0>        -0.1636
       2  C2         -0.9600   28.1490   57.9250  C.3       1 <0>         0.1988
       3  C3         -0.7560   28.9470   59.1870  C.ar      1 <0>        -0.1510
       4  C4          0.0550   30.0670   59.1710  C.ar      1 <0>        -0.0625
       5  C5          0.2450   30.8010   60.3260  C.ar      1 <0>        -0.1949
       6  C6         -0.3810   30.4120   61.5040  C.ar      1 <0>         0.2163
       7  C7         -1.1950   29.2860   61.5160  C.ar      1 <0>        -0.1944
       8  C8         -1.3840   28.5610   60.3560  C.ar      1 <0>        -0.0588
       9  N1         -0.1910   31.1520   62.6740  N.pl3     1 <0>        -0.6385
      10  C9          0.3280   32.5200   62.6000  C.3       1 <0>         0.0917
      11  C10        -0.5110   30.5590   63.9750  C.3       1 <0>         0.0916
      12  N2         -0.2510   28.7950   56.8180  N.pl3     1 <0>        -0.7419
      13  C11        -0.3540   28.2770   55.5240  C.ar      1 <0>         0.2163
      14  C12         0.2390   27.0610   55.2130  C.ar      1 <0>        -0.1972
      15  C13         0.1340   26.5510   53.9340  C.ar      1 <0>        -0.0695
      16  C14        -0.5590   27.2500   52.9640  C.ar      1 <0>        -0.1366
      17  C15        -1.1510   28.4620   53.2700  C.ar      1 <0>        -0.0653
      18  C16        -1.0550   28.9750   54.5490  C.ar      1 <0>        -0.1954
      19  C17        -0.6720   26.6910   51.5690  C.3       1 <0>        -0.0500
      20  C18        -0.7820   25.1660   51.6370  C.3       1 <0>        -0.1441
      21  C19        -1.9170   27.2630   50.8890  C.3       1 <0>        -0.1442
@<TRIPOS>BOND
     1     1     2 1
     2     2     3 1
     3     2    12 1
     4     3     8 ar
     5     3     4 ar
     6     4     5 ar
     7     5     6 ar
     8     6     7 ar
     9     6     9 1
    10     7     8 ar
    11     9    10 1
    12     9    11 1
    13    12    13 1
    14    13    18 ar
    15    13    14 ar
    16    14    15 ar
    17    15    16 ar
    18    16    17 ar
    19    16    19 1
    20    17    18 ar
    21    19    20 1
    22    19    21 1

@<TRIPOS>MOLECULE
ZINC33318829_replica-1.pdb
 24 25 0 0 0
SMALL
GASTEIGER

@<TRIPOS>ATOM
       1  C1          0.6330   27.1940   54.8160  C.3       1 <0>        -0.1140
       2  C2         -0.0690   26.7660   53.5530  C.ar      1 <0>        -0.0919
       3  C3         -0.0140   25.4480   53.1440  C.ar      1 <0>        -0.1158
       4  C4         -0.6540   25.0560   51.9830  C.ar      1 <0>        -0.1107
       5  C5         -1.3540   25.9810   51.2310  C.ar      1 <0>        -0.1165
       6  C6         -1.4180   27.3000   51.6390  C.ar      1 <0>        -0.0909
       7  C7         -0.7760   27.6950   52.8040  C.ar      1 <0>         0.0826
       8  O1         -0.8360   28.9920   53.2070  O.3       1 <0>        -0.3011
       9  C8         -2.0750   29.4430   53.7570  C.3       1 <0>         0.0502
      10  C9         -1.8080   30.2670   54.9890  C.2       1 <0>         0.5256
      11  O2         -2.6790   30.9820   55.4410  O.2       1 <0>        -0.4789
      12  N1         -0.6040   30.2110   55.5910  N.am      1 <0>        -0.5985
      13  N2         -0.3560   30.9760   56.7370  N.2       1 <0>        -0.2203
      14  C10        -0.5820   30.4770   57.9130  C.2       1 <0>         0.1092
      15  C11        -0.6350   29.0150   58.0950  C.ar      1 <0>        -0.1049
      16  C12         0.5450   28.2860   58.2670  C.ar      1 <0>        -0.0837
      17  C13         0.4890   26.9190   58.4420  C.ar      1 <0>        -0.1100
      18  C14        -0.7320   26.2680   58.4370  C.ar      1 <0>        -0.0599
      19  C15        -1.9040   26.9820   58.2610  C.ar      1 <0>        -0.1114
      20  C16        -1.8630   28.3500   58.0910  C.ar      1 <0>        -0.1364
      21  C17        -0.7850   24.7740   58.6240  C.3       1 <0>        -0.0617
      22  C18        -2.2440   24.3240   58.7310  C.3       1 <0>        -0.1474
      23  C19        -0.1260   24.0860   57.4270  C.3       1 <0>        -0.1470
      24  C20        -2.1820   28.3070   50.8190  C.3       1 <0>        -0.1218
@<TRIPOS>BOND
     1     1     2 1
     2     2     7 ar
     3     2     3 ar
     4     3     4 ar
     5     4     5 ar
     6     5     6 ar
     7     6     7 ar
     8     6    24 1
     9     7     8 1
    10     8     9 1
    11     9    10 1
    12    10    11 2
    13    10    12 am
    14    12    13 1
    15    13    14 2
    16    14    15 1
    17    15    20 ar
    18    15    16 ar
    19    16    17 ar
    20    17    18 ar
    21    18    19 ar
    22    18    21 1
    23    19    20 ar
    24    21    22 1
    25    21    23 1

@<TRIPOS>MOLECULE
ZINC59247891_replica-1.pdb
 26 27 0 0 0
SMALL
GASTEIGER

@<TRIPOS>ATOM
      1  C3        13.9370   33.6050   63.6230 C.ar    0  <0>0        0.1717
      2  C4        12.9320   34.2810   62.9610 C.ar    0  <0>0        0.0416
      3  C5        11.8870   33.5670   62.3660 C.ar    0  <0>0        0.0220
      4  C6        11.8650   32.1700   62.4450 C.ar    0  <0>0        0.0008
      5  C7        12.8720   31.5030   63.1080 C.ar    0  <0>0        0.0190
      6  C8        13.9130   32.2130   63.6930 C.ar    0  <0>0        0.1639
      7  C12       10.8120   34.2820   61.6590 C.2     0  <0>0        0.0989
      8  N1        11.0410   34.8080   60.4880 N.2     0  <0>0       -0.2430
      9  C13       10.0420   35.4730   59.8310 C.ar    0  <0>0        0.0921
     10  C18        9.3830   36.5400   60.4520 C.ar    0  <0>0        0.0752
     11  C17        8.3770   37.2160   59.7870 C.ar    0  <0>0        0.0131
     12 Cl          9.8340   37.0190   62.0590 Cl      0  <0>0       -0.0807
     13  C16        8.0090   36.8390   58.5120 C.ar    0  <0>0        0.0075
     14  C15        8.6550   35.7710   57.8810 C.ar    0  <0>0        0.0813
     15  C14        9.6740   35.0870   58.5430 C.ar    0  <0>0        0.0265
     16  C19        8.2600   35.3700   56.5180 C.2     0  <0>0        0.3878
     17  O3         7.6860   34.3050   56.3360 O.co2   0  <0>0       -0.2406
     18  O4         8.5050   36.1020   55.5690 O.co2   0  <0>0       -0.2406
     19  O1        14.9550   34.2960   64.2030 O.3     0  <0>0       -0.4724
     20  C2        16.2270   34.2430   63.5520 C.3     0  <0>0        0.2057
     21  C1        17.3290   34.5760   64.5600 C.3     0  <0>0        0.0512
     22  C9        12.8480   29.9990   63.1940 C.3     0  <0>0        0.0555
     23  C10       11.9230   29.5730   64.3040 C.2     0  <0>0       -0.0213
     24  C11       12.4160   29.1580   65.4450 C.2     0  <0>0       -0.0046
     25  O2        14.9050   31.5490   64.3400 O.3     0  <0>0       -0.5031
     26  H8        14.6400   30.6860   64.6860 H       0  <0>0        0.2923
@<TRIPOS>BOND
     1    18    16   ar
     2    17    16   ar
     3    16    14    1
     4    14    13   ar
     5    14    15   ar
     6    13    11   ar
     7    15     9   ar
     8    11    10   ar
     9     9    10   ar
    10     9     8    1
    11    10    12    1
    12     8     7    2
    13     7     3    1
    14     3     4   ar
    15     3     2   ar
    16     4     5   ar
    17     2     1   ar
    18     5    22    1
    19     5     6   ar
    20    22    23    1
    21    20    19    1
    22    20    21    1
    23     1     6   ar
    24     1    19    1
    25     6    25    1
    26    23    24    2
    27    25    26    1


@<TRIPOS>MOLECULE
ZINC37884740_replica-1.pdb
 21 22 0 0 0
SMALL
GASTEIGER

@<TRIPOS>ATOM
       1  C1         -1.5700   28.5020   60.9250  C.3       1 <0>        -0.1455
       2  C2         -1.7130   27.5640   59.7240  C.3       1 <0>        -0.0596
       3  C3         -2.9810   26.7210   59.8830  C.3       1 <0>        -0.1452
       4  C4         -1.8070   28.3780   58.4590  C.ar      1 <0>        -0.0695
       5  C5         -0.9980   29.4850   58.2880  C.ar      1 <0>        -0.1114
       6  C6         -1.0840   30.2310   57.1280  C.ar      1 <0>        -0.1036
       7  C7         -1.9780   29.8700   56.1380  C.ar      1 <0>        -0.1230
       8  C8         -2.7870   28.7620   56.3080  C.ar      1 <0>        -0.1046
       9  C9         -2.6980   28.0130   57.4670  C.ar      1 <0>        -0.1138
      10  C10        -2.0730   30.6840   54.8730  C.3       1 <0>         0.1397
      11  C11        -2.5660   29.7950   53.7300  C.3       1 <0>         0.0930
      12  N1         -1.4360   29.4390   52.8670  N.pl3     1 <0>        -0.7375
      13  C12        -1.1230   28.0930   52.6420  C.ar      1 <0>         0.1576
      14  C13        -0.3500   27.3960   53.5630  C.ar      1 <0>         0.0452
      15  C14        -0.0420   26.0660   53.3390  C.ar      1 <0>        -0.1142
      16  C15        -0.5020   25.4310   52.2000  C.ar      1 <0>        -0.1206
      17  C16        -1.2700   26.1210   51.2810  C.ar      1 <0>        -0.1138
      18  C17        -1.5870   27.4500   51.5020  C.ar      1 <0>         0.0480
      19  F1         -2.3430   28.1220   50.6060  F         1 <0>        -0.1341
      20  F2          0.1000   28.0150   54.6760  F         1 <0>        -0.1339
      21  O1         -0.7850   31.2100   54.5470  O.3       1 <0>        -0.5496
@<TRIPOS>BOND
     1     1     2 1
     2     2     3 1
     3     2     4 1
     4     4     9 ar
     5     4     5 ar
     6     5     6 ar
     7     6     7 ar
     8     7     8 ar
     9     7    10 1
    10     8     9 ar
    11    10    11 1
    12    10    21 1
    13    11    12 1
    14    12    13 1
    15    13    18 ar
    16    13    14 ar
    17    14    15 ar
    18    14    20 1
    19    15    16 ar
    20    16    17 ar
    21    17    18 ar
    22    18    19 1

@<TRIPOS>MOLECULE
ZINC04933865_replica-1.pdb
 31 35 0 0 0
SMALL
GASTEIGER

@<TRIPOS>ATOM
       1  C1         -2.3310   23.3590   58.5690  C.3       1 <0>        -0.1443
       2  C2         -2.9930   24.7100   58.8480  C.3       1 <0>        -0.0598
       3  C3         -3.0940   24.9260   60.3590  C.3       1 <0>        -0.1445
       4  C4         -2.1640   25.8110   58.2380  C.ar      1 <0>        -0.0637
       5  C5         -0.8040   25.6370   58.0640  C.ar      1 <0>        -0.1107
       6  C6         -0.0440   26.6470   57.5050  C.ar      1 <0>        -0.0982
       7  C7         -0.6440   27.8310   57.1170  C.ar      1 <0>        -0.1020
       8  C8         -2.0060   28.0050   57.2910  C.ar      1 <0>        -0.0870
       9  C9         -2.7660   26.9920   57.8460  C.ar      1 <0>        -0.1135
      10  C10         0.1840   28.9320   56.5080  C.3       1 <0>         0.2588
      11  C11        -0.4340   29.3880   55.2150  C.2       1 <0>        -0.1936
      12  C12        -0.8260   29.0680   53.9550  C.2       1 <0>         0.1115
      13  N1         -1.3490   30.2050   53.4070  N.pl3     1 <0>        -0.3710
      14  N2         -1.2910   31.1680   54.2570  N.2       1 <0>        -0.1910
      15  C13        -0.7480   30.7560   55.3850  C.2       1 <0>        -0.0330
      16  C14        -0.3390   31.1480   56.7460  C.2       1 <0>         0.6083
      17  O1         -0.4690   32.2620   57.2140  O.2       1 <0>        -0.4867
      18  N3          0.1990   30.1010   57.3960  N.am      1 <0>        -0.5391
      19  C15         0.6930   30.1210   58.7030  C.ar      1 <0>         0.1760
      20  C16        -0.1770   29.9950   59.7780  C.ar      1 <0>        -0.1465
      21  C17         0.3140   30.0150   61.0690  C.ar      1 <0>        -0.0917
      22  C18         1.6710   30.1630   61.2920  C.ar      1 <0>        -0.1405
      23  C19         2.5400   30.2890   60.2240  C.ar      1 <0>        -0.0904
      24  C20         2.0560   30.2640   58.9300  C.ar      1 <0>        -0.1532
      25  C21        -0.7090   27.7460   53.3020  C.ar      1 <0>        -0.0435
      26  C22        -1.3180   27.5190   52.0660  C.ar      1 <0>        -0.0578
      27  C23        -1.2070   26.2850   51.4610  C.ar      1 <0>        -0.1477
      28  C24        -0.4920   25.2710   52.0780  C.ar      1 <0>         0.1149
      29  C25         0.1140   25.4900   53.3050  C.ar      1 <0>        -0.1480
      30  C26         0.0130   26.7230   53.9140  C.ar      1 <0>        -0.0722
      31  F1         -0.3860   24.0640   51.4810  F         1 <0>        -0.1335
@<TRIPOS>BOND
     1     1     2 1
     2     2     3 1
     3     2     4 1
     4     4     9 ar
     5     4     5 ar
     6     5     6 ar
     7     6     7 ar
     8     7     8 ar
     9     7    10 1
    10     8     9 ar
    11    10    18 1
    12    10    11 1
    13    11    15 1
    14    11    12 2
    15    12    13 1
    16    12    25 1
    17    13    14 1
    18    14    15 2
    19    15    16 1
    20    16    17 2
    21    16    18 am
    22    18    19 1
    23    19    24 ar
    24    19    20 ar
    25    20    21 ar
    26    21    22 ar
    27    22    23 ar
    28    23    24 ar
    29    25    30 ar
    30    25    26 ar
    31    26    27 ar
    32    27    28 ar
    33    28    29 ar
    34    28    31 1
    35    29    30 ar

@<TRIPOS>MOLECULE
ZINC06365115_replica-1.pdb
 25 26 0 0 0
SMALL
GASTEIGER

@<TRIPOS>ATOM
       1  C1          0.6600   33.4890   61.4080  C.3       1 <0>        -0.1455
       2  C2          0.7780   33.6440   59.8900  C.3       1 <0>        -0.0574
       3  C3          0.7600   32.2630   59.2330  C.3       1 <0>        -0.1446
       4  C4          2.0720   34.3420   59.5550  C.ar      1 <0>        -0.0868
       5  C5          2.0730   35.4070   58.6740  C.ar      1 <0>        -0.0951
       6  C6          3.2570   36.0520   58.3700  C.ar      1 <0>        -0.1412
       7  C7          4.4470   35.6200   58.9400  C.ar      1 <0>         0.1363
       8  C8          4.4430   34.5450   59.8190  C.ar      1 <0>        -0.1160
       9  C9          3.2560   33.9090   60.1240  C.ar      1 <0>        -0.0987
      10  N1          5.6480   36.2670   58.6280  N.am      1 <0>        -0.6684
      11  C10         6.4590   35.7630   57.6770  C.2       1 <0>         0.5224
      12  O1          6.1180   34.7830   57.0480  O.2       1 <0>        -0.5080
      13  C11         7.7870   36.4160   57.3950  C.3       1 <0>        -0.0685
      14  C12         8.7020   36.2230   58.5760  C.ar      1 <0>        -0.0236
      15  C13         9.5070   35.1020   58.6520  C.ar      1 <0>        -0.0805
      16  C14        10.3500   34.9270   59.7340  C.ar      1 <0>        -0.0554
      17  C15        10.3800   35.8690   60.7450  C.ar      1 <0>        -0.0415
      18  C16         9.5710   36.9880   60.6720  C.ar      1 <0>        -0.0564
      19  C17         8.7320   37.1650   59.5870  C.ar      1 <0>        -0.1098
      20  N2         11.2780   35.6800   61.9070  N.pl3     1 <0>         0.0266
      21  O2         11.7880   34.5940   62.1110  O.2       1 <0>        -0.1588
      22  O3         11.5050   36.6120   62.6580  O.3       1 <0>        -0.1574
      23  C18         7.5780   37.9110   57.1500  C.3       1 <0>        -0.0820
      24  C19         8.9370   38.6140   57.0970  C.3       1 <0>        -0.1493
      25  C20         6.8470   38.1140   55.8210  C.3       1 <0>        -0.1601
@<TRIPOS>BOND
     1     1     2 1
     2     2     3 1
     3     2     4 1
     4     4     9 ar
     5     4     5 ar
     6     5     6 ar
     7     6     7 ar
     8     7     8 ar
     9     7    10 1
    10     8     9 ar
    11    10    11 am
    12    11    12 2
    13    11    13 1
    14    13    14 1
    15    13    23 1
    16    14    19 ar
    17    14    15 ar
    18    15    16 ar
    19    16    17 ar
    20    17    18 ar
    21    17    20 1
    22    18    19 ar
    23    20    21 2
    24    20    22 1
    25    23    24 1
    26    23    25 1

@<TRIPOS>MOLECULE
ZINC32183640_replica-1.pdb
 22 23 0 0 0
SMALL
GASTEIGER

@<TRIPOS>ATOM
       1  C1         -0.4730   24.6350   51.7530  C.3       1 <0>        -0.1167
       2  C2         -0.8690   26.0720   51.9680  C.ar      1 <0>        -0.0402
       3  C3         -1.6610   26.7180   51.0360  C.ar      1 <0>        -0.1788
       4  C4         -2.0260   28.0380   51.2280  C.ar      1 <0>        -0.0724
       5  C5         -1.6010   28.7160   52.3540  C.ar      1 <0>        -0.2071
       6  C6         -0.8060   28.0710   53.2930  C.ar      1 <0>         0.2265
       7  C7         -0.4360   26.7470   53.0930  C.ar      1 <0>        -0.1656
       8  C8          0.4330   26.0460   54.1050  C.3       1 <0>        -0.1012
       9  N1         -0.3740   28.7540   54.4320  N.pl3     1 <0>        -0.7511
      10  C9         -0.3320   30.2190   54.4350  C.3       1 <0>         0.1390
      11  C10         0.4110   30.7040   55.6820  C.3       1 <0>         0.1143
      12  C11        -0.6030   31.1260   56.7470  C.3       1 <0>         0.0285
      13  O1         -1.6830   30.1910   56.7750  O.3       1 <0>        -0.3159
      14  C12        -1.6630   29.2540   57.7590  C.ar      1 <0>         0.1370
      15  C13        -0.9420   29.4830   58.9210  C.ar      1 <0>        -0.2160
      16  C14        -0.9280   28.5310   59.9230  C.ar      1 <0>        -0.0412
      17  C15        -1.6230   27.3460   59.7610  C.ar      1 <0>        -0.1583
      18  C16        -2.3360   27.1130   58.6020  C.ar      1 <0>        -0.0418
      19  C17        -2.3580   28.0640   57.5990  C.ar      1 <0>        -0.1587
      20  C18        -3.0930   25.8210   58.4290  C.3       1 <0>        -0.1191
      21  C19        -0.1510   28.7820   61.1890  C.3       1 <0>        -0.1206
      22  O2          1.2350   31.8200   55.3410  O.3       1 <0>        -0.5910
@<TRIPOS>BOND
     1     1     2 1
     2     2     7 ar
     3     2     3 ar
     4     3     4 ar
     5     4     5 ar
     6     5     6 ar
     7     6     7 ar
     8     6     9 1
     9     7     8 1
    10     9    10 1
    11    10    11 1
    12    11    12 1
    13    11    22 1
    14    12    13 1
    15    13    14 1
    16    14    19 ar
    17    14    15 ar
    18    15    16 ar
    19    16    17 ar
    20    16    21 1
    21    17    18 ar
    22    18    19 ar
    23    18    20 1

@<TRIPOS>MOLECULE
ZINC05162238_replica-1.pdb
 20 21 0 0 0
SMALL
GASTEIGER

@<TRIPOS>ATOM
       1  C1         12.4670   29.4640   64.8830  C.3       1 <0>        -0.1539
       2  C2         12.8570   29.9820   63.4970  C.3       1 <0>         0.0526
       3  O1         13.4810   31.2610   63.6240  O.3       1 <0>        -0.3141
       4  C3         12.8350   32.3200   63.0710  C.ar      1 <0>         0.1481
       5  C4         11.5270   32.1790   62.6280  C.ar      1 <0>        -0.1556
       6  C5         10.8670   33.2510   62.0650  C.ar      1 <0>        -0.0488
       7  C6         11.5180   34.4820   61.9430  C.ar      1 <0>        -0.0939
       8  C7         12.8370   34.6170   62.3860  C.ar      1 <0>        -0.0389
       9  C8         13.4850   33.5410   62.9510  C.ar      1 <0>        -0.2144
      10  C9         10.8180   35.6320   61.3420  C.2       1 <0>         0.1103
      11  N1         10.0640   35.4600   60.2990  N.2       1 <0>        -0.2426
      12  N2          9.3980   36.5520   59.7290  N.pl3     1 <0>        -0.5805
      13  C10         8.9700   36.4950   58.4000  C.ar      1 <0>         0.1830
      14  C11         8.9080   35.2720   57.7410  C.ar      1 <0>        -0.1079
      15  C12         8.4910   35.2170   56.4260  C.ar      1 <0>        -0.1200
      16  C13         8.1230   36.3780   55.7660  C.ar      1 <0>         0.0825
      17  C14         8.1840   37.5980   56.4170  C.ar      1 <0>        -0.1468
      18  C15         8.6050   37.6590   57.7320  C.ar      1 <0>         0.0611
      19  F1          8.6640   38.8500   58.3700  F         1 <0>        -0.1339
      20  F2          7.7100   36.3200   54.4800  F         1 <0>        -0.1337
@<TRIPOS>BOND
     1     1     2 1
     2     2     3 1
     3     3     4 1
     4     4     9 ar
     5     4     5 ar
     6     5     6 ar
     7     6     7 ar
     8     7     8 ar
     9     7    10 1
    10     8     9 ar
    11    10    11 2
    12    11    12 1
    13    12    13 1
    14    13    18 ar
    15    13    14 ar
    16    14    15 ar
    17    15    16 ar
    18    16    17 ar
    19    16    20 1
    20    17    18 ar
    21    18    19 1

@<TRIPOS>MOLECULE
ZINC04321525_replica-1.pdb
 24 25 0 0 0
SMALL
GASTEIGER

@<TRIPOS>ATOM
       1  C1          7.8110   36.6560   55.5310  C.3       1 <0>         0.0239
       2  O1          7.5290   37.3800   56.7310  O.3       1 <0>        -0.3137
       3  C2          8.2610   37.0620   57.8300  C.ar      1 <0>         0.1513
       4  C3          8.3900   37.9760   58.8660  C.ar      1 <0>        -0.2134
       5  C4          9.1330   37.6580   59.9820  C.ar      1 <0>        -0.0410
       6  C5          9.7560   36.4100   60.0710  C.ar      1 <0>        -0.1036
       7  C6          9.6250   35.4920   59.0250  C.ar      1 <0>        -0.0355
       8  C7          8.8750   35.8180   57.9150  C.ar      1 <0>        -0.1580
       9  C8         10.5520   36.0640   61.2630  C.2       1 <0>         0.1410
      10  N1         11.4420   35.1210   61.1970  N.2       1 <0>        -0.2573
      11  N2         12.1980   34.7920   62.3300  N.pl3     1 <0>        -0.5674
      12  C9         12.2300   33.4740   62.7880  C.ar      1 <0>         0.3164
      13  C10        11.0740   32.7030   62.7740  C.ar      1 <0>        -0.1598
      14  C11        11.1100   31.4000   63.2280  C.ar      1 <0>         0.0102
      15  C12        12.2950   30.8610   63.6980  C.ar      1 <0>        -0.2304
      16  C13        13.4460   31.6260   63.7140  C.ar      1 <0>         0.0344
      17  C14        13.4200   32.9280   63.2550  C.ar      1 <0>        -0.1187
      18  N3         14.6560   33.7440   63.2670  N.pl3     1 <0>         0.0394
      19  O2         15.2500   33.9270   64.3040  O.2       1 <0>        -0.1768
      20  O3         15.0720   34.2260   62.2390  O.3       1 <0>        -0.1286
      21  C15        12.3290   29.4390   64.1940  C.3       1 <0>         0.5192
      22  F1         13.0580   28.6500   63.2970  F         1 <0>        -0.1719
      23  F2         12.9390   29.3990   65.4520  F         1 <0>        -0.1730
      24  F3         11.0230   28.9480   64.2930  F         1 <0>        -0.1717
@<TRIPOS>BOND
     1     1     2 1
     2     2     3 1
     3     3     8 ar
     4     3     4 ar
     5     4     5 ar
     6     5     6 ar
     7     6     7 ar
     8     6     9 1
     9     7     8 ar
    10     9    10 2
    11    10    11 1
    12    11    12 1
    13    12    17 ar
    14    12    13 ar
    15    13    14 ar
    16    14    15 ar
    17    15    16 ar
    18    15    21 1
    19    16    17 ar
    20    17    18 1
    21    18    19 2
    22    18    20 1
    23    21    22 1
    24    21    23 1
    25    21    24 1

@<TRIPOS>MOLECULE
ZINC37278644_replica-1.pdb
 21 22 0 0 0
SMALL
GASTEIGER

@<TRIPOS>ATOM
       1  C1          2.2080   28.1180   58.6690  C.3       1 <0>        -0.1512
       2  C2          0.8000   28.5500   58.2530  C.3       1 <0>        -0.1065
       3  C3          0.8400   29.9870   57.7320  C.3       1 <0>        -0.1490
       4  C4          0.2880   27.6210   57.1500  C.3       1 <0>         0.1937
       5  C5         -0.8290   26.7660   57.6910  C.ar      1 <0>        -0.0839
       6  C6         -2.0560   27.3340   57.9810  C.ar      1 <0>        -0.1136
       7  C7         -3.0800   26.5490   58.4770  C.ar      1 <0>        -0.1175
       8  C8         -2.8780   25.1970   58.6830  C.ar      1 <0>        -0.1183
       9  C9         -1.6520   24.6290   58.3920  C.ar      1 <0>        -0.1159
      10  C10        -0.6290   25.4130   57.8910  C.ar      1 <0>        -0.1078
      11  N1         -0.2090   28.4220   56.0290  N.pl3     1 <0>        -0.7423
      12  C11        -0.3610   27.8400   54.7690  C.ar      1 <0>         0.2239
      13  C12         0.2490   26.6240   54.4840  C.ar      1 <0>        -0.1974
      14  C13         0.0950   26.0510   53.2380  C.ar      1 <0>        -0.0771
      15  C14        -0.6650   26.6850   52.2710  C.ar      1 <0>        -0.1772
      16  C15        -1.2750   27.8940   52.5510  C.ar      1 <0>        -0.0749
      17  C16        -1.1300   28.4710   53.7980  C.ar      1 <0>        -0.1466
      18  C17        -1.8000   29.7850   54.1040  C.3       1 <0>        -0.0220
      19  C18        -2.6900   29.6290   55.3380  C.3       1 <0>        -0.1419
      20  C19        -0.7350   30.8500   54.3730  C.3       1 <0>        -0.1494
      21  C20        -2.6570   30.2100   52.9090  C.3       1 <0>        -0.1467
@<TRIPOS>BOND
     1     1     2 1
     2     2     3 1
     3     2     4 1
     4     4     5 1
     5     4    11 1
     6     5    10 ar
     7     5     6 ar
     8     6     7 ar
     9     7     8 ar
    10     8     9 ar
    11     9    10 ar
    12    11    12 1
    13    12    17 ar
    14    12    13 ar
    15    13    14 ar
    16    14    15 ar
    17    15    16 ar
    18    16    17 ar
    19    17    18 1
    20    18    19 1
    21    18    20 1
    22    18    21 1

@<TRIPOS>MOLECULE
ZINC36956606_replica-1.pdb
 21 22 0 0 0
SMALL
GASTEIGER

@<TRIPOS>ATOM
       1  C1         -2.7030   30.2780   52.9980  C.3       1 <0>        -0.1632
       2  C2         -1.4740   29.6480   53.6550  C.3       1 <0>         0.1904
       3  C3         -1.1800   28.3220   53.0030  C.ar      1 <0>        -0.1282
       4  C4         -1.7020   28.0360   51.7550  C.ar      1 <0>        -0.0749
       5  C5         -1.4340   26.8210   51.1540  C.ar      1 <0>        -0.1468
       6  C6         -0.6430   25.8860   51.8050  C.ar      1 <0>         0.1292
       7  C7         -0.1210   26.1750   53.0570  C.ar      1 <0>        -0.2033
       8  C8         -0.3860   27.3940   53.6510  C.ar      1 <0>        -0.0672
       9  O1         -0.3790   24.6900   51.2170  O.3       1 <0>        -0.3170
      10  C9         -0.3800   23.5370   52.0610  C.3       1 <0>         0.0261
      11  N1         -1.7330   29.4430   55.0820  N.pl3     1 <0>        -0.7444
      12  C10        -1.0480   30.2030   56.0330  C.ar      1 <0>         0.2244
      13  C11        -0.5320   31.4460   55.6890  C.ar      1 <0>        -0.1984
      14  C12         0.1450   32.1970   56.6320  C.ar      1 <0>        -0.0768
      15  C13         0.3080   31.7090   57.9170  C.ar      1 <0>        -0.1778
      16  C14        -0.2050   30.4730   58.2610  C.ar      1 <0>        -0.0746
      17  C15        -0.8860   29.7210   57.3250  C.ar      1 <0>        -0.1471
      18  C16        -1.4510   28.3750   57.7040  C.3       1 <0>        -0.0225
      19  C17        -0.5460   27.2700   57.1560  C.3       1 <0>        -0.1419
      20  C18        -1.5250   28.2650   59.2290  C.3       1 <0>        -0.1486
      21  C19        -2.8540   28.2270   57.1140  C.3       1 <0>        -0.1474
@<TRIPOS>BOND
     1     1     2 1
     2     2     3 1
     3     2    11 1
     4     3     8 ar
     5     3     4 ar
     6     4     5 ar
     7     5     6 ar
     8     6     7 ar
     9     6     9 1
    10     7     8 ar
    11     9    10 1
    12    11    12 1
    13    12    17 ar
    14    12    13 ar
    15    13    14 ar
    16    14    15 ar
    17    15    16 ar
    18    16    17 ar
    19    17    18 1
    20    18    19 1
    21    18    20 1
    22    18    21 1

@<TRIPOS>MOLECULE
ZINC38703427_replica-1.pdb
 25 28 0 0 0
SMALL
GASTEIGER

@<TRIPOS>ATOM
       1  C1         11.5240   34.2090   62.3210  C.3       1 <0>        -0.1232
       2  C2         10.5730   34.2330   61.1520  C.ar      1 <0>        -0.0121
       3  C3          9.8440   33.0960   60.8380  C.ar      1 <0>        -0.1499
       4  C4          8.9760   33.1040   59.7810  C.ar      1 <0>         0.0124
       5  C5          8.8250   34.2630   59.0200  C.ar      1 <0>        -0.2245
       6  C6          9.5620   35.4190   59.3250  C.ar      1 <0>         0.1515
       7  C7         10.4340   35.3870   60.4120  C.ar      1 <0>        -0.1482
       8  O1          9.4530   36.5560   58.6030  O.3       1 <0>        -0.1808
       9  C8          8.4530   36.6850   57.7080  C.2       1 <0>         0.0870
      10  C9          7.6720   35.6340   57.3210  C.2       1 <0>        -0.2468
      11  C10         7.8800   34.2920   57.8750  C.2       1 <0>         0.4588
      12  O2          7.3310   33.2960   57.4380  O.2       1 <0>        -0.4320
      13  C11         6.6860   36.1430   56.3220  C.3       1 <0>         0.2307
      14  N1          6.9670   37.5810   56.1760  N.am      1 <0>        -0.6972
      15  C12         7.9990   37.8880   56.9890  C.2       1 <0>         0.5745
      16  O3          8.4830   38.9960   57.1110  O.2       1 <0>        -0.4853
      17  C13         5.2810   35.9350   56.8240  C.ar      1 <0>        -0.1104
      18  C14         5.0150   36.0130   58.1800  C.ar      1 <0>        -0.0799
      19  C15         3.7290   35.8220   58.6440  C.ar      1 <0>        -0.0995
      20  C16         2.7010   35.5510   57.7490  C.ar      1 <0>        -0.0723
      21  C17         2.9720   35.4730   56.3870  C.ar      1 <0>        -0.1322
      22  C18         4.2600   35.6710   55.9300  C.ar      1 <0>        -0.0664
      23  S1          1.0580   35.3060   58.3370  S.3       1 <0>        -0.1137
      24  C19         1.2800   34.4070   59.8970  C.3       1 <0>        -0.1454
      25  C20         8.1850   31.8670   59.4430  C.3       1 <0>        -0.1350
@<TRIPOS>BOND
     1     1     2 1
     2     2     7 ar
     3     2     3 ar
     4     3     4 ar
     5     4     5 ar
     6     4    25 1
     7     5    11 1
     8     5     6 ar
     9     6     7 ar
    10     6     8 1
    11     8     9 1
    12     9    15 1
    13     9    10 2
    14    10    11 1
    15    10    13 1
    16    11    12 2
    17    13    14 1
    18    13    17 1
    19    14    15 am
    20    15    16 2
    21    17    22 ar
    22    17    18 ar
    23    18    19 ar
    24    19    20 ar
    25    20    21 ar
    26    20    23 1
    27    21    22 ar
    28    23    24 1

@<TRIPOS>MOLECULE
ZINC32230364_replica-1.pdb
 23 24 0 0 0
SMALL
GASTEIGER

@<TRIPOS>ATOM
       1  C1         13.3840   31.0990   63.8840  C.3       1 <0>        -0.1134
       2  C2         12.7390   32.2150   63.1030  C.ar      1 <0>        -0.1242
       3  C3         13.4630   33.3520   62.7990  C.ar      1 <0>        -0.0801
       4  C4         12.8740   34.3770   62.0840  C.ar      1 <0>        -0.1473
       5  C5         11.5540   34.2640   61.6710  C.ar      1 <0>         0.1239
       6  C6         10.8270   33.1250   61.9840  C.ar      1 <0>        -0.2060
       7  C7         11.4230   32.1000   62.6940  C.ar      1 <0>        -0.0806
       8  O1         10.9720   35.2710   60.9690  O.3       1 <0>        -0.3052
       9  C8         10.5710   36.4280   61.7040  C.3       1 <0>         0.0681
      10  C9          9.1580   36.8370   61.2820  C.3       1 <0>         0.1114
      11  C10         9.2400   37.8710   60.1590  C.3       1 <0>         0.1014
      12  N1          7.9070   38.4240   59.9040  N.pl3     1 <0>        -0.7581
      13  C11         6.9260   37.6310   59.3050  C.ar      1 <0>         0.2156
      14  C12         5.7770   37.2940   60.0090  C.ar      1 <0>        -0.1976
      15  C13         4.8120   36.5050   59.4150  C.ar      1 <0>        -0.0725
      16  C14         4.9880   36.0500   58.1210  C.ar      1 <0>        -0.1264
      17  C15         6.1310   36.3840   57.4170  C.ar      1 <0>        -0.0667
      18  C16         7.1000   37.1730   58.0050  C.ar      1 <0>        -0.1922
      19  C17         3.9330   35.1900   57.4760  C.3       1 <0>        -0.0229
      20  C18         4.5120   33.8040   57.1830  C.3       1 <0>        -0.1401
      21  C19         2.7370   35.0540   58.4220  C.3       1 <0>        -0.1460
      22  C20         3.4750   35.8380   56.1680  C.3       1 <0>        -0.1401
      23  O2          8.4720   37.4020   62.4010  O.3       1 <0>        -0.5833
@<TRIPOS>BOND
     1     1     2 1
     2     2     7 ar
     3     2     3 ar
     4     3     4 ar
     5     4     5 ar
     6     5     6 ar
     7     5     8 1
     8     6     7 ar
     9     8     9 1
    10     9    10 1
    11    10    11 1
    12    10    23 1
    13    11    12 1
    14    12    13 1
    15    13    18 ar
    16    13    14 ar
    17    14    15 ar
    18    15    16 ar
    19    16    17 ar
    20    16    19 1
    21    17    18 ar
    22    19    20 1
    23    19    21 1
    24    19    22 1

@<TRIPOS>MOLECULE
ZINC37061797_replica-1.pdb
 21 22 0 0 0
SMALL
GASTEIGER

@<TRIPOS>ATOM
       1  C1         -0.2190   31.0910   54.7400  C.3       1 <0>        -0.1073
       2  C2          0.1370   31.2750   56.1930  C.ar      1 <0>        -0.1634
       3  C3          0.0850   32.5320   56.7640  C.ar      1 <0>        -0.0069
       4  C4          0.4110   32.7010   58.0960  C.ar      1 <0>        -0.1089
       5  C5          0.7900   31.6130   58.8630  C.ar      1 <0>        -0.0080
       6  C6          0.8430   30.3550   58.2990  C.ar      1 <0>        -0.1975
       7  C7          0.5110   30.1800   56.9610  C.ar      1 <0>         0.2700
       8  N1          0.5580   28.9070   56.3880  N.pl3     1 <0>        -0.7210
       9  C8         -0.3600   27.8620   56.8490  C.3       1 <0>         0.1392
      10  C9         -1.8020   28.3490   56.7010  C.3       1 <0>        -0.1720
      11  C10        -0.1600   26.6000   56.0070  C.3       1 <0>        -0.1214
      12  C11         0.7320   26.9240   54.8070  C.3       1 <0>        -0.0803
      13  C12        -0.0520   26.7350   53.5330  C.ar      1 <0>        -0.0852
      14  C13        -0.7180   27.8060   52.9660  C.ar      1 <0>        -0.1177
      15  C14        -1.4370   27.6340   51.7990  C.ar      1 <0>        -0.1169
      16  C15        -1.4890   26.3910   51.1960  C.ar      1 <0>        -0.1233
      17  C16        -0.8220   25.3200   51.7630  C.ar      1 <0>        -0.1173
      18  C17        -0.0990   25.4940   52.9280  C.ar      1 <0>        -0.1184
      19  N2          0.3560   34.0490   58.7050  N.pl3     1 <0>         0.0450
      20  O1          0.3710   34.1700   59.9080  O.2       1 <0>        -0.1742
      21  O2          0.2940   35.0290   57.9990  O.3       1 <0>        -0.1738
@<TRIPOS>BOND
     1     1     2 1
     2     2     7 ar
     3     2     3 ar
     4     3     4 ar
     5     4     5 ar
     6     4    19 1
     7     5     6 ar
     8     6     7 ar
     9     7     8 1
    10     8     9 1
    11     9    10 1
    12     9    11 1
    13    11    12 1
    14    12    13 1
    15    13    18 ar
    16    13    14 ar
    17    14    15 ar
    18    15    16 ar
    19    16    17 ar
    20    17    18 ar
    21    19    20 2
    22    19    21 1

@<TRIPOS>MOLECULE
ZINC08345467_replica-1.pdb
 30 32 0 0 0
SMALL
GASTEIGER

@<TRIPOS>ATOM
       1  C1          8.6730   38.5880   57.6030  C.3       1 <0>        -0.1437
       2  C2          7.9820   37.9130   58.7900  C.3       1 <0>        -0.0639
       3  C3          8.9390   36.9550   59.4500  C.ar      1 <0>        -0.0860
       4  C4          9.1980   35.7220   58.8530  C.ar      1 <0>        -0.0763
       5  C5         10.0570   34.8340   59.4230  C.ar      1 <0>        -0.1123
       6  C6         10.6950   35.1620   60.6320  C.ar      1 <0>        -0.0060
       7  C7         11.5880   34.2710   61.2500  C.ar      1 <0>        -0.1577
       8  C8         12.1910   34.6230   62.4240  C.ar      1 <0>         0.1355
       9  C9         11.9300   35.8610   63.0210  C.ar      1 <0>        -0.1881
      10  C10        11.0700   36.7460   62.4490  C.ar      1 <0>        -0.0648
      11  C11        10.4320   36.4160   61.2390  C.ar      1 <0>        -0.0845
      12  C12         9.5420   37.3090   60.6180  C.ar      1 <0>        -0.0807
      13  O1         13.0540   33.7600   63.0200  O.3       1 <0>        -0.3160
      14  C13        12.6710   32.3830   63.0570  C.3       1 <0>         0.0247
      15  C14         6.7710   37.1600   58.3040  C.2       1 <0>         0.5250
      16  O2          5.9210   36.8040   59.0920  O.2       1 <0>        -0.5100
      17  N1          6.6330   36.8790   56.9930  N.am      1 <0>        -0.7301
      18  C15         5.4560   36.1470   56.5190  C.3       1 <0>         0.1042
      19  C16         5.9040   34.9200   55.7230  C.3       1 <0>         0.0726
      20  C17         6.4980   33.9020   56.6620  C.ar      1 <0>        -0.1880
      21  C18         5.8320   33.5620   57.8240  C.ar      1 <0>        -0.0765
      22  C19         6.3740   32.6280   58.6860  C.ar      1 <0>        -0.1366
      23  C20         7.5890   32.0330   58.3850  C.ar      1 <0>         0.1634
      24  C21         8.2580   32.3750   57.2180  C.ar      1 <0>        -0.1973
      25  C22         7.7080   33.3050   56.3570  C.ar      1 <0>        -0.0485
      26  O3          8.1270   31.1160   59.2320  O.3       1 <0>        -0.3066
      27  C23         7.2210   30.2210   59.8800  C.3       1 <0>         0.0207
      28  N2          4.7470   34.3330   55.0340  N.4       1 <0>        -0.3817
      29  C24         3.5140   34.9670   55.5210  C.3       1 <0>        -0.0552
      30  C25         4.8730   34.5570   53.5880  C.3       1 <0>        -0.0482
@<TRIPOS>BOND
     1     1     2 1
     2     2     3 1
     3     2    15 1
     4     3    12 ar
     5     3     4 ar
     6     4     5 ar
     7     5     6 ar
     8     6    11 ar
     9     6     7 ar
    10     7     8 ar
    11     8     9 ar
    12     8    13 1
    13     9    10 ar
    14    10    11 ar
    15    11    12 ar
    16    13    14 1
    17    15    16 2
    18    15    17 am
    19    17    18 1
    20    18    19 1
    21    19    20 1
    22    19    28 1
    23    20    25 ar
    24    20    21 ar
    25    21    22 ar
    26    22    23 ar
    27    23    24 ar
    28    23    26 1
    29    24    25 ar
    30    26    27 1
    31    28    29 1
    32    28    30 1

@<TRIPOS>MOLECULE
ZINC04733260_replica-1.pdb
 26 28 0 0 0
SMALL
GASTEIGER

@<TRIPOS>ATOM
       1  C1          5.0560   34.1510   55.0460  C.3       1 <0>         0.0836
       2  N1          5.2190   34.9020   56.2940  N.pl3     1 <0>        -0.6220
       3  C2          4.1460   35.7810   56.7650  C.3       1 <0>         0.0837
       4  C3          6.3940   34.7790   57.0330  C.ar      1 <0>         0.2602
       5  C4          6.3720   34.1480   58.2730  C.ar      1 <0>        -0.2096
       6  C5          7.5310   34.0250   59.0050  C.ar      1 <0>         0.0142
       7  C6          8.7330   34.5350   58.5010  C.ar      1 <0>        -0.0368
       8  C7          8.7490   35.1750   57.2560  C.ar      1 <0>        -0.0261
       9  C8          7.5880   35.2880   56.5280  C.ar      1 <0>        -0.2108
      10  N2          9.8830   34.4160   59.2240  N.2       1 <0>        -0.1391
      11  N3          9.8280   34.1840   60.4920  N.2       1 <0>        -0.3003
      12  C9         10.7210   34.7720   61.3290  C.2       1 <0>         0.2556
      13  N4         10.6590   36.0630   61.5540  N.2       1 <0>        -0.1815
      14  N5          9.4370   36.6560   61.9010  N.pl3     1 <0>        -0.5553
      15  C10         8.6130   37.1850   60.9100  C.ar      1 <0>         0.2055
      16  C11         7.2380   36.9850   60.9680  C.ar      1 <0>        -0.1784
      17  C12         6.4240   37.5110   59.9840  C.ar      1 <0>        -0.0801
      18  C13         6.9750   38.2350   58.9430  C.ar      1 <0>        -0.1619
      19  C14         8.3420   38.4360   58.8820  C.ar      1 <0>        -0.0834
      20  C15         9.1620   37.9130   59.8620  C.ar      1 <0>        -0.1579
      21  C16        11.7670   33.9540   61.9880  C.ar      1 <0>        -0.0575
      22  C17        11.4340   32.7340   62.5750  C.ar      1 <0>        -0.0822
      23  C18        12.4130   31.9740   63.1830  C.ar      1 <0>        -0.1276
      24  C19        13.7200   32.4260   63.2190  C.ar      1 <0>        -0.1056
      25  C20        14.0550   33.6390   62.6440  C.ar      1 <0>        -0.1267
      26  C21        13.0860   34.4050   62.0280  C.ar      1 <0>        -0.0750
@<TRIPOS>BOND
     1     1     2 1
     2     2     3 1
     3     2     4 1
     4     4     9 ar
     5     4     5 ar
     6     5     6 ar
     7     6     7 ar
     8     7     8 ar
     9     7    10 1
    10     8     9 ar
    11    10    11 2
    12    11    12 1
    13    12    13 2
    14    12    21 1
    15    13    14 1
    16    14    15 1
    17    15    20 ar
    18    15    16 ar
    19    16    17 ar
    20    17    18 ar
    21    18    19 ar
    22    19    20 ar
    23    21    26 ar
    24    21    22 ar
    25    22    23 ar
    26    23    24 ar
    27    24    25 ar
    28    25    26 ar

@<TRIPOS>MOLECULE
ZINC21821192_replica-1.pdb
 18 19 0 0 0
SMALL
GASTEIGER

@<TRIPOS>ATOM
       1  C1         -1.1750   25.8180   51.1420  C.ar      1 <0>        -0.0272
       2  C2         -0.4430   25.2380   52.1610  C.ar      1 <0>        -0.1500
       3  C3         -0.1170   25.9750   53.2840  C.ar      1 <0>         0.0098
       4  C4         -0.5320   27.2890   53.3940  C.ar      1 <0>        -0.7448
       5  C5         -1.2650   27.8700   52.3740  C.ar      1 <0>         0.2041
       6  C6         -1.5860   27.1320   51.2480  C.ar      1 <0>        -0.1741
       7  F1         -1.6670   29.1560   52.4780  F         1 <0>        -0.1092
       8  S1         -0.1220   28.2250   54.8290  S.o2      1 <0>         2.6760
       9  O1          0.5060   29.4150   54.3720  O.2       1 <0>        -0.9105
      10  O2          0.5100   27.3280   55.7320  O.2       1 <0>        -0.9420
      11  O3         -1.4310   28.6470   55.4810  O.3       1 <0>        -0.6544
      12  C7         -1.3960   28.6530   56.8400  C.ar      1 <0>         0.0794
      13  C8         -2.0860   27.6860   57.5560  C.ar      1 <0>        -0.0856
      14  C9         -2.0490   27.6940   58.9370  C.ar      1 <0>        -0.0658
      15  C10        -1.3250   28.6650   59.6050  C.ar      1 <0>        -0.0890
      16  C11        -0.6360   29.6300   58.8920  C.ar      1 <0>        -0.0677
      17  C12        -0.6710   29.6260   57.5110  C.ar      1 <0>        -0.1171
      18  I1         -1.2700   28.6740   61.6990  I         1 <0>        -0.0177
@<TRIPOS>BOND
     1     1     6 ar
     2     1     2 ar
     3     2     3 ar
     4     3     4 ar
     5     4     5 ar
     6     4     8 1
     7     5     6 ar
     8     5     7 1
     9     8     9 2
    10     8    10 2
    11     8    11 1
    12    11    12 1
    13    12    17 ar
    14    12    13 ar
    15    13    14 ar
    16    14    15 ar
    17    15    16 ar
    18    15    18 1
    19    16    17 ar

@<TRIPOS>MOLECULE
ZINC46651384_replica-1.pdb
 29 30 0 0 0
SMALL
GASTEIGER

@<TRIPOS>ATOM
       1  C1          0.5810   34.3260   60.2050  C.3       1 <0>        -0.1592
       2  C2          0.8050   33.9570   58.7370  C.3       1 <0>         0.2027
       3  C3          0.5780   32.4790   58.5490  C.ar      1 <0>        -0.0717
       4  C4          1.1480   31.5760   59.4270  C.ar      1 <0>        -0.1286
       5  C5          0.9400   30.2190   59.2590  C.ar      1 <0>        -0.0937
       6  C6          0.1630   29.7620   58.2120  C.ar      1 <0>        -0.1186
       7  C7         -0.4100   30.6670   57.3280  C.ar      1 <0>         0.1529
       8  C8         -0.2040   32.0290   57.5030  C.ar      1 <0>        -0.1327
       9  N1         -1.1970   30.2070   56.2660  N.am      1 <0>        -0.6756
      10  C9         -0.6650   30.0920   55.0330  C.2       1 <0>         0.5162
      11  O1          0.5200   30.2950   54.8630  O.2       1 <0>        -0.5057
      12  C10        -1.5400   29.7120   53.8670  C.3       1 <0>        -0.1005
      13  C11        -1.1180   28.3630   53.3420  C.ar      1 <0>        -0.1074
      14  C12        -0.3420   27.5290   54.1240  C.ar      1 <0>        -0.0780
      15  C13         0.0460   26.2930   53.6420  C.ar      1 <0>        -0.1288
      16  C14        -0.3430   25.8900   52.3770  C.ar      1 <0>        -0.0869
      17  C15        -1.1180   26.7220   51.5940  C.ar      1 <0>        -0.1530
      18  C16        -1.5120   27.9590   52.0780  C.ar      1 <0>         0.1144
      19  F1         -2.2740   28.7720   51.3140  F         1 <0>        -0.1375
      20  N2          2.1790   34.2920   58.3540  N.am      1 <0>        -0.7397
      21  C17         2.4140   34.9770   57.2160  C.2       1 <0>         0.7084
      22  O2          1.4860   35.3140   56.5080  O.2       1 <0>        -0.5843
      23  N3          3.6770   35.2840   56.8640  N.am      1 <0>        -0.6211
      24  C18         4.7960   34.8770   57.7190  C.3       1 <0>         0.1373
      25  C19         5.5300   36.1000   58.2020  C.2       1 <0>        -0.1835
      26  C20         5.3480   36.5350   59.4240  C.2       1 <0>        -0.1679
      27  C21         3.9330   36.0280   55.6280  C.3       1 <0>         0.1593
      28  C22         4.0780   35.0630   54.4800  C.2       1 <0>        -0.1682
      29  C23         5.2450   34.5280   54.2170  C.2       1 <0>        -0.1816
@<TRIPOS>BOND
     1     1     2 1
     2     2     3 1
     3     2    20 1
     4     3     8 ar
     5     3     4 ar
     6     4     5 ar
     7     5     6 ar
     8     6     7 ar
     9     7     8 ar
    10     7     9 1
    11     9    10 am
    12    10    11 2
    13    10    12 1
    14    12    13 1
    15    13    18 ar
    16    13    14 ar
    17    14    15 ar
    18    15    16 ar
    19    16    17 ar
    20    17    18 ar
    21    18    19 1
    22    20    21 am
    23    21    22 2
    24    21    23 am
    25    23    24 1
    26    23    27 1
    27    24    25 1
    28    25    26 2
    29    27    28 1
    30    28    29 2

@<TRIPOS>MOLECULE
ZINC37215955_replica-1.pdb
 21 22 0 0 0
SMALL
GASTEIGER

@<TRIPOS>ATOM
       1  C1          2.9360   35.6780   58.6610  C.3       1 <0>        -0.1161
       2  C2          4.1180   35.8740   57.7460  C.ar      1 <0>        -0.0443
       3  C3          3.9170   36.0650   56.3910  C.ar      1 <0>        -0.1758
       4  C4          4.9990   36.2450   55.5480  C.ar      1 <0>        -0.0696
       5  C5          6.2820   36.2340   56.0570  C.ar      1 <0>        -0.1686
       6  C6          6.4870   36.0430   57.4170  C.ar      1 <0>         0.2222
       7  C7          5.3980   35.8680   58.2620  C.ar      1 <0>        -0.1965
       8  N1          7.7840   36.0310   57.9350  N.pl3     1 <0>        -0.7419
       9  C8          8.1570   36.9650   58.9980  C.3       1 <0>         0.1939
      10  C9          8.6820   38.2620   58.3790  C.3       1 <0>        -0.1650
      11  C10         9.2300   36.3480   59.8580  C.ar      1 <0>        -0.1231
      12  C11         9.6630   37.0030   60.9970  C.ar      1 <0>        -0.0722
      13  C12        10.6460   36.4410   61.7870  C.ar      1 <0>        -0.1396
      14  C13        11.2010   35.2190   61.4370  C.ar      1 <0>         0.1299
      15  C14        10.7650   34.5640   60.2930  C.ar      1 <0>        -0.2018
      16  C15         9.7770   35.1280   59.5110  C.ar      1 <0>        -0.0662
      17  O1         12.1690   34.6630   62.2120  O.3       1 <0>        -0.3085
      18  C16        11.9590   33.3180   62.6490  C.3       1 <0>         0.1607
      19  C17        13.2350   32.7460   63.1070  C.1       1 <0>         0.2046
      20  N2         14.2200   32.3050   63.4610  N.1       1 <0>        -0.3881
      21  C18         7.4600   36.4300   55.1370  C.3       1 <0>        -0.1053
@<TRIPOS>BOND
     1     1     2 1
     2     2     7 ar
     3     2     3 ar
     4     3     4 ar
     5     4     5 ar
     6     5     6 ar
     7     5    21 1
     8     6     7 ar
     9     6     8 1
    10     8     9 1
    11     9    10 1
    12     9    11 1
    13    11    16 ar
    14    11    12 ar
    15    12    13 ar
    16    13    14 ar
    17    14    15 ar
    18    14    17 1
    19    15    16 ar
    20    17    18 1
    21    18    19 1
    22    19    20 3

@<TRIPOS>MOLECULE
ZINC57692656_replica-1.pdb
 23 24 0 0 0
SMALL
GASTEIGER

@<TRIPOS>ATOM
       1  C1          3.6130   35.1160   57.3620  C.3       1 <0>        -0.1175
       2  C2          5.0330   35.1370   56.8570  C.ar      1 <0>        -0.0426
       3  C3          5.8230   34.0080   56.9730  C.ar      1 <0>        -0.1602
       4  C4          7.1260   34.0240   56.5090  C.ar      1 <0>        -0.0422
       5  C5          7.6420   35.1670   55.9310  C.ar      1 <0>        -0.1606
       6  C6          6.8510   36.3010   55.8130  C.ar      1 <0>         0.1379
       7  C7          5.5420   36.2810   56.2730  C.ar      1 <0>        -0.2166
       8  O1          7.3550   37.4270   55.2440  O.3       1 <0>        -0.3149
       9  C8          7.4170   38.5970   56.0630  C.3       1 <0>         0.0602
      10  C9          8.7250   38.5920   56.8580  C.3       1 <0>        -0.1256
      11  C10         8.4100   38.6280   58.3550  C.3       1 <0>        -0.1079
      12  C11         7.9070   37.2540   58.8040  C.3       1 <0>         0.0517
      13  C12         6.6890   37.4170   59.6130  C.1       1 <0>         0.2035
      14  N1          5.7480   37.5440   60.2370  N.1       1 <0>        -0.4138
      15  C13         8.9710   36.5760   59.6290  C.ar      1 <0>        -0.0608
      16  C14         9.5210   35.3820   59.1960  C.ar      1 <0>        -0.1063
      17  C15        10.4950   34.7560   59.9470  C.ar      1 <0>        -0.0665
      18  C16        10.9260   35.3300   61.1440  C.ar      1 <0>        -0.0192
      19  C17        10.3680   36.5350   61.5730  C.ar      1 <0>        -0.0671
      20  C18         9.3980   37.1530   60.8120  C.ar      1 <0>        -0.1020
      21  C19        11.9360   34.6860   61.9270  C.1       1 <0>         0.2472
      22  N2         12.7380   34.1740   62.5490  N.1       1 <0>        -0.4067
      23  C20         7.9850   32.7920   56.6380  C.3       1 <0>        -0.1168
@<TRIPOS>BOND
     1     1     2 1
     2     2     7 ar
     3     2     3 ar
     4     3     4 ar
     5     4     5 ar
     6     4    23 1
     7     5     6 ar
     8     6     7 ar
     9     6     8 1
    10     8     9 1
    11     9    10 1
    12    10    11 1
    13    11    12 1
    14    12    13 1
    15    12    15 1
    16    13    14 3
    17    15    20 ar
    18    15    16 ar
    19    16    17 ar
    20    17    18 ar
    21    18    19 ar
    22    18    21 1
    23    19    20 ar
    24    21    22 3

@<TRIPOS>MOLECULE
ZINC45939500_replica-1.pdb
 31 33 0 0 0
SMALL
GASTEIGER

@<TRIPOS>ATOM
       1  C1         10.2160   35.5320   60.1720  C.3       1 <0>        -0.1174
       2  C2          9.0880   35.3800   59.1850  C.ar      1 <0>        -0.0505
       3  C3          8.9550   36.2800   58.1440  C.ar      1 <0>        -0.1434
       4  C4          7.9220   36.1430   57.2350  C.ar      1 <0>        -0.0498
       5  C5          7.0180   35.1070   57.3650  C.ar      1 <0>        -0.1613
       6  C6          7.1490   34.2010   58.4090  C.ar      1 <0>         0.1839
       7  C7          8.1910   34.3380   59.3170  C.ar      1 <0>        -0.1580
       8  N1          6.2360   33.1500   58.5440  N.pl3     1 <0>        -0.6968
       9  C8          5.5550   32.9820   59.7160  C.2       1 <0>         0.7045
      10  N2          4.8320   34.0130   60.2380  N.pl3     1 <0>        -0.6791
      11  C9          4.7570   35.2910   59.5240  C.3       1 <0>         0.1512
      12  C10         3.4450   35.3810   58.7890  C.ar      1 <0>        -0.0679
      13  C11         2.2730   34.9210   59.3690  C.ar      1 <0>        -0.1518
      14  C12         1.0880   35.0200   58.6640  C.ar      1 <0>         0.1011
      15  N3          1.0650   35.5440   57.4540  N.ar      1 <0>        -0.4757
      16  C13         2.1600   35.9920   56.8710  C.ar      1 <0>         0.1015
      17  C14         3.3800   35.9320   57.5180  C.ar      1 <0>        -0.1498
      18  N4          5.6000   31.8180   60.3470  N.2       1 <0>        -0.6660
      19  C15         6.4010   30.8430   59.8980  C.2       1 <0>         0.5409
      20  O1          7.1270   31.0440   58.9410  O.2       1 <0>        -0.5429
      21  C16         6.4040   29.5210   60.5660  C.ar      1 <0>        -0.1247
      22  C17         5.7310   28.4430   59.9900  C.ar      1 <0>        -0.0557
      23  C18         5.7390   27.2140   60.6170  C.ar      1 <0>        -0.1345
      24  C19         6.4110   27.0500   61.8140  C.ar      1 <0>        -0.0435
      25  C20         7.0810   28.1140   62.3900  C.ar      1 <0>        -0.1368
      26  C21         7.0870   29.3470   61.7700  C.ar      1 <0>        -0.0637
      27  C22         6.4150   25.7050   62.4940  C.3       1 <0>        -0.0341
      28  C23         6.0390   25.8770   63.9670  C.3       1 <0>        -0.1391
      29  C24         5.4000   24.7860   61.8130  C.3       1 <0>        -0.1462
      30  C25         7.8110   25.0860   62.3940  C.3       1 <0>        -0.1392
      31  C26         7.7800   37.1270   56.1030  C.3       1 <0>        -0.1173
@<TRIPOS>BOND
     1     1     2 1
     2     2     7 ar
     3     2     3 ar
     4     3     4 ar
     5     4     5 ar
     6     4    31 1
     7     5     6 ar
     8     6     7 ar
     9     6     8 1
    10     8     9 1
    11     9    10 1
    12     9    18 2
    13    10    11 1
    14    11    12 1
    15    12    17 ar
    16    12    13 ar
    17    13    14 ar
    18    14    15 ar
    19    15    16 ar
    20    16    17 ar
    21    18    19 1
    22    19    20 2
    23    19    21 1
    24    21    26 ar
    25    21    22 ar
    26    22    23 ar
    27    23    24 ar
    28    24    25 ar
    29    24    27 1
    30    25    26 ar
    31    27    28 1
    32    27    29 1
    33    27    30 1

@<TRIPOS>MOLECULE
ZINC38119166_replica-1.pdb
 21 22 0 0 0
SMALL
GASTEIGER

@<TRIPOS>ATOM
       1  C1         -0.8580   25.1570   51.7690  C.3       1 <0>        -0.1442
       2  C2         -0.6550   26.6690   51.6580  C.3       1 <0>        -0.0589
       3  C3         -1.8860   27.3030   51.0090  C.3       1 <0>        -0.1441
       4  C4         -0.4570   27.2520   53.0330  C.ar      1 <0>        -0.0712
       5  C5          0.2620   26.5520   53.9830  C.ar      1 <0>        -0.1163
       6  C6          0.4440   27.0860   55.2450  C.ar      1 <0>        -0.1169
       7  C7         -0.0930   28.3210   55.5580  C.ar      1 <0>        -0.0959
       8  C8         -0.8110   29.0220   54.6070  C.ar      1 <0>        -0.0765
       9  C9         -0.9900   28.4890   53.3440  C.ar      1 <0>        -0.1196
      10  C10         0.1050   28.9030   56.9340  C.3       1 <0>         0.2262
      11  C11        -1.2390   29.3880   57.4800  C.3       1 <0>        -0.1698
      12  C12         0.6780   27.8300   57.8630  C.3       1 <0>         0.0788
      13  O1          2.0880   28.0200   57.9990  O.3       1 <0>        -0.5636
      14  N1          1.0370   30.0300   56.8570  N.pl3     1 <0>        -0.7268
      15  C13         0.8000   31.1850   57.6060  C.ar      1 <0>         0.2460
      16  C14         0.2620   32.3120   56.9960  C.ar      1 <0>        -0.2046
      17  C15         0.0290   33.4530   57.7380  C.ar      1 <0>        -0.0474
      18  C16         0.3290   33.4760   59.0870  C.ar      1 <0>        -0.2118
      19  C17         0.8660   32.3550   59.7000  C.ar      1 <0>         0.1420
      20  C18         1.0970   31.2070   58.9620  C.ar      1 <0>        -0.2340
      21  F1          1.1590   32.3810   61.0180  F         1 <0>        -0.1408
@<TRIPOS>BOND
     1     1     2 1
     2     2     3 1
     3     2     4 1
     4     4     9 ar
     5     4     5 ar
     6     5     6 ar
     7     6     7 ar
     8     7     8 ar
     9     7    10 1
    10     8     9 ar
    11    10    11 1
    12    10    12 1
    13    10    14 1
    14    12    13 1
    15    14    15 1
    16    15    20 ar
    17    15    16 ar
    18    16    17 ar
    19    17    18 ar
    20    18    19 ar
    21    19    20 ar
    22    19    21 1

@<TRIPOS>MOLECULE
ZINC33300679_replica-1.pdb
 27 30 0 0 0
SMALL
GASTEIGER

@<TRIPOS>ATOM
       1  C1         -0.7000   25.2020   51.1200  C.3       1 <0>        -0.1216
       2  C2         -0.5610   26.1090   52.3160  C.ar      1 <0>        -0.0768
       3  C3         -1.1220   27.3720   52.2920  C.ar      1 <0>        -0.1008
       4  C4         -0.9960   28.2070   53.3850  C.ar      1 <0>        -0.1001
       5  C5         -0.3050   27.7750   54.5100  C.ar      1 <0>         0.1255
       6  C6          0.2620   26.5070   54.5280  C.ar      1 <0>        -0.1172
       7  C7          0.1290   25.6760   53.4330  C.ar      1 <0>        -0.0994
       8  N1         -0.1760   28.6170   55.6190  N.pl3     1 <0>        -0.2559
       9  C8         -0.7600   28.3870   56.8410  C.ar      1 <0>         0.0674
      10  C9         -1.5760   27.3880   57.3620  C.ar      1 <0>        -0.1178
      11  C10        -1.9980   27.4660   58.6700  C.ar      1 <0>        -0.0787
      12  C11        -1.6230   28.5330   59.4750  C.ar      1 <0>        -0.1310
      13  C12        -0.8170   29.5230   58.9850  C.ar      1 <0>        -0.0450
      14  C13        -0.3790   29.4630   57.6650  C.ar      1 <0>        -0.1030
      15  C14         0.4600   30.3050   56.8000  C.2       1 <0>         0.0043
      16  N2          0.5050   29.7060   55.6300  N.2       1 <0>        -0.2038
      17  C15         1.1210   31.5670   57.1710  C.2       1 <0>         0.6177
      18  O1          2.2590   31.5550   57.6040  O.2       1 <0>        -0.5047
      19  N3          0.4660   32.7370   57.0320  N.am      1 <0>        -0.6719
      20  C16         1.0580   33.9270   57.4720  C.ar      1 <0>         0.1527
      21  C17         1.8390   34.6770   56.6040  C.ar      1 <0>        -0.1365
      22  C18         2.4220   35.8530   57.0400  C.ar      1 <0>         0.1138
      23  C19         2.2270   36.2820   58.3430  C.ar      1 <0>        -0.1407
      24  C20         1.4490   35.5370   59.2100  C.ar      1 <0>        -0.1032
      25  C21         0.8590   34.3640   58.7770  C.ar      1 <0>         0.0633
      26  F1          0.0940   33.6400   59.6230  F         1 <0>        -0.1312
      27  F2          3.1830   36.5840   56.1950  F         1 <0>        -0.1293
@<TRIPOS>BOND
     1     1     2 1
     2     2     7 ar
     3     2     3 ar
     4     3     4 ar
     5     4     5 ar
     6     5     6 ar
     7     5     8 1
     8     6     7 ar
     9     8    16 1
    10     8     9 1
    11     9    14 ar
    12     9    10 ar
    13    10    11 ar
    14    11    12 ar
    15    12    13 ar
    16    13    14 ar
    17    14    15 1
    18    15    16 2
    19    15    17 1
    20    17    18 2
    21    17    19 am
    22    19    20 1
    23    20    25 ar
    24    20    21 ar
    25    21    22 ar
    26    22    23 ar
    27    22    27 1
    28    23    24 ar
    29    24    25 ar
    30    25    26 1

@<TRIPOS>MOLECULE
ZINC19738163_replica-1.pdb
 25 26 0 0 0
SMALL
GASTEIGER

@<TRIPOS>ATOM
       1  C1          1.0220   35.2570   58.2270  C.3       1 <0>        -0.1795
       2  C2          0.5170   33.8490   58.5430  C.3       1 <0>         0.0727
       3  C3          0.5330   33.0020   57.2690  C.3       1 <0>         0.1329
       4  N1         -0.7640   32.3410   57.1060  N.pl3     1 <0>        -0.7487
       5  C4         -0.9490   31.4060   56.0810  C.ar      1 <0>         0.1827
       6  C5         -2.2200   30.9190   55.8050  C.ar      1 <0>        -0.1579
       7  C6         -2.4010   29.9960   54.7930  C.ar      1 <0>        -0.1029
       8  C7         -1.3140   29.5570   54.0520  C.ar      1 <0>         0.0743
       9  C8         -0.0440   30.0420   54.3270  C.ar      1 <0>        -0.1587
      10  C9          0.1380   30.9690   55.3350  C.ar      1 <0>        -0.1546
      11  O1         -1.4930   28.6480   53.0560  O.3       1 <0>        -0.3168
      12  C10        -0.6970   27.4630   53.1100  C.3       1 <0>         0.0652
      13  C11        -0.6660   26.8070   51.7270  C.3       1 <0>        -0.0950
      14  C12        -0.7000   25.2860   51.8820  C.3       1 <0>        -0.1473
      15  C13        -1.8830   27.2650   50.9190  C.3       1 <0>        -0.1472
      16  O2          1.3660   33.2470   59.5240  O.3       1 <0>        -0.3058
      17  C14         0.7570   32.6040   60.5550  C.ar      1 <0>         0.1255
      18  C15         0.5480   31.2340   60.4940  C.ar      1 <0>        -0.2078
      19  C16        -0.0700   30.5840   61.5440  C.ar      1 <0>        -0.0780
      20  C17        -0.4810   31.2960   62.6550  C.ar      1 <0>        -0.1124
      21  C18        -0.2750   32.6620   62.7180  C.ar      1 <0>        -0.0746
      22  C19         0.3490   33.3160   61.6730  C.ar      1 <0>        -0.1487
      23  C20        -1.1560   30.5840   63.7990  C.3       1 <0>        -0.0538
      24  C21        -2.2460   29.6600   63.2530  C.3       1 <0>        -0.1454
      25  C22        -0.1230   29.7560   64.5660  C.3       1 <0>        -0.1455
@<TRIPOS>BOND
     1     1     2 1
     2     2     3 1
     3     2    16 1
     4     3     4 1
     5     4     5 1
     6     5    10 ar
     7     5     6 ar
     8     6     7 ar
     9     7     8 ar
    10     8     9 ar
    11     8    11 1
    12     9    10 ar
    13    11    12 1
    14    12    13 1
    15    13    14 1
    16    13    15 1
    17    16    17 1
    18    17    22 ar
    19    17    18 ar
    20    18    19 ar
    21    19    20 ar
    22    20    21 ar
    23    20    23 1
    24    21    22 ar
    25    23    24 1
    26    23    25 1

@<TRIPOS>MOLECULE
ZINC02150695_replica-1.pdb
 34 39 0 0 0
SMALL
GASTEIGER

@<TRIPOS>ATOM
       1  C1         -2.1000   28.6600   51.8420  C.3       1 <0>         0.0230
       2  O1         -2.5810   29.7940   52.5650  O.3       1 <0>        -0.3106
       3  C2         -2.0730   29.9940   53.8090  C.ar      1 <0>         0.1486
       4  C3         -0.8020   29.5290   54.1210  C.ar      1 <0>        -0.1501
       5  C4         -0.2830   29.7310   55.3820  C.ar      1 <0>        -0.0475
       6  C5         -1.0370   30.4040   56.3460  C.ar      1 <0>        -0.1273
       7  C6         -2.3160   30.8660   56.0290  C.ar      1 <0>        -0.0525
       8  C7         -2.8250   30.6660   54.7640  C.ar      1 <0>        -0.2081
       9  C8         -0.4850   30.6230   57.6990  C.ar      1 <0>         0.0918
      10  C9          0.3050   31.7820   57.9840  C.ar      1 <0>        -0.1571
      11  C10         0.6640   32.8240   57.1090  C.2       1 <0>         0.2992
      12  C11         1.4420   33.8660   57.5820  C.2       1 <0>        -0.3413
      13  S1          1.7050   33.4220   59.2890  S.3       1 <0>         0.1678
      14  C12         0.7880   31.8980   59.3100  C.ar      1 <0>         0.1099
      15  N1          0.5390   31.0070   60.2420  N.ar      1 <0>        -0.3931
      16  C13        -0.1880   29.9280   60.0020  C.ar      1 <0>         0.1176
      17  C14        -0.7230   29.7030   58.7210  C.ar      1 <0>        -0.0879
      18  C15        -1.4860   28.4300   58.7420  C.ar      1 <0>        -0.0096
      19  C16        -2.1980   27.7610   57.7550  C.ar      1 <0>        -0.0977
      20  C17        -2.8250   26.5620   58.0460  C.ar      1 <0>        -0.0795
      21  C18        -2.7600   26.0270   59.3190  C.ar      1 <0>        -0.1198
      22  C19        -2.0560   26.6790   60.3150  C.ar      1 <0>        -0.0363
      23  C20        -1.4150   27.8830   60.0360  C.ar      1 <0>        -0.1680
      24  C21        -0.6040   28.7960   60.8710  C.2       1 <0>         0.4617
      25  O2         -0.3280   28.6480   62.0440  O.2       1 <0>        -0.3845
      26  C22         1.9140   35.0050   56.8830  C.2       1 <0>         0.4867
      27  O3          1.1970   35.9810   56.7550  O.2       1 <0>        -0.4671
      28  C23         3.2780   35.0090   56.3110  C.ar      1 <0>        -0.1542
      29  C24         4.2500   35.8700   56.8240  C.ar      1 <0>        -0.0633
      30  C25         5.5230   35.8650   56.2900  C.ar      1 <0>        -0.1275
      31  C26         5.8320   35.0180   55.2400  C.ar      1 <0>        -0.0913
      32  C27         4.8720   34.1670   54.7230  C.ar      1 <0>        -0.1229
      33  C28         3.5970   34.1580   55.2510  C.ar      1 <0>        -0.0833
      34  N2          0.2430   32.8050   55.7880  N.pl3     1 <0>        -0.8262
@<TRIPOS>BOND
     1     1     2 1
     2     2     3 1
     3     3     8 ar
     4     3     4 ar
     5     4     5 ar
     6     5     6 ar
     7     6     7 ar
     8     6     9 1
     9     7     8 ar
    10     9    17 ar
    11     9    10 ar
    12    10    14 ar
    13    10    11 1
    14    11    12 2
    15    11    34 1
    16    12    13 1
    17    12    26 1
    18    13    14 1
    19    14    15 ar
    20    15    16 ar
    21    16    24 1
    22    16    17 ar
    23    17    18 1
    24    18    23 ar
    25    18    19 ar
    26    19    20 ar
    27    20    21 ar
    28    21    22 ar
    29    22    23 ar
    30    23    24 1
    31    24    25 2
    32    26    27 2
    33    26    28 1
    34    28    33 ar
    35    28    29 ar
    36    29    30 ar
    37    30    31 ar
    38    31    32 ar
    39    32    33 ar

@<TRIPOS>MOLECULE
ZINC48139714_replica-1.pdb
 27 29 0 0 0
SMALL
GASTEIGER

@<TRIPOS>ATOM
       1  C1         -3.0930   30.0000   52.6260  C.3       1 <0>        -0.1653
       2  C2         -1.6910   29.7850   53.1990  C.3       1 <0>         0.1957
       3  C3         -1.2310   28.3840   52.8870  C.ar      1 <0>        -0.1105
       4  C4         -0.4620   27.6900   53.8020  C.ar      1 <0>        -0.1164
       5  C5         -0.0400   26.4030   53.5170  C.ar      1 <0>         0.0892
       6  C6         -0.3870   25.8110   52.3140  C.ar      1 <0>        -0.1180
       7  C7         -1.1550   26.5050   51.3990  C.ar      1 <0>        -0.1259
       8  C8         -1.5820   27.7910   51.6870  C.ar      1 <0>         0.1095
       9  F1         -2.3380   28.4670   50.7940  F         1 <0>        -0.1239
      10  F2          0.7110   25.7240   54.4120  F         1 <0>        -0.1325
      11  N1         -1.7230   29.9760   54.6520  N.am      1 <0>        -0.6190
      12  C9         -2.7290   29.2830   55.4600  C.3       1 <0>         0.0724
      13  C10        -0.8270   30.7900   55.2430  C.2       1 <0>         0.7090
      14  O1          0.0080   31.3650   54.5720  O.2       1 <0>        -0.5615
      15  N2         -0.8550   30.9670   56.5790  N.am      1 <0>        -0.6836
      16  C11         0.1360   31.7350   57.2060  C.ar      1 <0>         0.1885
      17  C12         1.3820   31.1810   57.4660  C.ar      1 <0>        -0.1499
      18  C13         2.3590   31.9380   58.0840  C.ar      1 <0>        -0.0768
      19  C14         2.0950   33.2510   58.4470  C.ar      1 <0>         0.1397
      20  C15         0.8460   33.8060   58.1870  C.ar      1 <0>         0.1122
      21  C16        -0.1290   33.0500   57.5640  C.ar      1 <0>        -0.1520
      22  F3          0.5880   35.0850   58.5390  F         1 <0>        -0.1306
      23  N3          3.0850   34.0180   59.0740  N.pl3     1 <0>        -0.6835
      24  C17         3.7840   35.1670   58.4790  C.3       1 <0>         0.1328
      25  C18         4.7990   35.6770   59.5250  C.3       1 <0>        -0.1308
      26  C19         5.0110   34.4380   60.4350  C.3       1 <0>        -0.1335
      27  C20         3.5910   33.8130   60.4420  C.3       1 <0>         0.1314
@<TRIPOS>BOND
     1     1     2 1
     2     2     3 1
     3     2    11 1
     4     3     8 ar
     5     3     4 ar
     6     4     5 ar
     7     5     6 ar
     8     5    10 1
     9     6     7 ar
    10     7     8 ar
    11     8     9 1
    12    11    12 1
    13    11    13 am
    14    13    14 2
    15    13    15 am
    16    15    16 1
    17    16    21 ar
    18    16    17 ar
    19    17    18 ar
    20    18    19 ar
    21    19    20 ar
    22    19    23 1
    23    20    21 ar
    24    20    22 1
    25    23    27 1
    26    23    24 1
    27    24    25 1
    28    25    26 1
    29    26    27 1

@<TRIPOS>MOLECULE
ZINC49919997_replica-1.pdb
 23 24 0 0 0
SMALL
GASTEIGER

@<TRIPOS>ATOM
       1  C1         -1.1680   24.6040   58.4260  C.3       1 <0>        -0.1556
       2  C2         -2.3890   25.1780   59.1470  C.3       1 <0>        -0.1160
       3  C3         -2.0120   26.5030   59.8120  C.3       1 <0>        -0.0551
       4  C4         -3.0640   26.8650   60.8620  C.3       1 <0>        -0.1463
       5  C5         -1.9510   27.5890   58.7680  C.ar      1 <0>        -0.0709
       6  C6         -2.7890   27.5400   57.6700  C.ar      1 <0>        -0.1113
       7  C7         -2.7310   28.5360   56.7120  C.ar      1 <0>        -0.1058
       8  C8         -1.8380   29.5810   56.8540  C.ar      1 <0>        -0.1241
       9  C9         -1.0010   29.6310   57.9530  C.ar      1 <0>        -0.1082
      10  C10        -1.0610   28.6360   58.9120  C.ar      1 <0>        -0.1143
      11  C11        -1.7750   30.6650   55.8090  C.3       1 <0>         0.1543
      12  C12        -3.0940   30.7040   55.0350  C.3       1 <0>        -0.1588
      13  C13        -2.8310   30.3940   53.5610  C.3       1 <0>         0.1220
      14  N1         -1.4540   29.9220   53.3990  N.pl3     1 <0>        -0.7393
      15  C14        -1.2110   28.6220   52.9640  C.ar      1 <0>         0.2462
      16  C15        -0.4330   27.7660   53.7380  C.ar      1 <0>        -0.2014
      17  C16        -0.1890   26.4800   53.3120  C.ar      1 <0>        -0.0176
      18  C17        -0.7260   26.0340   52.1010  C.ar      1 <0>        -0.0970
      19  C18        -1.5080   26.8960   51.3260  C.ar      1 <0>        -0.0185
      20  C19        -1.7520   28.1790   51.7620  C.ar      1 <0>        -0.1999
      21  C20        -0.4750   24.6960   51.6540  C.1       1 <0>         0.2596
      22  N2         -0.2760   23.6360   51.2990  N.1       1 <0>        -0.4328
      23  O1         -1.5590   31.9270   56.4440  O.3       1 <0>        -0.5518
@<TRIPOS>BOND
     1     1     2 1
     2     2     3 1
     3     3     4 1
     4     3     5 1
     5     5    10 ar
     6     5     6 ar
     7     6     7 ar
     8     7     8 ar
     9     8     9 ar
    10     8    11 1
    11     9    10 ar
    12    11    12 1
    13    11    23 1
    14    12    13 1
    15    13    14 1
    16    14    15 1
    17    15    20 ar
    18    15    16 ar
    19    16    17 ar
    20    17    18 ar
    21    18    19 ar
    22    18    21 1
    23    19    20 ar
    24    21    22 3

@<TRIPOS>MOLECULE
ZINC48287569_replica-1.pdb
 32 36 0 0 0
SMALL
GASTEIGER

@<TRIPOS>ATOM
       1  C1          7.4940   34.2120   60.3420  C.3       1 <0>         0.0845
       2  N1          7.9820   34.4830   58.9860  N.am      1 <0>        -0.5844
       3  C2          9.0640   35.4480   58.7760  C.3       1 <0>         0.2364
       4  C3          9.9590   35.4710   59.9880  C.ar      1 <0>        -0.0943
       5  C4          9.9850   36.5850   60.8060  C.ar      1 <0>        -0.0980
       6  C5         10.8080   36.6060   61.9170  C.ar      1 <0>        -0.1168
       7  C6         11.6030   35.5140   62.2100  C.ar      1 <0>        -0.1137
       8  C7         11.5750   34.4000   61.3920  C.ar      1 <0>        -0.1165
       9  C8         10.7500   34.3770   60.2840  C.ar      1 <0>        -0.1080
      10  C9          8.4780   36.8190   58.5580  C.ar      1 <0>         0.1207
      11  C10         8.8080   37.5310   57.4200  C.ar      1 <0>        -0.1630
      12  C11         8.2630   38.7920   57.2290  C.ar      1 <0>        -0.0699
      13  C12         7.4030   39.2920   58.1950  C.ar      1 <0>        -0.1705
      14  C13         7.1190   38.5230   59.3070  C.ar      1 <0>         0.1027
      15  N2          7.6520   37.3250   59.4530  N.ar      1 <0>        -0.4686
      16  C14         7.4360   33.8430   57.9340  C.2       1 <0>         0.5665
      17  O1          7.9020   33.9940   56.8220  O.2       1 <0>        -0.5208
      18  C15         6.2690   32.9550   58.1320  C.ar      1 <0>        -0.0595
      19  C16         4.9790   33.4600   58.1730  C.ar      1 <0>        -0.1227
      20  C17         3.9000   32.5790   58.3630  C.ar      1 <0>         0.2434
      21  N3          4.0690   31.2790   58.5070  N.ar      1 <0>        -0.4491
      22  C18         5.2760   30.7110   58.4800  C.ar      1 <0>         0.1353
      23  C19         6.4310   31.5080   58.2860  C.ar      1 <0>        -0.0678
      24  C20         7.6940   30.9080   58.2530  C.ar      1 <0>        -0.0920
      25  C21         7.8020   29.5560   58.4020  C.ar      1 <0>        -0.1071
      26  C22         6.6680   28.7660   58.5860  C.ar      1 <0>        -0.0969
      27  C23         5.4270   29.3200   58.6360  C.ar      1 <0>        -0.0897
      28  C24         2.5310   33.1280   58.4060  C.2       1 <0>        -0.1316
      29  C25         1.9390   33.9010   59.3720  C.2       1 <0>        -0.1035
      30  C26         0.6350   34.3000   59.1920  C.2       1 <0>        -0.1633
      31  C27        -0.0270   33.9160   58.0690  C.2       1 <0>        -0.1597
      32  S1          1.2150   32.9630   57.2100  S.3       1 <0>         0.0757
@<TRIPOS>BOND
     1     1     2 1
     2     2     3 1
     3     2    16 am
     4     3     4 1
     5     3    10 1
     6     4     9 ar
     7     4     5 ar
     8     5     6 ar
     9     6     7 ar
    10     7     8 ar
    11     8     9 ar
    12    10    15 ar
    13    10    11 ar
    14    11    12 ar
    15    12    13 ar
    16    13    14 ar
    17    14    15 ar
    18    16    17 2
    19    16    18 1
    20    18    23 ar
    21    18    19 ar
    22    19    20 ar
    23    20    21 ar
    24    20    28 1
    25    21    22 ar
    26    22    27 ar
    27    22    23 ar
    28    23    24 ar
    29    24    25 ar
    30    25    26 ar
    31    26    27 ar
    32    28    32 1
    33    28    29 2
    34    29    30 1
    35    30    31 2
    36    31    32 1

@<TRIPOS>MOLECULE
ZINC13389509_replica-1.pdb
 27 29 0 0 0
SMALL
GASTEIGER

@<TRIPOS>ATOM
       1  C1         -1.9110   27.4220   58.5710  C.ar      1 <0>        -0.1232
       2  C2         -0.5360   27.5300   58.4840  C.ar      1 <0>        -0.1199
       3  C3          0.0440   28.0870   57.3590  C.ar      1 <0>        -0.1214
       4  C4         -0.7520   28.5360   56.3210  C.ar      1 <0>        -0.0581
       5  C5         -2.1270   28.4330   56.4120  C.ar      1 <0>        -0.0901
       6  C6         -2.7070   27.8720   57.5350  C.ar      1 <0>        -0.1185
       7  C7         -0.1200   29.1420   55.0960  C.3       1 <0>         0.0065
       8  C8         -0.6110   30.5820   54.9280  C.3       1 <0>        -0.1326
       9  C9          0.1030   31.4730   55.9100  C.2       1 <0>         0.5117
      10  O1         -0.5330   32.1260   56.7100  O.2       1 <0>        -0.5222
      11  N1          1.4480   31.5460   55.9010  N.am      1 <0>        -0.7285
      12  C10         2.1370   32.5010   56.7720  C.3       1 <0>         0.2475
      13  C11         2.9230   33.4970   55.9170  C.3       1 <0>        -0.1624
      14  C12         2.4450   34.8960   56.2070  C.2       1 <0>         0.4683
      15  O2          3.1890   35.8340   56.0440  O.co2     1 <0>        -0.6320
      16  C13         3.0850   31.7600   57.6790  C.2       1 <0>        -0.1147
      17  C14         4.4400   31.7220   57.6500  C.2       1 <0>        -0.1240
      18  C15         5.1100   30.9660   58.5940  C.2       1 <0>        -0.1436
      19  C16         4.3920   30.2840   59.5200  C.2       1 <0>        -0.1884
      20  S1          2.7160   30.7050   59.0710  S.3       1 <0>        -0.0083
      21  C17        -0.5020   28.3350   53.8810  C.ar      1 <0>        -0.0679
      22  C18        -0.0010   27.0580   53.7170  C.ar      1 <0>        -0.1134
      23  C19        -0.3550   26.3150   52.6050  C.ar      1 <0>        -0.1185
      24  C20        -1.2020   26.8530   51.6550  C.ar      1 <0>        -0.1258
      25  C21        -1.6980   28.1330   51.8180  C.ar      1 <0>        -0.1191
      26  C22        -1.3490   28.8740   52.9320  C.ar      1 <0>        -0.1125
      27  O3          1.1920   35.1000   56.6440  O.co2     1 <0>        -0.7721
@<TRIPOS>BOND
     1     1     6 ar
     2     1     2 ar
     3     2     3 ar
     4     3     4 ar
     5     4     5 ar
     6     4     7 1
     7     5     6 ar
     8     7     8 1
     9     7    21 1
    10     8     9 1
    11     9    10 2
    12     9    11 am
    13    11    12 1
    14    12    13 1
    15    12    16 1
    16    13    14 1
    17    14    15 2
    18    14    27 1
    19    16    20 1
    20    16    17 2
    21    17    18 1
    22    18    19 2
    23    19    20 1
    24    21    26 ar
    25    21    22 ar
    26    22    23 ar
    27    23    24 ar
    28    24    25 ar
    29    25    26 ar

@<TRIPOS>MOLECULE
ZINC32230428_replica-1.pdb
 23 24 0 0 0
SMALL
GASTEIGER

@<TRIPOS>ATOM
       1  C1          8.6860   38.2310   56.9490  C.3       1 <0>        -0.1183
       2  C2          7.8810   36.9780   56.7210  C.ar      1 <0>        -0.0342
       3  C3          6.5310   37.0660   56.4340  C.ar      1 <0>        -0.1835
       4  C4          5.7880   35.9180   56.2230  C.ar      1 <0>        -0.0344
       5  C5          6.3940   34.6790   56.3010  C.ar      1 <0>        -0.2025
       6  C6          7.7490   34.5870   56.5900  C.ar      1 <0>         0.2293
       7  C7          8.4920   35.7420   56.8000  C.ar      1 <0>        -0.2120
       8  N1          8.3630   33.3350   56.6750  N.pl3     1 <0>        -0.7502
       9  C8          7.5480   32.1310   56.8580  C.3       1 <0>         0.1403
      10  C9          8.1450   31.2770   57.9770  C.3       1 <0>         0.1145
      11  C10         7.8950   31.9540   59.3260  C.3       1 <0>         0.0282
      12  O1          9.0850   32.6200   59.7520  O.3       1 <0>        -0.3164
      13  C11         8.9980   33.9580   59.9750  C.ar      1 <0>         0.1318
      14  C12        10.1490   34.7310   60.0280  C.ar      1 <0>        -0.2128
      15  C13        10.0570   36.0900   60.2550  C.ar      1 <0>        -0.0768
      16  C14         8.8200   36.6810   60.4300  C.ar      1 <0>        -0.1509
      17  C15         7.6710   35.9140   60.3770  C.ar      1 <0>        -0.0365
      18  C16         7.7570   34.5550   60.1450  C.ar      1 <0>        -0.1500
      19  C17         6.3240   36.5620   60.5670  C.3       1 <0>        -0.0587
      20  C18         6.3390   37.9600   59.9480  C.3       1 <0>        -0.1463
      21  C19         5.2490   35.7130   59.8830  C.3       1 <0>        -0.1463
      22  O2          7.5310   29.9870   57.9720  O.3       1 <0>        -0.5909
      23  C20         4.3190   36.0200   55.9100  C.3       1 <0>        -0.1182
@<TRIPOS>BOND
     1     1     2 1
     2     2     7 ar
     3     2     3 ar
     4     3     4 ar
     5     4     5 ar
     6     4    23 1
     7     5     6 ar
     8     6     7 ar
     9     6     8 1
    10     8     9 1
    11     9    10 1
    12    10    11 1
    13    10    22 1
    14    11    12 1
    15    12    13 1
    16    13    18 ar
    17    13    14 ar
    18    14    15 ar
    19    15    16 ar
    20    16    17 ar
    21    17    18 ar
    22    17    19 1
    23    19    20 1
    24    19    21 1

@<TRIPOS>MOLECULE
ZINC49064467_replica-1.pdb
 20 21 0 0 0
SMALL
GASTEIGER

@<TRIPOS>ATOM
       1  C1          8.9140   36.5680   61.4720  C.3       1 <0>         0.0458
       2  N1          9.1370   36.1990   60.0710  N.am      1 <0>        -0.5453
       3  C2          8.4930   36.9070   59.0510  C.ar      1 <0>         0.1517
       4  C3          8.8250   38.2350   58.8100  C.ar      1 <0>        -0.1289
       5  C4          8.1930   38.9390   57.8030  C.ar      1 <0>        -0.0942
       6  C5          7.2250   38.3290   57.0310  C.ar      1 <0>        -0.0914
       7  C6          6.8830   36.9950   57.2650  C.ar      1 <0>        -0.0042
       8  C7          7.5270   36.2830   58.2780  C.ar      1 <0>        -0.1129
       9  C8          5.8800   36.3600   56.4650  C.1       1 <0>         0.2524
      10  N2          5.0830   35.8560   55.8320  N.1       1 <0>        -0.4105
      11  C9          9.9620   35.1770   59.7670  C.2       1 <0>         0.5522
      12  O1         10.2080   34.9210   58.6050  O.2       1 <0>        -0.4737
      13  C10        10.5650   34.3700   60.8460  C.ar      1 <0>        -0.1251
      14  C11        11.7000   34.8310   61.5170  C.ar      1 <0>        -0.0670
      15  C12        12.2590   34.0730   62.5220  C.ar      1 <0>        -0.1452
      16  C13        11.6970   32.8540   62.8690  C.ar      1 <0>         0.1372
      17  C14        10.5720   32.3900   62.2070  C.ar      1 <0>        -0.1280
      18  C15         9.9990   33.1430   61.2030  C.ar      1 <0>        -0.0320
      19  I1          8.2920   32.4450   60.2100  I         1 <0>         0.0192
      20  F1         12.2500   32.1150   63.8560  F         1 <0>        -0.1240
@<TRIPOS>BOND
     1     1     2 1
     2     2     3 1
     3     2    11 am
     4     3     8 ar
     5     3     4 ar
     6     4     5 ar
     7     5     6 ar
     8     6     7 ar
     9     7     8 ar
    10     7     9 1
    11     9    10 3
    12    11    12 2
    13    11    13 1
    14    13    18 ar
    15    13    14 ar
    16    14    15 ar
    17    15    16 ar
    18    16    17 ar
    19    16    20 1
    20    17    18 ar
    21    18    19 1

@<TRIPOS>MOLECULE
ZINC62143050_replica-1.pdb
 21 22 0 0 0
SMALL
GASTEIGER

@<TRIPOS>ATOM
       1  C1          8.1490   33.1500   56.8130  C.3       1 <0>        -0.1150
       2  C2          8.2480   34.6490   56.9380  C.ar      1 <0>        -0.0915
       3  C3          7.8960   35.4570   55.8730  C.ar      1 <0>        -0.1191
       4  C4          7.9860   36.8310   55.9880  C.ar      1 <0>        -0.1166
       5  C5          8.4290   37.3980   57.1690  C.ar      1 <0>        -0.0736
       6  C6          8.7810   36.5910   58.2340  C.ar      1 <0>        -0.0775
       7  C7          8.6860   35.2170   58.1200  C.ar      1 <0>        -0.1149
       8  C8          9.2630   37.2100   59.5210  C.3       1 <0>        -0.1097
       9  C9          8.8230   36.3420   60.7010  C.3       1 <0>         0.1592
      10  C10        10.0380   35.7890   61.3990  C.ar      1 <0>        -0.1404
      11  C11        10.8060   36.6110   62.2030  C.ar      1 <0>        -0.0779
      12  C12        11.9200   36.1070   62.8450  C.ar      1 <0>        -0.1293
      13  C13        12.2700   34.7740   62.6810  C.ar      1 <0>         0.1054
      14  C14        11.4980   33.9520   61.8750  C.ar      1 <0>        -0.1858
      15  C15        10.3810   34.4590   61.2400  C.ar      1 <0>        -0.0709
      16  O1         13.3660   34.2760   63.3110  O.3       1 <0>        -0.3204
      17  C16        13.9370   33.0830   62.7710  C.3       1 <0>         0.4116
      18  F1         15.3150   33.2590   62.6050  F         1 <0>        -0.1974
      19  F2         13.7050   32.0170   63.6470  F         1 <0>        -0.1977
      20  O2          8.0650   37.1330   61.6180  O.3       1 <0>        -0.5472
      21  C17         8.5300   38.8960   57.2940  C.3       1 <0>        -0.1219
@<TRIPOS>BOND
     1     1     2 1
     2     2     7 ar
     3     2     3 ar
     4     3     4 ar
     5     4     5 ar
     6     5     6 ar
     7     5    21 1
     8     6     7 ar
     9     6     8 1
    10     8     9 1
    11     9    10 1
    12     9    20 1
    13    10    15 ar
    14    10    11 ar
    15    11    12 ar
    16    12    13 ar
    17    13    14 ar
    18    13    16 1
    19    14    15 ar
    20    16    17 1
    21    17    18 1
    22    17    19 1

@<TRIPOS>MOLECULE
ZINC66162376_replica-1.pdb
 25 26 0 0 0
SMALL
GASTEIGER

@<TRIPOS>ATOM
       1  C1         -0.5550   24.9120   51.4020  C.3       1 <0>        -0.1073
       2  C2         -0.7450   26.2460   52.0780  C.ar      1 <0>        -0.1462
       3  C3         -0.1610   26.4850   53.3080  C.ar      1 <0>        -0.0718
       4  C4         -0.3330   27.7060   53.9310  C.ar      1 <0>        -0.1908
       5  C5         -1.0930   28.6950   53.3180  C.ar      1 <0>         0.2119
       6  C6         -1.6780   28.4510   52.0820  C.ar      1 <0>        -0.1951
       7  C7         -1.4980   27.2300   51.4630  C.ar      1 <0>        -0.0723
       8  N1         -1.2690   29.9300   53.9450  N.pl3     1 <0>        -0.7451
       9  C8         -0.1140   30.6430   54.4980  C.3       1 <0>         0.1307
      10  C9         -0.3440   30.9100   55.9860  C.3       1 <0>         0.0439
      11  O1         -0.2320   29.6850   56.7140  O.3       1 <0>        -0.3016
      12  C10        -0.3260   29.7600   58.0670  C.ar      1 <0>         0.1274
      13  C11         0.3700   30.7400   58.7590  C.ar      1 <0>        -0.2047
      14  C12         0.2720   30.8140   60.1350  C.ar      1 <0>        -0.0871
      15  C13        -0.5200   29.9130   60.8230  C.ar      1 <0>        -0.1021
      16  C14        -1.2150   28.9350   60.1350  C.ar      1 <0>        -0.0800
      17  C15        -1.1250   28.8600   58.7580  C.ar      1 <0>        -0.0956
      18  C16        -1.8870   27.7980   58.0090  C.3       1 <0>        -0.0163
      19  C17        -2.7430   28.4550   56.9250  C.3       1 <0>        -0.1459
      20  C18        -0.9020   26.8240   57.3600  C.3       1 <0>        -0.1390
      21  C19        -2.7920   27.0380   58.9810  C.3       1 <0>        -0.1392
      22  C20        -0.6250   29.9960   62.3240  C.3       1 <0>        -0.0256
      23  C21        -0.2970   31.4190   62.7800  C.3       1 <0>        -0.1449
      24  C22        -2.0490   29.6380   62.7550  C.3       1 <0>        -0.1392
      25  C23         0.3620   29.0160   62.9590  C.3       1 <0>        -0.1393
@<TRIPOS>BOND
     1     1     2 1
     2     2     7 ar
     3     2     3 ar
     4     3     4 ar
     5     4     5 ar
     6     5     6 ar
     7     5     8 1
     8     6     7 ar
     9     8     9 1
    10     9    10 1
    11    10    11 1
    12    11    12 1
    13    12    17 ar
    14    12    13 ar
    15    13    14 ar
    16    14    15 ar
    17    15    16 ar
    18    15    22 1
    19    16    17 ar
    20    17    18 1
    21    18    19 1
    22    18    20 1
    23    18    21 1
    24    22    23 1
    25    22    24 1
    26    22    25 1

@<TRIPOS>MOLECULE
ZINC66188901_replica-1.pdb
 23 24 0 0 0
SMALL
GASTEIGER

@<TRIPOS>ATOM
       1  C1         -0.5380   24.8790   51.3970  C.3       1 <0>        -0.1185
       2  C2         -0.3700   25.8290   52.5550  C.ar      1 <0>        -0.0407
       3  C3          0.2910   25.4150   53.6970  C.ar      1 <0>        -0.1739
       4  C4          0.4480   26.2830   54.7620  C.ar      1 <0>        -0.0740
       5  C5         -0.0550   27.5670   54.6880  C.ar      1 <0>        -0.1998
       6  C6         -0.7190   27.9860   53.5420  C.ar      1 <0>         0.2186
       7  C7         -0.8700   27.1130   52.4720  C.ar      1 <0>        -0.1615
       8  C8         -1.5840   27.5660   51.2240  C.3       1 <0>        -0.1076
       9  N1         -1.2280   29.2840   53.4630  N.pl3     1 <0>        -0.7463
      10  C9         -1.2790   30.1250   54.6620  C.3       1 <0>         0.1170
      11  C10        -0.1650   31.1720   54.5980  C.3       1 <0>         0.1181
      12  N2          0.9160   30.7930   55.5110  N.pl3     1 <0>        -0.7490
      13  C11         0.8130   31.0840   56.8760  C.ar      1 <0>         0.1805
      14  C12         0.9020   30.0650   57.8130  C.ar      1 <0>        -0.1559
      15  C13         0.8000   30.3540   59.1600  C.ar      1 <0>        -0.1038
      16  C14         0.6090   31.6620   59.5750  C.ar      1 <0>         0.0769
      17  C15         0.5200   32.6820   58.6400  C.ar      1 <0>        -0.1596
      18  C16         0.6270   32.3960   57.2930  C.ar      1 <0>        -0.1528
      19  O1          0.5090   31.9460   60.9020  O.3       1 <0>        -0.3165
      20  C17         0.5860   30.8450   61.8090  C.3       1 <0>         0.0650
      21  C18        -0.7180   30.7460   62.6040  C.3       1 <0>        -0.0951
      22  C19        -1.6250   29.6910   61.9660  C.3       1 <0>        -0.1473
      23  C20        -0.4070   30.3460   64.0460  C.3       1 <0>        -0.1473
@<TRIPOS>BOND
     1     1     2 1
     2     2     7 ar
     3     2     3 ar
     4     3     4 ar
     5     4     5 ar
     6     5     6 ar
     7     6     7 ar
     8     6     9 1
     9     7     8 1
    10     9    10 1
    11    10    11 1
    12    11    12 1
    13    12    13 1
    14    13    18 ar
    15    13    14 ar
    16    14    15 ar
    17    15    16 ar
    18    16    17 ar
    19    16    19 1
    20    17    18 ar
    21    19    20 1
    22    20    21 1
    23    21    22 1
    24    21    23 1

@<TRIPOS>MOLECULE
ZINC45528866_replica-1.pdb
 27 30 0 0 0
SMALL
GASTEIGER

@<TRIPOS>ATOM
       1  C1         13.0770   30.9530   63.9180  C.ar      1 <0>        -0.1069
       2  C2         11.8160   31.2590   63.4420  C.ar      1 <0>        -0.1227
       3  C3         11.5970   32.4530   62.7810  C.ar      1 <0>        -0.0944
       4  C4         12.6410   33.3420   62.5970  C.ar      1 <0>        -0.1017
       5  C5         13.9010   33.0350   63.0730  C.ar      1 <0>        -0.0945
       6  C6         14.1200   31.8400   63.7320  C.ar      1 <0>        -0.1226
       7  C7         12.4030   34.6430   61.8750  C.3       1 <0>         0.1003
       8  O1         11.0650   35.0840   62.1170  O.3       1 <0>        -0.3020
       9  C8         10.3980   35.6310   61.0680  C.ar      1 <0>         0.1586
      10  C9          9.8680   36.9110   61.1760  C.ar      1 <0>        -0.2171
      11  C10         9.1940   37.4680   60.1200  C.ar      1 <0>        -0.0315
      12  C11         9.0420   36.7440   58.9290  C.ar      1 <0>        -0.1427
      13  C12         9.5800   35.4540   58.8260  C.ar      1 <0>        -0.0457
      14  C13        10.2550   34.9090   59.8870  C.ar      1 <0>        -0.1576
      15  C14         8.3230   37.3340   57.7970  C.2       1 <0>         0.0577
      16  C15         7.1030   36.8240   57.4150  C.2       1 <0>        -0.1843
      17  C16         6.2420   36.1070   58.3790  C.ar      1 <0>         0.0047
      18  C17         6.6270   35.9180   59.7010  C.ar      1 <0>        -0.1359
      19  C18         5.7870   35.2400   60.5640  C.ar      1 <0>        -0.0776
      20  C19         4.5680   34.7500   60.1200  C.ar      1 <0>        -0.1300
      21  C20         4.1710   34.9290   58.8110  C.ar      1 <0>        -0.0431
      22  C21         5.0040   35.6100   57.9240  C.ar      1 <0>        -0.1512
      23  C22         4.6180   35.8210   56.5220  C.2       1 <0>         0.5706
      24  O2          3.5500   35.3950   56.1260  O.2       1 <0>        -0.4961
      25  N1          5.4230   36.4780   55.6710  N.am      1 <0>        -0.6664
      26  C23         6.6120   36.9830   56.0360  C.2       1 <0>         0.5712
      27  O3          7.2930   37.5730   55.2180  O.2       1 <0>        -0.4978
@<TRIPOS>BOND
     1     1     6 ar
     2     1     2 ar
     3     2     3 ar
     4     3     4 ar
     5     4     5 ar
     6     4     7 1
     7     5     6 ar
     8     7     8 1
     9     8     9 1
    10     9    14 ar
    11     9    10 ar
    12    10    11 ar
    13    11    12 ar
    14    12    13 ar
    15    12    15 1
    16    13    14 ar
    17    15    16 2
    18    16    26 1
    19    16    17 1
    20    17    22 ar
    21    17    18 ar
    22    18    19 ar
    23    19    20 ar
    24    20    21 ar
    25    21    22 ar
    26    22    23 1
    27    23    24 2
    28    23    25 am
    29    25    26 am
    30    26    27 2

@<TRIPOS>MOLECULE
ZINC52204950_replica-1.pdb
 19 20 0 0 0
SMALL
GASTEIGER

@<TRIPOS>ATOM
       1  C1          8.0900   33.9720   56.7220  C.3       1 <0>        -0.1527
       2  C2          8.7380   34.5880   57.9640  C.3       1 <0>        -0.0923
       3  C3          8.6460   36.0900   57.8850  C.ar      1 <0>        -0.0735
       4  C4          8.5200   36.7130   56.6570  C.ar      1 <0>        -0.1187
       5  C5          8.4360   38.0900   56.5870  C.ar      1 <0>        -0.1138
       6  C6          8.4780   38.8460   57.7430  C.ar      1 <0>        -0.1256
       7  C7          8.6030   38.2240   58.9710  C.ar      1 <0>        -0.0859
       8  C8          8.6830   36.8450   59.0420  C.ar      1 <0>        -0.0854
       9  C9          8.8150   36.1660   60.3810  C.3       1 <0>         0.1940
      10  C10         7.7960   36.7590   61.3560  C.3       1 <0>         0.0592
      11  O1          8.4830   37.4020   62.4320  O.3       1 <0>        -0.5613
      12  N1         10.1680   36.3740   60.9030  N.pl3     1 <0>        -0.7352
      13  C11        10.8510   35.3200   61.5110  C.ar      1 <0>         0.2142
      14  C12        11.9460   35.5780   62.3270  C.ar      1 <0>        -0.2002
      15  C13        12.6190   34.5320   62.9280  C.ar      1 <0>        -0.0707
      16  C14        12.2060   33.2290   62.7180  C.ar      1 <0>        -0.1474
      17  C15        11.1160   32.9690   61.9060  C.ar      1 <0>        -0.0699
      18  C16        10.4350   34.0100   61.3070  C.ar      1 <0>        -0.1915
      19  C17        12.9440   32.0910   63.3750  C.3       1 <0>        -0.1070
@<TRIPOS>BOND
     1     1     2 1
     2     2     3 1
     3     3     8 ar
     4     3     4 ar
     5     4     5 ar
     6     5     6 ar
     7     6     7 ar
     8     7     8 ar
     9     8     9 1
    10     9    10 1
    11     9    12 1
    12    10    11 1
    13    12    13 1
    14    13    18 ar
    15    13    14 ar
    16    14    15 ar
    17    15    16 ar
    18    16    17 ar
    19    16    19 1
    20    17    18 ar

@<TRIPOS>MOLECULE
ZINC49885334_replica-1.pdb
 21 22 0 0 0
SMALL
GASTEIGER

@<TRIPOS>ATOM
       1  C1         -0.6540   24.4360   51.2760  C.3       1 <0>        -0.1071
       2  C2         -0.7390   25.7940   51.9240  C.ar      1 <0>        -0.1416
       3  C3         -1.4860   26.7950   51.3320  C.ar      1 <0>        -0.0772
       4  C4         -1.5660   28.0410   51.9220  C.ar      1 <0>        -0.1897
       5  C5         -0.8960   28.2870   53.1150  C.ar      1 <0>         0.2104
       6  C6         -0.1480   27.2790   53.7070  C.ar      1 <0>        -0.1600
       7  C7         -0.0760   26.0340   53.1130  C.ar      1 <0>        -0.0741
       8  C8          0.5820   27.5410   55.0000  C.3       1 <0>        -0.1051
       9  N1         -0.9750   29.5460   53.7140  N.pl3     1 <0>        -0.7506
      10  C9         -2.2580   30.2530   53.7700  C.3       1 <0>         0.1284
      11  C10        -2.4910   30.7740   55.1900  C.3       1 <0>        -0.1591
      12  C11        -1.1600   30.8120   55.9430  C.3       1 <0>         0.1555
      13  C12        -1.2430   29.9170   57.1530  C.ar      1 <0>        -0.1247
      14  C13        -0.4700   30.1880   58.2670  C.ar      1 <0>        -0.0891
      15  C14        -0.5460   29.3690   59.3780  C.ar      1 <0>        -0.1447
      16  C15        -1.3960   28.2750   59.3730  C.ar      1 <0>         0.0979
      17  C16        -2.1690   28.0040   58.2570  C.ar      1 <0>        -0.1139
      18  C17        -2.0940   28.8280   57.1500  C.ar      1 <0>        -0.0819
      19  C18        -3.0930   26.8150   58.2510  C.3       1 <0>        -0.1177
      20  F1         -1.4700   27.4730   60.4580  F         1 <0>        -0.1358
      21  O1         -0.8860   32.1510   56.3590  O.3       1 <0>        -0.5499
@<TRIPOS>BOND
     1     1     2 1
     2     2     7 ar
     3     2     3 ar
     4     3     4 ar
     5     4     5 ar
     6     5     6 ar
     7     5     9 1
     8     6     7 ar
     9     6     8 1
    10     9    10 1
    11    10    11 1
    12    11    12 1
    13    12    13 1
    14    12    21 1
    15    13    18 ar
    16    13    14 ar
    17    14    15 ar
    18    15    16 ar
    19    16    17 ar
    20    16    20 1
    21    17    18 ar
    22    17    19 1

@<TRIPOS>MOLECULE
ZINC37086289_replica-1.pdb
 21 22 0 0 0
SMALL
GASTEIGER

@<TRIPOS>ATOM
       1  C1          6.6640   37.8640   59.7240  C.3       1 <0>        -0.1696
       2  C2          7.3660   36.5250   59.4880  C.3       1 <0>         0.1532
       3  C3          8.8040   36.7770   59.0300  C.3       1 <0>        -0.0839
       4  C4          9.7620   36.2320   60.0570  C.ar      1 <0>        -0.1168
       5  C5         10.0390   36.9620   61.1990  C.ar      1 <0>        -0.0763
       6  C6         10.9160   36.4630   62.1420  C.ar      1 <0>        -0.1492
       7  C7         11.5210   35.2310   61.9430  C.ar      1 <0>         0.1247
       8  C8         11.2410   34.5000   60.7970  C.ar      1 <0>        -0.2043
       9  C9         10.3580   35.0000   59.8600  C.ar      1 <0>        -0.0670
      10  O1         12.3850   34.7390   62.8690  O.3       1 <0>        -0.3184
      11  C10        13.5150   34.0130   62.3810  C.3       1 <0>         0.0275
      12  N1          6.6490   35.7730   58.4550  N.pl3     1 <0>        -0.7318
      13  C11         7.0950   34.5010   58.0770  C.ar      1 <0>         0.2168
      14  C12         7.2810   33.5170   59.0360  C.ar      1 <0>        -0.1968
      15  C13         7.7210   32.2610   58.6600  C.ar      1 <0>        -0.0754
      16  C14         7.9780   31.9830   57.3310  C.ar      1 <0>        -0.1759
      17  C15         7.7960   32.9590   56.3680  C.ar      1 <0>        -0.0803
      18  C16         7.3500   34.2190   56.7350  C.ar      1 <0>         0.0866
      19  N2          7.1600   35.2080   55.7620  N.pl3     1 <0>        -0.6777
      20  C17         8.2160   36.1900   55.5000  C.3       1 <0>         0.1177
      21  C18         5.9060   35.2610   55.0070  C.3       1 <0>         0.1187
@<TRIPOS>BOND
     1     1     2 1
     2     2     3 1
     3     2    12 1
     4     3     4 1
     5     4     9 ar
     6     4     5 ar
     7     5     6 ar
     8     6     7 ar
     9     7     8 ar
    10     7    10 1
    11     8     9 ar
    12    10    11 1
    13    12    13 1
    14    13    18 ar
    15    13    14 ar
    16    14    15 ar
    17    15    16 ar
    18    16    17 ar
    19    17    18 ar
    20    18    19 1
    21    19    20 1
    22    19    21 1

@<TRIPOS>MOLECULE
ZINC57434982_replica-1.pdb
 22 23 0 0 0
SMALL
GASTEIGER

@<TRIPOS>ATOM
       1  C1         12.4950   35.1030   63.8770  C.3       1 <0>        -0.1397
       2  C2         12.3100   34.3110   62.5810  C.3       1 <0>        -0.0312
       3  C3         13.6650   34.1310   61.8950  C.3       1 <0>        -0.1392
       4  C4         11.7150   32.9380   62.9040  C.3       1 <0>        -0.1468
       5  C5         11.3770   35.0610   61.6640  C.ar      1 <0>        -0.0578
       6  C6         10.9220   36.3170   62.0210  C.ar      1 <0>        -0.1115
       7  C7         10.0670   37.0060   61.1830  C.ar      1 <0>        -0.0665
       8  C8          9.6650   36.4360   59.9830  C.ar      1 <0>         0.1118
       9  C9         10.1240   35.1750   59.6280  C.ar      1 <0>        -0.1152
      10  C10        10.9830   34.4930   60.4670  C.ar      1 <0>        -0.1101
      11  N1          8.7990   37.1310   59.1320  N.pl3     1 <0>        -0.6208
      12  C11         7.8240   36.4700   58.4770  C.2       1 <0>         0.5495
      13  S1          6.5410   35.7490   59.3520  S.2       1 <0>        -0.5818
      14  N2          7.8580   36.3780   57.1330  N.pl3     1 <0>        -0.6245
      15  C12         6.8050   35.7610   56.4450  C.ar      1 <0>         0.0818
      16  C13         5.6430   36.4710   56.1710  C.ar      1 <0>        -0.0157
      17  C14         4.6050   35.8610   55.4930  C.ar      1 <0>        -0.1529
      18  C15         4.7220   34.5410   55.0860  C.ar      1 <0>         0.1409
      19  C16         5.8790   33.8310   55.3580  C.ar      1 <0>        -0.1876
      20  C17         6.9220   34.4380   56.0320  C.ar      1 <0>         0.1279
      21  F1          8.0530   33.7470   56.2920  F         1 <0>        -0.1279
      22  F2          3.7050   33.9480   54.4240  F         1 <0>        -0.1263
@<TRIPOS>BOND
     1     1     2 1
     2     2     3 1
     3     2     4 1
     4     2     5 1
     5     5    10 ar
     6     5     6 ar
     7     6     7 ar
     8     7     8 ar
     9     8     9 ar
    10     8    11 1
    11     9    10 ar
    12    11    12 1
    13    12    13 2
    14    12    14 1
    15    14    15 1
    16    15    20 ar
    17    15    16 ar
    18    16    17 ar
    19    17    18 ar
    20    18    19 ar
    21    18    22 1
    22    19    20 ar
    23    20    21 1

@<TRIPOS>MOLECULE
ZINC49927721_replica-1.pdb
 23 24 0 0 0
SMALL
GASTEIGER

@<TRIPOS>ATOM
       1  C1         13.1830   34.1750   63.2000  C.3       1 <0>        -0.1555
       2  C2         12.1210   35.0760   62.5650  C.3       1 <0>        -0.1162
       3  C3         11.5040   34.3660   61.3590  C.3       1 <0>        -0.0552
       4  C4         10.6910   33.1610   61.8370  C.3       1 <0>        -0.1464
       5  C5         10.6000   35.3200   60.6220  C.ar      1 <0>        -0.0694
       6  C6         10.2660   36.5350   61.1900  C.ar      1 <0>        -0.1112
       7  C7          9.4370   37.4100   60.5150  C.ar      1 <0>        -0.1039
       8  C8          8.9420   37.0700   59.2690  C.ar      1 <0>        -0.1239
       9  C9          9.2770   35.8560   58.7000  C.ar      1 <0>        -0.1056
      10  C10        10.1090   34.9830   59.3740  C.ar      1 <0>        -0.1139
      11  C11         8.0370   38.0240   58.5330  C.3       1 <0>         0.1415
      12  C12         8.7210   38.4850   57.2440  C.3       1 <0>         0.1012
      13  N1          7.8020   38.3160   56.1160  N.pl3     1 <0>        -0.7461
      14  C13         7.0740   37.1280   55.9770  C.ar      1 <0>         0.1822
      15  C14         7.7380   35.9290   55.7550  C.ar      1 <0>        -0.1588
      16  C15         7.0210   34.7580   55.6200  C.ar      1 <0>        -0.1032
      17  C16         5.6370   34.7780   55.7050  C.ar      1 <0>         0.0727
      18  C17         4.9720   35.9760   55.9250  C.ar      1 <0>        -0.1585
      19  C18         5.6900   37.1470   56.0670  C.ar      1 <0>        -0.1547
      20  O1          4.9300   33.6240   55.5710  O.3       1 <0>        -0.3206
      21  C19         5.1330   32.6190   56.5660  C.3       1 <0>         0.0562
      22  C20         4.2140   32.8890   57.7590  C.3       1 <0>        -0.1528
      23  O2          7.7670   39.1580   59.3600  O.3       1 <0>        -0.5501
@<TRIPOS>BOND
     1     1     2 1
     2     2     3 1
     3     3     4 1
     4     3     5 1
     5     5    10 ar
     6     5     6 ar
     7     6     7 ar
     8     7     8 ar
     9     8     9 ar
    10     8    11 1
    11     9    10 ar
    12    11    12 1
    13    11    23 1
    14    12    13 1
    15    13    14 1
    16    14    19 ar
    17    14    15 ar
    18    15    16 ar
    19    16    17 ar
    20    17    18 ar
    21    17    20 1
    22    18    19 ar
    23    20    21 1
    24    21    22 1

@<TRIPOS>MOLECULE
ZINC06239295_replica-1.pdb
 23 24 0 0 0
SMALL
GASTEIGER

@<TRIPOS>ATOM
       1  C1         -0.4860   25.5930   52.3650  C.3       1 <0>        -0.1447
       2  C2         -0.7030   27.0080   51.8250  C.3       1 <0>        -0.0590
       3  C3         -1.9200   27.0180   50.8980  C.3       1 <0>        -0.1453
       4  C4         -0.9390   27.9540   52.9740  C.ar      1 <0>        -0.0663
       5  C5         -1.7500   29.0610   52.8010  C.ar      1 <0>        -0.1092
       6  C6         -1.9680   29.9300   53.8520  C.ar      1 <0>        -0.0671
       7  C7         -1.3720   29.6900   55.0840  C.ar      1 <0>         0.1149
       8  C8         -0.5540   28.5810   55.2520  C.ar      1 <0>        -0.1182
       9  C9         -0.3450   27.7140   54.1990  C.ar      1 <0>        -0.1099
      10  N1         -1.5920   30.5680   56.1510  N.pl3     1 <0>        -0.6257
      11  C10        -0.5700   31.2920   56.6490  C.2       1 <0>         0.5476
      12  S1          0.1710   30.8270   58.1210  S.2       1 <0>        -0.5866
      13  N2         -0.1320   32.3840   55.9910  N.pl3     1 <0>        -0.6253
      14  C11         1.0010   33.0670   56.4450  C.ar      1 <0>         0.1140
      15  C12         2.2690   32.5850   56.1490  C.ar      1 <0>        -0.0672
      16  C13         3.3860   33.2620   56.5990  C.ar      1 <0>        -0.1069
      17  C14         3.2410   34.4180   57.3440  C.ar      1 <0>        -0.0598
      18  C15         1.9800   34.9000   57.6400  C.ar      1 <0>        -0.1167
      19  C16         0.8590   34.2290   57.1940  C.ar      1 <0>        -0.1181
      20  C17         4.4620   35.1540   57.8340  C.3       1 <0>        -0.0308
      21  C18         4.0690   36.0820   58.9860  C.3       1 <0>        -0.1394
      22  C19         5.5020   34.1440   58.3250  C.3       1 <0>        -0.1456
      23  C20         5.0530   35.9810   56.6920  C.3       1 <0>        -0.1399
@<TRIPOS>BOND
     1     1     2 1
     2     2     3 1
     3     2     4 1
     4     4     9 ar
     5     4     5 ar
     6     5     6 ar
     7     6     7 ar
     8     7     8 ar
     9     7    10 1
    10     8     9 ar
    11    10    11 1
    12    11    12 2
    13    11    13 1
    14    13    14 1
    15    14    19 ar
    16    14    15 ar
    17    15    16 ar
    18    16    17 ar
    19    17    18 ar
    20    17    20 1
    21    18    19 ar
    22    20    21 1
    23    20    22 1
    24    20    23 1

@<TRIPOS>MOLECULE
ZINC20753297_replica-1.pdb
 37 43 0 0 0
SMALL
GASTEIGER

@<TRIPOS>ATOM
       1  C1         -1.5980   29.1760   54.1520  C.ar      1 <0>        -0.1127
       2  C2         -1.4570   30.5450   54.0110  C.ar      1 <0>        -0.1152
       3  C3         -0.4770   31.2160   54.7160  C.ar      1 <0>        -0.1112
       4  C4          0.3680   30.5130   55.5680  C.ar      1 <0>         0.1309
       5  C5          0.2260   29.1380   55.7020  C.ar      1 <0>        -0.1072
       6  C6         -0.7600   28.4750   54.9990  C.ar      1 <0>        -0.1123
       7  N1          1.3600   31.1890   56.2820  N.pl3     1 <0>        -1.0803
       8  S1          0.9650   32.0390   57.6480  S.o2      1 <0>         2.6944
       9  O1          0.3450   31.1170   58.5350  O.2       1 <0>        -0.9610
      10  O2          0.3200   33.2280   57.2130  O.2       1 <0>        -0.9570
      11  C7          2.4750   32.5330   58.4090  C.ar      1 <0>        -0.7269
      12  C8          2.4520   33.2250   59.6050  C.ar      1 <0>         0.0271
      13  C9          3.6320   33.6190   60.2020  C.ar      1 <0>        -0.2151
      14  C10         4.8520   33.3200   59.6070  C.ar      1 <0>         0.2749
      15  C11         4.8680   32.6120   58.4010  C.ar      1 <0>        -0.1676
      16  C12         3.6830   32.2300   57.8090  C.ar      1 <0>         0.0323
      17  C13         6.1880   32.2940   57.8120  C.3       1 <0>        -0.0148
      18  C14         6.3680   32.0870   56.3530  C.2       1 <0>        -0.1679
      19  C15         7.5880   32.4850   56.0140  C.2       1 <0>        -0.1751
      20  C16         8.3190   33.0300   57.2420  C.3       1 <0>        -0.0832
      21  C17         7.1480   33.4810   58.1240  C.3       1 <0>        -0.0828
      22  C18         7.3580   33.4470   59.6280  C.3       1 <0>         0.1980
      23  N2          6.0360   33.7460   60.2210  N.pl3     1 <0>        -0.7411
      24  C19         8.3610   34.4950   60.0370  C.ar      1 <0>        -0.0838
      25  C20         9.4640   34.1450   60.8120  C.ar      1 <0>        -0.0280
      26  C21         9.6730   32.8110   61.2230  C.ar      1 <0>        -0.1247
      27  C22        10.7610   32.5020   61.9740  C.ar      1 <0>        -0.1091
      28  C23        11.6900   33.4730   62.3510  C.ar      1 <0>        -0.1139
      29  C24        11.5520   34.7730   61.9870  C.ar      1 <0>        -0.1051
      30  C25        10.4440   35.1630   61.2050  C.ar      1 <0>        -0.0523
      31  C26        10.2710   36.4900   60.8130  C.ar      1 <0>        -0.0807
      32  C27         9.1650   36.8410   60.0420  C.ar      1 <0>        -0.0519
      33  C28         8.1880   35.8220   59.6440  C.ar      1 <0>        -0.0271
      34  C29         7.0800   36.2130   58.8630  C.ar      1 <0>        -0.1176
      35  C30         6.9430   37.5130   58.4980  C.ar      1 <0>        -0.1047
      36  C31         7.8720   38.4830   58.8770  C.ar      1 <0>        -0.1169
      37  C32         8.9590   38.1750   59.6270  C.ar      1 <0>        -0.1012
@<TRIPOS>BOND
     1     1     6 ar
     2     1     2 ar
     3     2     3 ar
     4     3     4 ar
     5     4     5 ar
     6     4     7 1
     7     5     6 ar
     8     7     8 1
     9     8     9 2
    10     8    10 2
    11     8    11 1
    12    11    16 ar
    13    11    12 ar
    14    12    13 ar
    15    13    14 ar
    16    14    23 1
    17    14    15 ar
    18    15    16 ar
    19    15    17 1
    20    17    21 1
    21    17    18 1
    22    18    19 2
    23    19    20 1
    24    20    21 1
    25    21    22 1
    26    22    23 1
    27    22    24 1
    28    24    33 ar
    29    24    25 ar
    30    25    30 ar
    31    25    26 ar
    32    26    27 ar
    33    27    28 ar
    34    28    29 ar
    35    29    30 ar
    36    30    31 ar
    37    31    32 ar
    38    32    37 ar
    39    32    33 ar
    40    33    34 ar
    41    34    35 ar
    42    35    36 ar
    43    36    37 ar

@<TRIPOS>MOLECULE
ZINC37954168_replica-1.pdb
 21 22 0 0 0
SMALL
GASTEIGER

@<TRIPOS>ATOM
       1  C1         -3.0540   29.3480   56.3320  C.3       1 <0>        -0.1555
       2  C2         -2.1600   29.1580   55.1050  C.3       1 <0>        -0.0830
       3  C3         -2.3860   30.3120   54.1250  C.3       1 <0>        -0.1460
       4  C4         -0.6930   29.1410   55.5420  C.3       1 <0>         0.2510
       5  C5         -0.5030   28.1110   56.6260  C.ar      1 <0>        -0.1121
       6  C6         -1.5200   27.2230   56.9210  C.ar      1 <0>        -0.1086
       7  C7         -1.3460   26.2780   57.9140  C.ar      1 <0>        -0.1228
       8  C8         -0.1540   26.2220   58.6130  C.ar      1 <0>        -0.1051
       9  C9          0.8630   27.1100   58.3180  C.ar      1 <0>        -0.1281
      10  C10         0.6910   28.0510   57.3200  C.ar      1 <0>        -0.0733
      11  C11        -0.3100   30.5010   56.0670  C.2       1 <0>         0.4578
      12  O1         -0.8270   30.9280   57.0710  O.2       1 <0>        -0.4994
      13  O2          0.6060   31.2360   55.4180  O.3       1 <0>        -0.3303
      14  C12         1.3350   32.1920   56.1890  C.3       1 <0>         0.0286
      15  N1          0.1540   28.8030   54.3940  N.pl3     1 <0>        -0.7337
      16  C13        -0.1050   27.6490   53.6520  C.ar      1 <0>         0.2065
      17  C14        -0.8390   27.7270   52.4750  C.ar      1 <0>        -0.1713
      18  C15        -1.0920   26.5840   51.7430  C.ar      1 <0>        -0.0835
      19  C16        -0.6150   25.3630   52.1800  C.ar      1 <0>        -0.1670
      20  C17         0.1170   25.2800   53.3500  C.ar      1 <0>        -0.0824
      21  C18         0.3770   26.4210   54.0840  C.ar      1 <0>        -0.1841
@<TRIPOS>BOND
     1     1     2 1
     2     2     3 1
     3     2     4 1
     4     4     5 1
     5     4    11 1
     6     4    15 1
     7     5    10 ar
     8     5     6 ar
     9     6     7 ar
    10     7     8 ar
    11     8     9 ar
    12     9    10 ar
    13    11    12 2
    14    11    13 1
    15    13    14 1
    16    15    16 1
    17    16    21 ar
    18    16    17 ar
    19    17    18 ar
    20    18    19 ar
    21    19    20 ar
    22    20    21 ar

@<TRIPOS>MOLECULE
ZINC37145476_replica-1.pdb
 23 24 0 0 0
SMALL
GASTEIGER

@<TRIPOS>ATOM
      1  O2        -1.3210   29.6450   53.1460 O.3     0  <0>0       -0.4714
      2  C9        -2.6010   30.2820   53.1420 C.3     0  <0>0        0.2525
      3  C8        -3.0940   30.4440   54.5810 C.3     0  <0>0        0.2525
      4  O1        -2.0050   30.8430   55.4160 O.3     0  <0>0       -0.4706
      5  C6        -1.7650   30.0860   56.5190 C.ar    0  <0>0        0.1488
      6  C5        -0.7790   30.4630   57.4200 C.ar    0  <0>0        0.0915
      7  C4        -0.5360   29.6910   58.5410 C.ar    0  <0>0        0.0141
      8 Cl          0.1500   31.9040   57.1390 Cl      0  <0>0       -0.0791
      9  C3        -1.2750   28.5450   58.7650 C.ar    0  <0>0       -0.0032
     10  C2        -2.2590   28.1680   57.8690 C.ar    0  <0>0       -0.0188
     11  C1        -3.0630   26.9170   58.1170 C.3     0  <0>0        0.0311
     12  C7        -2.5020   28.9320   56.7440 C.ar    0  <0>0        0.0335
     13  C10       -1.2490   28.4030   52.6060 C.ar    0  <0>0        0.1403
     14  C15       -0.4470   27.4210   53.2040 C.ar    0  <0>0        0.0535
     15  C14       -0.3850   26.1430   52.6410 C.ar    0  <0>0        0.0048
     16  C13       -1.1020   25.8610   51.4980 C.ar    0  <0>0        0.0003
     17  C12       -1.8890   26.8360   50.9080 C.ar    0  <0>0        0.0031
     18  C11       -1.9640   28.1010   51.4580 C.ar    0  <0>0        0.0370
     19  C16        0.3220   27.7320   54.4220 C.2     0  <0>0        0.0810
     20  S1         0.3270   26.6350   55.7350 S.2     0  <0>0       -0.0351
     21  N1         1.0220   28.8820   54.5010 N.am    0  <0>0       -0.3516
     22  H15        1.0200   29.5040   53.7560 H       0  <0>0        0.1428
     23  H16        1.5290   29.0870   55.3020 H       0  <0>0        0.1428
@<TRIPOS>BOND
     1    17    18   ar
     2    17    16   ar
     3    18    13   ar
     4    16    15   ar
     5    13     1    1
     6    13    14   ar
     7    15    14   ar
     8     2     1    1
     9     2     3    1
    10    14    19    1
    11    22    21    1
    12    19    21    1
    13    19    20    2
    14    21    23    1
    15     3     4    1
    16     4     5    1
    17     5    12   ar
    18     5     6   ar
    19    12    10   ar
    20     8     6    1
    21     6     7   ar
    22    10    11    1
    23    10     9   ar
    24     7     9   ar


@<TRIPOS>MOLECULE
ZINC49926212_replica-1.pdb
 22 23 0 0 0
SMALL
GASTEIGER

@<TRIPOS>ATOM
       1  C1          8.0770   38.3880   59.4390  C.ar      1 <0>        -0.0785
       2  C2          7.8180   38.8920   58.1780  C.ar      1 <0>        -0.1503
       3  C3          7.9960   38.0900   57.0630  C.ar      1 <0>         0.1021
       4  C4          8.4320   36.7850   57.2130  C.ar      1 <0>        -0.1496
       5  C5          8.6900   36.2830   58.4750  C.ar      1 <0>        -0.0822
       6  C6          8.5120   37.0850   59.5870  C.ar      1 <0>        -0.1313
       7  C7          8.7920   36.5370   60.9630  C.3       1 <0>         0.1553
       8  C8         10.3000   36.5600   61.2240  C.3       1 <0>        -0.1601
       9  C9         10.8990   35.1960   60.8770  C.3       1 <0>         0.1228
      10  N1         12.0260   34.9160   61.7690  N.pl3     1 <0>        -0.7419
      11  C10        12.1330   33.6690   62.3890  C.ar      1 <0>         0.2458
      12  C11        13.3680   33.2180   62.8380  C.ar      1 <0>        -0.1993
      13  C12        13.4700   31.9850   63.4510  C.ar      1 <0>        -0.0203
      14  C13        12.3450   31.1980   63.6180  C.ar      1 <0>        -0.2451
      15  C14        11.1140   31.6450   63.1730  C.ar      1 <0>        -0.0211
      16  C15        11.0040   32.8790   62.5630  C.ar      1 <0>        -0.1981
      17  C16        12.4590   29.8530   64.2860  C.3       1 <0>         0.5121
      18  F1         11.1830   29.3070   64.4570  F         1 <0>        -0.1802
      19  F2         13.2300   29.0000   63.4870  F         1 <0>        -0.1804
      20  F3         13.0730   30.0030   65.5340  F         1 <0>        -0.1802
      21  O1          8.1270   37.3390   61.9400  O.3       1 <0>        -0.5500
      22  F4          7.7440   38.5810   55.8290  F         1 <0>        -0.1369
@<TRIPOS>BOND
     1     1     6 ar
     2     1     2 ar
     3     2     3 ar
     4     3     4 ar
     5     3    22 1
     6     4     5 ar
     7     5     6 ar
     8     6     7 1
     9     7     8 1
    10     7    21 1
    11     8     9 1
    12     9    10 1
    13    10    11 1
    14    11    16 ar
    15    11    12 ar
    16    12    13 ar
    17    13    14 ar
    18    14    15 ar
    19    14    17 1
    20    15    16 ar
    21    17    18 1
    22    17    19 1
    23    17    20 1

@<TRIPOS>MOLECULE
ZINC37856852_replica-1.pdb
 23 24 0 0 0
SMALL
GASTEIGER

@<TRIPOS>ATOM
      1  C9         9.0870   37.1470   60.9110 C.3     0  <0>0        0.1735
      2  C8        10.3550   36.5270   61.4990 C.3     0  <0>0        0.1206
      3  N1        10.4520   35.1250   61.0840 N.pl3   0  <0>0       -0.3306
      4  H9         9.9230   34.8030   60.3360 H       0  <0>0        0.1469
      5  C5        11.3030   34.2520   61.7640 C.ar    0  <0>0        0.0447
      6  C4        12.5830   34.6620   62.1170 C.ar    0  <0>0        0.0140
      7  C3        13.4220   33.7950   62.7910 C.ar    0  <0>0       -0.0030
      8  C2        12.9890   32.5230   63.1150 C.ar    0  <0>0       -0.0218
      9  C1        13.9080   31.5810   63.8500 C.3     0  <0>0        0.0310
     10  C7        11.7180   32.1100   62.7610 C.ar    0  <0>0       -0.0030
     11  C6        10.8710   32.9720   62.0920 C.ar    0  <0>0        0.0140
     12  C10        8.4630   36.1750   59.9070 C.3     0  <0>0        0.2362
     13  O1         9.2000   36.2160   58.6830 O.3     0  <0>0       -0.4711
     14  C11        8.4830   36.1750   57.5290 C.ar    0  <0>0        0.1595
     15  C16        8.1660   37.3530   56.8670 C.ar    0  <0>0        0.0924
     16  C15        7.4410   37.3090   55.6890 C.ar    0  <0>0        0.0145
     17 Cl          8.6840   38.8800   57.5110 Cl      0  <0>0       -0.0791
     18  C14        7.0230   36.0930   55.1790 C.ar    0  <0>0        0.0019
     19  C13        7.3340   34.9200   55.8400 C.ar    0  <0>0        0.0145
     20  C12        8.0630   34.9580   57.0150 C.ar    0  <0>0        0.0924
     21 Cl          8.4510   33.4830   57.8430 Cl      0  <0>0       -0.0791
     22  O2         8.1540   37.4110   61.9620 O.3     0  <0>0       -0.3791
     23  H17        8.5350   37.8810   62.7170 H       0  <0>0        0.2106
@<TRIPOS>BOND
     1    18    16   ar
     2    18    19   ar
     3    16    15   ar
     4    19    20   ar
     5    15    17    1
     6    15    14   ar
     7    20    14   ar
     8    20    21    1
     9    14    13    1
    10    13    12    1
    11    12     1    1
    12     4     3    1
    13     1     2    1
    14     1    22    1
    15     3     2    1
    16     3     5    1
    17     5    11   ar
    18     5     6   ar
    19    22    23    1
    20    11    10   ar
    21     6     7   ar
    22    10     8   ar
    23     7     8   ar
    24     8     9    1


@<TRIPOS>MOLECULE
ZINC04903699_replica-1.pdb
 30 34 0 0 0
SMALL
GASTEIGER

@<TRIPOS>ATOM
       1  C1         -0.7290   25.4040   51.7060  C.3       1 <0>        -0.1479
       2  C2         -1.2160   26.8420   51.5200  C.3       1 <0>        -0.0878
       3  C3         -0.9220   27.6370   52.7650  C.ar      1 <0>        -0.0646
       4  C4          0.0820   27.2290   53.6240  C.ar      1 <0>        -0.1079
       5  C5          0.3540   27.9550   54.7660  C.ar      1 <0>        -0.0876
       6  C6         -0.3820   29.0980   55.0520  C.ar      1 <0>         0.1214
       7  C7         -1.3880   29.5060   54.1870  C.ar      1 <0>        -0.0878
       8  C8         -1.6520   28.7780   53.0440  C.ar      1 <0>        -0.1079
       9  N1         -0.1080   29.8380   56.2110  N.am      1 <0>        -0.5104
      10  C9         -0.3840   29.2990   57.4120  C.2       1 <0>         0.5743
      11  O1         -0.8630   28.1830   57.4930  O.2       1 <0>        -0.4855
      12  C10        -0.0940   30.0790   58.6330  C.2       1 <0>        -0.2445
      13  C11        -0.3120   29.6900   60.0350  C.2       1 <0>        -0.0473
      14  C12         0.0500   30.6160   60.9380  C.2       1 <0>        -0.2303
      15  S1          0.6650   31.9700   59.9690  S.3       1 <0>         0.2832
      16  C13         0.4530   31.3430   58.4370  C.2       1 <0>         0.0494
      17  N2          0.7020   31.8180   57.1740  N.am      1 <0>        -0.4899
      18  C14         0.4260   31.0650   56.0930  C.2       1 <0>         0.7096
      19  O2          0.6610   31.5070   54.9850  O.2       1 <0>        -0.5158
      20  C15         1.2790   33.1530   57.0010  C.3       1 <0>         0.1529
      21  C16         2.7580   33.0310   56.7390  C.ar      1 <0>        -0.1334
      22  C17         3.3430   33.7650   55.7250  C.ar      1 <0>        -0.0946
      23  C18         4.7010   33.6540   55.4860  C.ar      1 <0>        -0.1232
      24  C19         5.4720   32.8070   56.2590  C.ar      1 <0>        -0.0703
      25  C20         4.8860   32.0740   57.2740  C.ar      1 <0>        -0.1238
      26  C21         3.5300   32.1890   57.5170  C.ar      1 <0>        -0.0824
      27  C22         6.9510   32.6850   55.9970  C.3       1 <0>        -0.1192
      28  C23        -0.2030   30.1550   62.3480  C.3       1 <0>        -0.0281
      29  C24        -1.1790   28.9650   62.1990  C.3       1 <0>        -0.1166
      30  C25        -0.8570   28.4700   60.7760  C.3       1 <0>        -0.0623
@<TRIPOS>BOND
     1     1     2 1
     2     2     3 1
     3     3     8 ar
     4     3     4 ar
     5     4     5 ar
     6     5     6 ar
     7     6     7 ar
     8     6     9 1
     9     7     8 ar
    10     9    18 am
    11     9    10 am
    12    10    11 2
    13    10    12 1
    14    12    16 2
    15    12    13 1
    16    13    30 1
    17    13    14 2
    18    14    15 1
    19    14    28 1
    20    15    16 1
    21    16    17 1
    22    17    18 am
    23    17    20 1
    24    18    19 2
    25    20    21 1
    26    21    26 ar
    27    21    22 ar
    28    22    23 ar
    29    23    24 ar
    30    24    25 ar
    31    24    27 1
    32    25    26 ar
    33    28    29 1
    34    29    30 1

@<TRIPOS>MOLECULE
ZINC37881128_replica-1.pdb
 21 22 0 0 0
SMALL
GASTEIGER

@<TRIPOS>ATOM
       1  C1         -0.4890   24.7610   51.4440  C.3       1 <0>        -0.1070
       2  C2         -0.7510   26.1510   51.9660  C.ar      1 <0>        -0.1787
       3  C3         -1.4910   27.0440   51.2130  C.ar      1 <0>        -0.0435
       4  C4         -1.7330   28.3170   51.6880  C.ar      1 <0>        -0.2000
       5  C5         -1.2330   28.7020   52.9250  C.ar      1 <0>         0.2392
       6  C6         -0.4900   27.8060   53.6820  C.ar      1 <0>        -0.2343
       7  C7         -0.2550   26.5300   53.2020  C.ar      1 <0>         0.1444
       8  F1          0.4640   25.6540   53.9390  F         1 <0>        -0.1378
       9  N1         -1.4760   29.9910   53.4080  N.pl3     1 <0>        -0.7379
      10  C8         -0.6410   30.5420   54.4780  C.3       1 <0>         0.0961
      11  C9         -1.5310   31.0080   55.6310  C.3       1 <0>         0.1421
      12  C10        -1.7770   29.8560   56.5710  C.ar      1 <0>        -0.1255
      13  C11        -0.9330   29.6480   57.6450  C.ar      1 <0>        -0.1053
      14  C12        -1.1580   28.5920   58.5080  C.ar      1 <0>        -0.1141
      15  C13        -2.2300   27.7440   58.2960  C.ar      1 <0>        -0.0688
      16  C14        -3.0750   27.9520   57.2230  C.ar      1 <0>        -0.1115
      17  C15        -2.8520   29.0120   56.3630  C.ar      1 <0>        -0.1035
      18  C16        -2.4750   26.5910   59.2360  C.3       1 <0>        -0.0600
      19  C17        -1.6970   25.3650   58.7520  C.3       1 <0>        -0.1455
      20  C18        -2.0080   26.9710   60.6420  C.3       1 <0>        -0.1454
      21  O1         -0.8820   32.0680   56.3360  O.3       1 <0>        -0.5498
@<TRIPOS>BOND
     1     1     2 1
     2     2     7 ar
     3     2     3 ar
     4     3     4 ar
     5     4     5 ar
     6     5     6 ar
     7     5     9 1
     8     6     7 ar
     9     7     8 1
    10     9    10 1
    11    10    11 1
    12    11    12 1
    13    11    21 1
    14    12    17 ar
    15    12    13 ar
    16    13    14 ar
    17    14    15 ar
    18    15    16 ar
    19    15    18 1
    20    16    17 ar
    21    18    19 1
    22    18    20 1

@<TRIPOS>MOLECULE
ZINC00504685_replica-1.pdb
 25 26 0 0 0
SMALL
GASTEIGER

@<TRIPOS>ATOM
       1  C1         -0.5240   24.9680   51.3320  C.3       1 <0>        -0.1201
       2  C2         -0.6610   26.2220   52.1550  C.ar      1 <0>        -0.0610
       3  C3         -1.3510   27.3090   51.6460  C.ar      1 <0>        -0.1344
       4  C4         -1.4800   28.4610   52.3930  C.ar      1 <0>        -0.0785
       5  C5         -0.9120   28.5290   53.6680  C.ar      1 <0>        -0.0749
       6  C6         -0.2220   27.4260   54.1780  C.ar      1 <0>        -0.0344
       7  C7         -0.0970   26.2830   53.4160  C.ar      1 <0>        -0.1304
       8  C8          0.3870   27.4880   55.5550  C.3       1 <0>        -0.1156
       9  C9         -1.0450   29.7570   54.4740  C.2       1 <0>         0.1148
      10  N1         -0.2050   30.7330   54.3130  N.2       1 <0>        -0.2209
      11  N2         -0.3330   31.8990   55.0790  N.am      1 <0>        -0.5884
      12  C10         0.3930   32.0480   56.2050  C.2       1 <0>         0.5325
      13  O1          1.1560   31.1730   56.5560  O.2       1 <0>        -0.4746
      14  C11         0.2570   33.3030   57.0290  C.3       1 <0>         0.0486
      15  O2          0.3520   32.9740   58.4160  O.3       1 <0>        -0.2853
      16  C12         1.5070   33.3040   59.0500  C.ar      1 <0>         0.1306
      17  C13         2.2440   34.4010   58.6270  C.ar      1 <0>        -0.2090
      18  C14         3.4150   34.7380   59.2760  C.ar      1 <0>        -0.0513
      19  C15         3.8600   33.9760   60.3420  C.ar      1 <0>        -0.1520
      20  C16         3.1310   32.8790   60.7620  C.ar      1 <0>        -0.0732
      21  C17         1.9560   32.5410   60.1180  C.ar      1 <0>        -0.1030
      22  C18         1.1620   31.3460   60.5780  C.3       1 <0>        -0.0553
      23  C19         2.1060   30.1630   60.8050  C.3       1 <0>        -0.1420
      24  C20         0.4420   31.6830   61.8850  C.3       1 <0>        -0.1421
      25  C21         4.2130   35.9330   58.8200  C.3       1 <0>        -0.1169
@<TRIPOS>BOND
     1     1     2 1
     2     2     7 ar
     3     2     3 ar
     4     3     4 ar
     5     4     5 ar
     6     5     6 ar
     7     5     9 1
     8     6     7 ar
     9     6     8 1
    10     9    10 2
    11    10    11 1
    12    11    12 am
    13    12    13 2
    14    12    14 1
    15    14    15 1
    16    15    16 1
    17    16    21 ar
    18    16    17 ar
    19    17    18 ar
    20    18    19 ar
    21    18    25 1
    22    19    20 ar
    23    20    21 ar
    24    21    22 1
    25    22    23 1
    26    22    24 1

@<TRIPOS>MOLECULE
ZINC02512009_replica-1.pdb
 26 27 0 0 0
SMALL
GASTEIGER

@<TRIPOS>ATOM
       1  C1         11.8050   32.9740   62.9380  C.3       1 <0>        -0.1351
       2  C2         12.3510   34.3570   62.5760  C.3       1 <0>        -0.0275
       3  C3         12.5280   35.1840   63.8510  C.3       1 <0>        -0.1376
       4  C4         13.7020   34.2040   61.8760  C.3       1 <0>        -0.1433
       5  C5         11.3840   35.0550   61.6550  C.ar      1 <0>        -0.0779
       6  C6         10.9040   36.3090   61.9800  C.ar      1 <0>        -0.1289
       7  C7         10.0160   36.9490   61.1350  C.ar      1 <0>        -0.0539
       8  C8          9.6100   36.3340   59.9650  C.ar      1 <0>        -0.0760
       9  C9         10.0910   35.0800   59.6400  C.ar      1 <0>        -0.1187
      10  C10        10.9810   34.4410   60.4830  C.ar      1 <0>        -0.1268
      11  C11         8.6410   37.0310   59.0440  C.3       1 <0>         0.2197
      12  C12         7.5540   37.7200   59.8720  C.3       1 <0>        -0.1899
      13  C13         6.3970   36.7750   60.0680  C.2       1 <0>         0.5007
      14  O1          6.4820   35.8660   60.8750  O.co2     1 <0>        -0.6885
      15  O2          5.3750   36.9200   59.4180  O.co2     1 <0>        -0.7025
      16  N1          8.0250   36.0480   58.1500  N.am      1 <0>        -0.7005
      17  C14         8.0530   36.2380   56.8160  C.2       1 <0>         0.6437
      18  O3          8.5100   37.2680   56.3590  O.2       1 <0>        -0.5654
      19  O4          7.5740   35.2900   55.9900  O.3       1 <0>        -0.3658
      20  C15         6.6620   35.7140   54.9740  C.3       1 <0>         0.1261
      21  C16         5.2510   35.3980   55.4010  C.ar      1 <0>        -0.0928
      22  C17         4.7260   34.1400   55.1720  C.ar      1 <0>        -0.0942
      23  C18         3.4330   33.8490   55.5630  C.ar      1 <0>        -0.1248
      24  C19         2.6640   34.8160   56.1840  C.ar      1 <0>        -0.1127
      25  C20         3.1900   36.0740   56.4140  C.ar      1 <0>        -0.1246
      26  C21         4.4850   36.3630   56.0260  C.ar      1 <0>        -0.0941
@<TRIPOS>BOND
     1     1     2 1
     2     2     3 1
     3     2     4 1
     4     2     5 1
     5     5    10 ar
     6     5     6 ar
     7     6     7 ar
     8     7     8 ar
     9     8     9 ar
    10     8    11 1
    11     9    10 ar
    12    11    12 1
    13    11    16 1
    14    12    13 1
    15    13    14 2
    16    13    15 1
    17    16    17 am
    18    17    18 2
    19    17    19 1
    20    19    20 1
    21    20    21 1
    22    21    26 ar
    23    21    22 ar
    24    22    23 ar
    25    23    24 ar
    26    24    25 ar
    27    25    26 ar

@<TRIPOS>MOLECULE
ZINC36953366_replica-1.pdb
 20 21 0 0 0
SMALL
GASTEIGER

@<TRIPOS>ATOM
       1  C1          5.8210   37.4080   60.0390  C.3       1 <0>        -0.1554
       2  C2          6.8250   38.4270   59.4960  C.3       1 <0>        -0.1158
       3  C3          7.6980   37.7630   58.4300  C.3       1 <0>        -0.0455
       4  C4          8.4210   38.8400   57.6190  C.3       1 <0>        -0.1455
       5  C5          8.7140   36.8710   59.0970  C.ar      1 <0>        -0.1327
       6  C6          9.3140   37.2690   60.2770  C.ar      1 <0>        -0.0654
       7  C7         10.2440   36.4540   60.8910  C.ar      1 <0>        -0.1907
       8  C8         10.5790   35.2320   60.3200  C.ar      1 <0>         0.2124
       9  C9          9.9740   34.8340   59.1330  C.ar      1 <0>        -0.1944
      10  C10         9.0400   35.6520   58.5290  C.ar      1 <0>        -0.0689
      11  N1         11.5200   34.4050   60.9370  N.pl3     1 <0>        -0.7446
      12  C11        11.7600   34.5160   62.3780  C.3       1 <0>         0.1714
      13  C12        12.2960   33.2080   62.9000  C.ar      1 <0>        -0.1845
      14  C13        11.4550   32.1170   63.0310  C.ar      1 <0>         0.1485
      15  C14        11.9490   30.9150   63.5110  C.ar      1 <0>        -0.1666
      16  C15        13.2820   30.8060   63.8590  C.ar      1 <0>        -0.0507
      17  C16        14.1230   31.8950   63.7280  C.ar      1 <0>        -0.1666
      18  C17        13.6330   33.0950   63.2430  C.ar      1 <0>         0.1485
      19  F1         14.4560   34.1570   63.1100  F         1 <0>        -0.1236
      20  F2         10.1510   32.2240   62.6910  F         1 <0>        -0.1236
@<TRIPOS>BOND
     1     1     2 1
     2     2     3 1
     3     3     4 1
     4     3     5 1
     5     5    10 ar
     6     5     6 ar
     7     6     7 ar
     8     7     8 ar
     9     8     9 ar
    10     8    11 1
    11     9    10 ar
    12    11    12 1
    13    12    13 1
    14    13    18 ar
    15    13    14 ar
    16    14    15 ar
    17    14    20 1
    18    15    16 ar
    19    16    17 ar
    20    17    18 ar
    21    18    19 1

@<TRIPOS>MOLECULE
ZINC20881566_replica-1.pdb
 35 39 0 0 0
SMALL
GASTEIGER

@<TRIPOS>ATOM
       1  C1         15.3630   34.0230   64.4670  C.3       1 <0>        -0.1490
       2  C2         14.9910   33.1300   63.2810  C.3       1 <0>        -0.0952
       3  C3         14.1610   31.9440   63.7780  C.3       1 <0>        -0.1495
       4  C4         14.1720   33.9380   62.2720  C.3       1 <0>         0.0613
       5  O1         12.9410   34.3430   62.8740  O.3       1 <0>        -0.3125
       6  C5         11.8030   34.1040   62.1710  C.ar      1 <0>         0.1324
       7  C6         11.2710   35.0890   61.3530  C.ar      1 <0>        -0.1498
       8  C7         10.1140   34.8430   60.6390  C.ar      1 <0>        -0.0710
       9  C8          9.4860   33.6160   60.7410  C.ar      1 <0>        -0.1200
      10  C9         10.0110   32.6330   61.5600  C.ar      1 <0>        -0.0719
      11  C10        11.1710   32.8740   62.2720  C.ar      1 <0>        -0.2064
      12  C11         8.2240   33.3500   59.9610  C.3       1 <0>        -0.0295
      13  C12         8.4830   33.5550   58.4700  C.3       1 <0>        -0.1032
      14  C13         7.2170   33.2730   57.6790  C.2       1 <0>         0.2702
      15  C14         6.3390   32.3490   58.1070  C.2       1 <0>        -0.3038
      16  C15         5.0470   31.9710   57.4220  C.3       1 <0>         0.2868
      17  N1          4.9030   32.4940   56.0800  N.pl3     1 <0>        -0.7823
      18  C16         4.8160   33.8660   55.8490  C.ar      1 <0>         0.1726
      19  C17         3.6470   34.4500   55.3890  C.ar      1 <0>        -0.1249
      20  C18         3.5720   35.8270   55.2820  C.ar      1 <0>        -0.1091
      21  C19         4.6530   36.6170   55.6280  C.ar      1 <0>        -0.1244
      22  C20         5.8310   36.0350   56.0670  C.ar      1 <0>        -0.1168
      23  C21         5.9130   34.6570   56.1580  C.ar      1 <0>         0.1150
      24  N2          7.0780   34.0060   56.5450  N.pl3     1 <0>        -0.6990
      25  C22         3.8980   32.4750   58.2570  C.ar      1 <0>        -0.0832
      26  C23         2.6920   31.7970   58.2530  C.ar      1 <0>        -0.0835
      27  C24         1.6390   32.2530   59.0210  C.ar      1 <0>        -0.1363
      28  C25         1.7880   33.4020   59.7880  C.ar      1 <0>        -0.0814
      29  C26         2.9990   34.0850   59.7840  C.ar      1 <0>        -0.1033
      30  C27         4.0490   33.6190   59.0190  C.ar      1 <0>        -0.0715
      31  S1          0.4450   33.9920   60.7640  S.3       1 <0>        -0.1257
      32  C28         0.5100   32.9740   62.2630  C.3       1 <0>        -0.1446
      33  C29         6.5810   31.6380   59.3060  C.2       1 <0>         0.4001
      34  O2          5.7830   30.7900   59.6560  O.2       1 <0>        -0.4711
      35  C30         7.7850   31.8950   60.1620  C.3       1 <0>        -0.1599
@<TRIPOS>BOND
     1     1     2 1
     2     2     3 1
     3     2     4 1
     4     4     5 1
     5     5     6 1
     6     6    11 ar
     7     6     7 ar
     8     7     8 ar
     9     8     9 ar
    10     9    10 ar
    11     9    12 1
    12    10    11 ar
    13    12    35 1
    14    12    13 1
    15    13    14 1
    16    14    24 1
    17    14    15 2
    18    15    16 1
    19    15    33 1
    20    16    17 1
    21    16    25 1
    22    17    18 1
    23    18    23 ar
    24    18    19 ar
    25    19    20 ar
    26    20    21 ar
    27    21    22 ar
    28    22    23 ar
    29    23    24 1
    30    25    30 ar
    31    25    26 ar
    32    26    27 ar
    33    27    28 ar
    34    28    29 ar
    35    28    31 1
    36    29    30 ar
    37    31    32 1
    38    33    34 2
    39    33    35 1

@<TRIPOS>MOLECULE
ZINC56867114_replica-1.pdb
 29 30 0 0 0
SMALL
GASTEIGER

@<TRIPOS>ATOM
       1  C1          0.6560   35.6410   57.0520  C.3       1 <0>        -0.1589
       2  C2          1.7340   34.5670   56.8930  C.3       1 <0>         0.2029
       3  C3          1.1520   33.2170   57.2210  C.ar      1 <0>        -0.0716
       4  C4          1.4880   32.5900   58.4070  C.ar      1 <0>        -0.1290
       5  C5          0.9540   31.3510   58.7120  C.ar      1 <0>        -0.0939
       6  C6          0.0840   30.7360   57.8330  C.ar      1 <0>        -0.1188
       7  C7         -0.2550   31.3630   56.6410  C.ar      1 <0>         0.1529
       8  C8          0.2790   32.6100   56.3400  C.ar      1 <0>        -0.1327
       9  N1         -1.1350   30.7430   55.7480  N.am      1 <0>        -0.6756
      10  C9         -0.6570   30.1150   54.6560  C.2       1 <0>         0.5162
      11  O1          0.5420   30.0040   54.4960  O.2       1 <0>        -0.5058
      12  C10        -1.6080   29.5500   53.6330  C.3       1 <0>        -0.1005
      13  C11        -1.1300   28.1880   53.2000  C.ar      1 <0>        -0.1073
      14  C12        -0.3740   27.4150   54.0620  C.ar      1 <0>        -0.0780
      15  C13         0.0660   26.1660   53.6650  C.ar      1 <0>        -0.1288
      16  C14        -0.2500   25.6890   52.4060  C.ar      1 <0>        -0.0869
      17  C15        -1.0050   26.4600   51.5430  C.ar      1 <0>        -0.1530
      18  C16        -1.4500   27.7090   51.9420  C.ar      1 <0>         0.1143
      19  F1         -2.1930   28.4630   51.1010  F         1 <0>        -0.1374
      20  N2          2.8470   34.8530   57.8020  N.am      1 <0>        -0.7405
      21  C17         4.1020   34.9510   57.3220  C.2       1 <0>         0.7068
      22  O2          4.3120   34.8000   56.1340  O.2       1 <0>        -0.5856
      23  N3          5.1250   35.2130   58.1590  N.am      1 <0>        -0.6332
      24  C18         4.8720   35.3950   59.5910  C.3       1 <0>         0.0779
      25  C19         6.4900   35.3200   57.6380  C.3       1 <0>         0.1310
      26  C20         7.1360   36.6060   58.1560  C.3       1 <0>        -0.1294
      27  C21         7.4660   37.5230   56.9760  C.3       1 <0>        -0.0950
      28  C22         8.3900   38.6480   57.4470  C.3       1 <0>        -0.1472
      29  C23         8.1640   36.7130   55.8810  C.3       1 <0>        -0.1505
@<TRIPOS>BOND
     1     1     2 1
     2     2     3 1
     3     2    20 1
     4     3     8 ar
     5     3     4 ar
     6     4     5 ar
     7     5     6 ar
     8     6     7 ar
     9     7     8 ar
    10     7     9 1
    11     9    10 am
    12    10    11 2
    13    10    12 1
    14    12    13 1
    15    13    18 ar
    16    13    14 ar
    17    14    15 ar
    18    15    16 ar
    19    16    17 ar
    20    17    18 ar
    21    18    19 1
    22    20    21 am
    23    21    22 2
    24    21    23 am
    25    23    24 1
    26    23    25 1
    27    25    26 1
    28    26    27 1
    29    27    28 1
    30    27    29 1

@<TRIPOS>MOLECULE
ZINC13982910_replica-1.pdb
 25 26 0 0 0
SMALL
GASTEIGER

@<TRIPOS>ATOM
       1  C1          8.1730   38.1420   56.8310  C.3       1 <0>        -0.1556
       2  C2          7.1270   37.1320   56.3520  C.3       1 <0>        -0.1162
       3  C3          6.5400   36.3940   57.5580  C.3       1 <0>        -0.0498
       4  C4          7.3620   35.1340   57.8340  C.3       1 <0>        -0.1465
       5  C5          5.1130   36.0100   57.2670  C.ar      1 <0>        -0.1103
       6  C6          4.2040   35.8940   58.3020  C.ar      1 <0>        -0.0760
       7  C7          2.8940   35.5420   58.0380  C.ar      1 <0>        -0.1417
       8  C8          2.4920   35.3050   56.7310  C.ar      1 <0>         0.1221
       9  C9          3.4070   35.4170   55.6950  C.ar      1 <0>        -0.2075
      10  C10         4.7140   35.7750   55.9640  C.ar      1 <0>        -0.0739
      11  O1          1.2040   34.9590   56.4680  O.3       1 <0>        -0.2890
      12  C11         0.6620   33.8650   57.2100  C.3       1 <0>         0.0501
      13  C12         0.8050   32.5960   56.4110  C.2       1 <0>         0.5311
      14  O2          1.8120   31.9270   56.5120  O.2       1 <0>        -0.4750
      15  N1         -0.1850   32.2020   55.5870  N.am      1 <0>        -0.5823
      16  N2         -0.0520   31.0220   54.8440  N.2       1 <0>        -0.2289
      17  C13        -1.0830   30.2600   54.6450  C.2       1 <0>         0.1418
      18  C14        -2.4260   30.6460   55.2100  C.3       1 <0>        -0.1587
      19  C15        -0.9420   29.0180   53.8630  C.ar      1 <0>        -0.0588
      20  C16        -0.1580   27.9680   54.3500  C.ar      1 <0>        -0.0874
      21  C17        -0.0340   26.8070   53.6150  C.ar      1 <0>        -0.1258
      22  C18        -0.6750   26.6840   52.3950  C.ar      1 <0>        -0.0670
      23  C19        -1.4480   27.7220   51.9050  C.ar      1 <0>        -0.1254
      24  C20        -1.5850   28.8870   52.6300  C.ar      1 <0>        -0.0725
      25  C21        -0.5300   25.4140   51.5970  C.3       1 <0>        -0.1203
@<TRIPOS>BOND
     1     1     2 1
     2     2     3 1
     3     3     4 1
     4     3     5 1
     5     5    10 ar
     6     5     6 ar
     7     6     7 ar
     8     7     8 ar
     9     8     9 ar
    10     8    11 1
    11     9    10 ar
    12    11    12 1
    13    12    13 1
    14    13    14 2
    15    13    15 am
    16    15    16 1
    17    16    17 2
    18    17    18 1
    19    17    19 1
    20    19    24 ar
    21    19    20 ar
    22    20    21 ar
    23    21    22 ar
    24    22    23 ar
    25    22    25 1
    26    23    24 ar

@<TRIPOS>MOLECULE
ZINC66189485_replica-1.pdb
 22 23 0 0 0
SMALL
GASTEIGER

@<TRIPOS>ATOM
       1  C1         12.0530   32.7150   62.9770  C.3       1 <0>        -0.1474
       2  C2         12.7700   34.0650   63.0190  C.3       1 <0>        -0.0952
       3  C3         14.1290   33.9430   62.3270  C.3       1 <0>        -0.1472
       4  C4         11.9230   35.1150   62.2980  C.3       1 <0>         0.0650
       5  O1         11.3130   34.5260   61.1480  O.3       1 <0>        -0.3163
       6  C5         10.4800   35.3160   60.4180  C.ar      1 <0>         0.0775
       7  C6         10.0870   36.5510   60.9110  C.ar      1 <0>        -0.1598
       8  C7          9.2410   37.3530   60.1710  C.ar      1 <0>        -0.1523
       9  C8          8.7840   36.9220   58.9320  C.ar      1 <0>         0.1798
      10  C9          9.1770   35.6860   58.4400  C.ar      1 <0>        -0.1555
      11  C10        10.0270   34.8870   59.1780  C.ar      1 <0>        -0.1038
      12  N1          7.9260   37.7350   58.1810  N.pl3     1 <0>        -0.7491
      13  C11         8.1300   37.8790   56.7380  C.3       1 <0>         0.1176
      14  C12         6.8470   37.4940   56.0010  C.3       1 <0>         0.1175
      15  N2          6.3520   36.2140   56.5170  N.pl3     1 <0>        -0.7435
      16  C13         5.0280   36.1000   56.9490  C.ar      1 <0>         0.1883
      17  C14         3.9860   36.2120   56.0380  C.ar      1 <0>        -0.1740
      18  C15         2.6780   36.0970   56.4680  C.ar      1 <0>        -0.0796
      19  C16         2.4040   35.8710   57.8040  C.ar      1 <0>        -0.1493
      20  C17         3.4380   35.7600   58.7150  C.ar      1 <0>        -0.1053
      21  C18         4.7500   35.8670   58.2920  C.ar      1 <0>         0.0199
      22  F1          5.7600   35.7520   59.1810  F         1 <0>        -0.1436
@<TRIPOS>BOND
     1     1     2 1
     2     2     3 1
     3     2     4 1
     4     4     5 1
     5     5     6 1
     6     6    11 ar
     7     6     7 ar
     8     7     8 ar
     9     8     9 ar
    10     9    10 ar
    11     9    12 1
    12    10    11 ar
    13    12    13 1
    14    13    14 1
    15    14    15 1
    16    15    16 1
    17    16    21 ar
    18    16    17 ar
    19    17    18 ar
    20    18    19 ar
    21    19    20 ar
    22    20    21 ar
    23    21    22 1

@<TRIPOS>MOLECULE
ZINC32183486_replica-1.pdb
 22 23 0 0 0
SMALL
GASTEIGER

@<TRIPOS>ATOM
       1  C1          0.5910   26.0490   54.5240  C.3       1 <0>        -0.1084
       2  C2         -0.2110   26.3730   53.2910  C.ar      1 <0>        -0.1643
       3  C3         -0.4590   25.3920   52.3500  C.ar      1 <0>        -0.0725
       4  C4         -1.1970   25.6880   51.2180  C.ar      1 <0>        -0.1796
       5  C5         -1.6890   26.9650   51.0240  C.ar      1 <0>        -0.0760
       6  C6         -1.4490   27.9490   51.9630  C.ar      1 <0>        -0.2025
       7  C7         -0.7040   27.6570   53.0990  C.ar      1 <0>         0.2225
       8  N1         -0.4570   28.6510   54.0480  N.pl3     1 <0>        -0.7487
       9  C8         -1.0240   29.9900   53.8730  C.3       1 <0>         0.1391
      10  C9         -0.3180   30.9710   54.8120  C.3       1 <0>         0.1144
      11  C10        -1.1520   31.1500   56.0810  C.3       1 <0>         0.0283
      12  O1         -2.1890   30.1670   56.1120  O.3       1 <0>        -0.3164
      13  C11        -2.1290   29.2390   57.1030  C.ar      1 <0>         0.1318
      14  C12        -2.9520   28.1230   57.0610  C.ar      1 <0>        -0.2128
      15  C13        -2.8900   27.1810   58.0690  C.ar      1 <0>        -0.0768
      16  C14        -2.0060   27.3480   59.1200  C.ar      1 <0>        -0.1509
      17  C15        -1.1830   28.4590   59.1640  C.ar      1 <0>        -0.0365
      18  C16        -1.2390   29.4010   58.1560  C.ar      1 <0>        -0.1500
      19  C17        -0.2210   28.6390   60.3090  C.3       1 <0>        -0.0586
      20  C18        -0.7380   29.7360   61.2410  C.3       1 <0>        -0.1463
      21  C19        -0.1020   27.3250   61.0860  C.3       1 <0>        -0.1463
      22  O2          0.9690   30.4550   55.1570  O.3       1 <0>        -0.5910
@<TRIPOS>BOND
     1     1     2 1
     2     2     7 ar
     3     2     3 ar
     4     3     4 ar
     5     4     5 ar
     6     5     6 ar
     7     6     7 ar
     8     7     8 1
     9     8     9 1
    10     9    10 1
    11    10    11 1
    12    10    22 1
    13    11    12 1
    14    12    13 1
    15    13    18 ar
    16    13    14 ar
    17    14    15 ar
    18    15    16 ar
    19    16    17 ar
    20    17    18 ar
    21    17    19 1
    22    19    20 1
    23    19    21 1

@<TRIPOS>MOLECULE
ZINC37067868_replica-1.pdb
 20 21 0 0 0
SMALL
GASTEIGER

@<TRIPOS>ATOM
       1  C1         13.2320   31.2000   63.8570  C.ar      1 <0>        -0.1036
       2  C2         12.1210   31.7300   63.2270  C.ar      1 <0>        -0.1089
       3  C3         12.1960   32.9660   62.6120  C.ar      1 <0>        -0.0945
       4  C4         13.3830   33.6740   62.6250  C.ar      1 <0>        -0.1260
       5  C5         14.4980   33.1450   63.2570  C.ar      1 <0>         0.1043
       6  C6         14.4200   31.9040   63.8730  C.ar      1 <0>        -0.1362
       7  O1         15.6660   33.8400   63.2710  O.3       1 <0>        -0.4982
       8  C7         10.9840   33.5410   61.9260  C.3       1 <0>         0.1648
       9  N1         11.3680   34.7420   61.1810  N.pl3     1 <0>        -0.7395
      10  C8         10.4070   35.4480   60.4470  C.ar      1 <0>         0.2293
      11  C9          9.9850   36.6980   60.8800  C.ar      1 <0>        -0.1803
      12  C10         9.0380   37.3960   60.1550  C.ar      1 <0>        -0.0297
      13  C11         8.5090   36.8470   58.9940  C.ar      1 <0>        -0.1661
      14  C12         8.9320   35.5960   58.5610  C.ar      1 <0>        -0.0685
      15  C13         9.8830   34.9020   59.2840  C.ar      1 <0>        -0.1722
      16  S1          7.3010   37.7370   58.0700  S.3       1 <0>        -0.0331
      17  C14         8.1680   38.1990   56.5460  C.3       1 <0>         0.4525
      18  F1          7.3330   38.9990   55.7580  F         1 <0>        -0.1648
      19  F2          9.3280   38.9130   56.8670  F         1 <0>        -0.1465
      20  F3          8.5130   37.0450   55.8360  F         1 <0>        -0.1647
@<TRIPOS>BOND
     1     1     6 ar
     2     1     2 ar
     3     2     3 ar
     4     3     4 ar
     5     3     8 1
     6     4     5 ar
     7     5     6 ar
     8     5     7 1
     9     8     9 1
    10     9    10 1
    11    10    15 ar
    12    10    11 ar
    13    11    12 ar
    14    12    13 ar
    15    13    14 ar
    16    13    16 1
    17    14    15 ar
    18    16    17 1
    19    17    18 1
    20    17    19 1
    21    17    20 1

@<TRIPOS>MOLECULE
ZINC16089567_replica-1.pdb
 20 21 0 0 0
SMALL
GASTEIGER

@<TRIPOS>ATOM
      1  S1        -1.1350   30.1030   54.9140 S.3     0  <0>0        0.0528
      2  O2        -2.4350   29.9880   55.4770 O.3     0  <0>0       -0.0569
      3  O3        -0.7500   31.2060   54.1050 O.3     0  <0>0       -0.0569
      4  O1        -0.1520   30.0510   56.0750 O.3     0  <0>0       -0.3572
      5  C6         0.2670   31.2710   56.5010 C.ar    0  <0>0        0.1718
      6  C1         1.4770   31.7840   56.0580 C.ar    0  <0>0        0.0403
      7  C2         1.8980   33.0270   56.4870 C.ar    0  <0>0        0.0099
      8  C3         1.1190   33.7570   57.3680 C.ar    0  <0>0        0.0348
      9  C4        -0.0860   33.2450   57.8150 C.ar    0  <0>0        0.0099
     10 Br          1.7010   35.4560   57.9590 Br      0  <0>0       -0.0490
     11  C5        -0.5130   32.0040   57.3840 C.ar    0  <0>0        0.0403
     12  C7        -0.8740   28.6540   53.9460 C.ar    0  <0>0        0.1500
     13  C12       -1.4630   28.5400   52.6980 C.ar    0  <0>0        0.1880
     14  C11       -1.2530   27.4020   51.9360 C.ar    0  <0>0        0.1959
     15  F1        -2.2380   29.5400   52.2230 F       0  <0>0       -0.2003
     16  C10       -0.4630   26.3760   52.4280 C.ar    0  <0>0        0.1697
     17  F2        -1.8240   27.2910   50.7160 F       0  <0>0       -0.1994
     18  C9         0.1210   26.4920   53.6780 C.ar    0  <0>0        0.0335
     19  F3        -0.2620   25.2630   51.6880 F       0  <0>0       -0.2017
     20  C8        -0.0860   27.6290   54.4350 C.ar    0  <0>0        0.0246
@<TRIPOS>BOND
     1    17    14    1
     2    19    16    1
     3    14    16   ar
     4    14    13   ar
     5    15    13    1
     6    16    18   ar
     7    13    12   ar
     8    18    20   ar
     9    12    20   ar
    10    12     1    1
    11     3     1    1
    12     1     2    1
    13     1     4    1
    14     6     7   ar
    15     6     5   ar
    16     4     5    1
    17     7     8   ar
    18     5    11   ar
    19     8     9   ar
    20     8    10    1
    21    11     9   ar


@<TRIPOS>MOLECULE
ZINC49924792_replica-1.pdb
 23 24 0 0 0
SMALL
GASTEIGER

@<TRIPOS>ATOM
      1  C9         9.6120   36.7390   60.8610 C.3     0  <0>0        0.0550
      2  C8         9.3400   35.8860   59.6200 C.3     0  <0>0        0.1344
      3  C4         8.7850   36.7570   58.5230 C.ar    0  <0>0        0.0041
      4  C3         8.4560   36.2010   57.3010 C.ar    0  <0>0       -0.0040
      5  C2         7.9460   37.0000   56.2940 C.ar    0  <0>0        0.0054
      6  C1         7.5870   36.3940   54.9610 C.3     0  <0>0        0.0334
      7  C7         7.7710   38.3560   56.5080 C.ar    0  <0>0        0.1361
      8  C6         8.0970   38.9110   57.7350 C.ar    0  <0>0        0.0291
      9  F1         7.2790   39.1380   55.5230 F       0  <0>0       -0.2045
     10  C5         8.6060   38.1100   58.7400 C.ar    0  <0>0        0.0003
     11  O1         8.3920   34.8650   59.9430 O.3     0  <0>0       -0.3800
     12  H16        8.2560   34.2170   59.2390 H       0  <0>0        0.2108
     13  C10       10.7590   36.1210   61.6640 C.3     0  <0>0        0.0899
     14  N1        10.7290   34.6650   61.5180 N.pl3   0  <0>0       -0.3325
     15  H12       10.0230   34.2430   61.0030 H       0  <0>0        0.1468
     16  C11       11.7200   33.8810   62.1170 C.ar    0  <0>0        0.0456
     17  C16       11.3930   32.6520   62.6730 C.ar    0  <0>0        0.0280
     18  C15       12.3750   31.8770   63.2600 C.ar    0  <0>0        0.0863
     19  C14       13.6840   32.3310   63.3050 C.ar    0  <0>0        0.1507
     20 Cl         11.9690   30.3350   63.9480 Cl      0  <0>0       -0.0799
     21  C13       14.0100   33.5600   62.7560 C.ar    0  <0>0        0.0318
     22  F2        14.6420   31.5760   63.8830 F       0  <0>0       -0.2033
     23  C12       13.0320   34.3350   62.1640 C.ar    0  <0>0        0.0167
@<TRIPOS>BOND
     1     6     5    1
     2     9     7    1
     3     5     7   ar
     4     5     4   ar
     5     7     8   ar
     6     4     3   ar
     7     8    10   ar
     8     3    10   ar
     9     3     2    1
    10    12    11    1
    11     2    11    1
    12     2     1    1
    13     1    13    1
    14    15    14    1
    15    14    13    1
    16    14    16    1
    17    16    23   ar
    18    16    17   ar
    19    23    21   ar
    20    17    18   ar
    21    21    19   ar
    22    18    19   ar
    23    18    20    1
    24    19    22    1


@<TRIPOS>MOLECULE
ZINC62171522_replica-1.pdb
 21 22 0 0 0
SMALL
GASTEIGER

@<TRIPOS>ATOM
       1  C1         -1.7400   29.2290   56.3020  C.3       1 <0>        -0.1708
       2  C2         -0.5660   28.8330   55.4040  C.3       1 <0>         0.1560
       3  C3         -0.8600   29.2570   53.9640  C.3       1 <0>        -0.0896
       4  C4         -0.9130   28.0370   53.0810  C.ar      1 <0>        -0.0794
       5  C5         -0.2700   26.8750   53.4670  C.ar      1 <0>        -0.1106
       6  C6         -0.3180   25.7560   52.6580  C.ar      1 <0>        -0.1174
       7  C7         -1.0110   25.7990   51.4620  C.ar      1 <0>        -0.1235
       8  C8         -1.6550   26.9590   51.0760  C.ar      1 <0>        -0.1171
       9  C9         -1.6100   28.0760   51.8880  C.ar      1 <0>        -0.1178
      10  N1          0.6520   29.4990   55.8700  N.pl3     1 <0>        -0.7415
      11  C10         0.5620   30.6020   56.7270  C.ar      1 <0>         0.1885
      12  C11         0.6680   30.4250   58.1000  C.ar      1 <0>        -0.1584
      13  C12         0.5790   31.5140   58.9450  C.ar      1 <0>        -0.1017
      14  C13         0.3840   32.7840   58.4230  C.ar      1 <0>         0.0719
      15  C14         0.2780   32.9620   57.0520  C.ar      1 <0>        -0.1594
      16  C15         0.3720   31.8750   56.2040  C.ar      1 <0>        -0.1575
      17  O1          0.2970   33.8550   59.2560  O.3       1 <0>        -0.3110
      18  C16         0.7020   33.6570   60.6120  C.3       1 <0>         0.0633
      19  C17        -0.3460   34.2580   61.5500  C.3       1 <0>         0.0619
      20  O2         -0.3280   33.5580   62.7950  O.3       1 <0>        -0.3846
      21  C18        -0.0780   32.1560   62.6710  C.3       1 <0>         0.0303
@<TRIPOS>BOND
     1     1     2 1
     2     2     3 1
     3     2    10 1
     4     3     4 1
     5     4     9 ar
     6     4     5 ar
     7     5     6 ar
     8     6     7 ar
     9     7     8 ar
    10     8     9 ar
    11    10    11 1
    12    11    16 ar
    13    11    12 ar
    14    12    13 ar
    15    13    14 ar
    16    14    15 ar
    17    14    17 1
    18    15    16 ar
    19    17    18 1
    20    18    19 1
    21    19    20 1
    22    20    21 1

@<TRIPOS>MOLECULE
ZINC04808936_replica-1.pdb
 28 30 0 0 0
SMALL
GASTEIGER

@<TRIPOS>ATOM
       1  C1          8.4770   31.7650   58.6560  C.3       1 <0>        -0.1816
       2  C2          7.9100   32.9730   57.9080  C.3       1 <0>         0.1120
       3  C3          8.7840   34.1990   58.1820  C.3       1 <0>        -0.1501
       4  C4          8.7470   34.5200   59.6790  C.3       1 <0>        -0.0868
       5  C5          7.2920   34.7360   60.1080  C.3       1 <0>        -0.1536
       6  C6          6.4750   33.4890   59.7600  C.3       1 <0>         0.0565
       7  O1          6.5780   33.2290   58.3580  O.3       1 <0>        -0.3673
       8  C7          9.5560   35.7900   59.9530  C.3       1 <0>        -0.0307
       9  C8          8.6140   36.9080   60.4010  C.3       1 <0>        -0.1505
      10  C9          9.0120   38.2160   59.7140  C.3       1 <0>        -0.0112
      11  C10         8.4110   38.3900   57.3750  C.3       1 <0>         0.0566
      12  C11         7.5200   37.3710   56.7110  C.ar      1 <0>        -0.2135
      13  C12         7.8460   36.8800   55.4610  C.ar      1 <0>        -0.0473
      14  C13         7.0340   35.9420   54.8530  C.ar      1 <0>        -0.2102
      15  C14         5.8850   35.5010   55.4940  C.ar      1 <0>         0.1700
      16  C15         5.5580   36.0000   56.7460  C.ar      1 <0>        -0.1515
      17  C16         6.3760   36.9340   57.3530  C.ar      1 <0>        -0.0497
      18  O2          5.0820   34.5820   54.8970  O.3       1 <0>        -0.3067
      19  C17         4.1990   33.8440   55.7440  C.3       1 <0>         0.0207
      20  C18        10.5660   35.5170   61.0380  C.ar      1 <0>        -0.0983
      21  C19        11.1780   34.2810   61.1160  C.ar      1 <0>        -0.0893
      22  C20        12.1080   34.0310   62.1080  C.ar      1 <0>        -0.1512
      23  C21        12.4180   35.0170   63.0300  C.ar      1 <0>         0.1083
      24  C22        11.8010   36.2540   62.9530  C.ar      1 <0>        -0.1483
      25  C23        10.8740   36.5030   61.9580  C.ar      1 <0>        -0.0805
      26  F1         13.3240   34.7720   64.0020  F         1 <0>        -0.1334
      27  C24         7.8940   32.6830   56.4060  C.3       1 <0>        -0.1435
      28  N1          7.9550   38.6020   58.7600  N.4       1 <0>        -0.5193
@<TRIPOS>BOND
     1     1     2 1
     2     2     7 1
     3     2     3 1
     4     2    27 1
     5     3     4 1
     6     4     5 1
     7     4     8 1
     8     5     6 1
     9     6     7 1
    10     8     9 1
    11     8    20 1
    12     9    10 1
    13    10    28 1
    14    11    12 1
    15    11    28 1
    16    12    17 ar
    17    12    13 ar
    18    13    14 ar
    19    14    15 ar
    20    15    16 ar
    21    15    18 1
    22    16    17 ar
    23    18    19 1
    24    20    25 ar
    25    20    21 ar
    26    21    22 ar
    27    22    23 ar
    28    23    24 ar
    29    23    26 1
    30    24    25 ar

@<TRIPOS>MOLECULE
ZINC49920287_replica-1.pdb
 22 23 0 0 0
SMALL
GASTEIGER

@<TRIPOS>ATOM
       1  C1         -2.2830   27.9660   50.4120  C.3       1 <0>        -0.1171
       2  C2         -1.4930   27.3390   51.5330  C.ar      1 <0>        -0.0861
       3  C3         -1.1120   26.0130   51.4520  C.ar      1 <0>        -0.1118
       4  C4         -0.3880   25.4370   52.4780  C.ar      1 <0>        -0.1131
       5  C5         -0.0440   26.1890   53.5870  C.ar      1 <0>        -0.0786
       6  C6         -0.4240   27.5160   53.6680  C.ar      1 <0>        -0.1191
       7  C7         -1.1440   28.0920   52.6390  C.ar      1 <0>        -0.1059
       8  C8         -0.0490   28.3350   54.8770  C.3       1 <0>         0.1410
       9  C9         -1.2600   29.1480   55.3370  C.3       1 <0>         0.0928
      10  N1         -1.2710   29.2210   56.7990  N.pl3     1 <0>        -0.7343
      11  C10        -0.6670   30.3010   57.4490  C.ar      1 <0>         0.2470
      12  C11        -0.6530   31.5540   56.8510  C.ar      1 <0>        -0.2020
      13  C12        -0.0560   32.6190   57.4960  C.ar      1 <0>        -0.0199
      14  C13         0.5280   32.4380   58.7370  C.ar      1 <0>        -0.2455
      15  C14         0.5150   31.1920   59.3360  C.ar      1 <0>        -0.0203
      16  C15        -0.0860   30.1230   58.6980  C.ar      1 <0>        -0.1962
      17  C16         1.1790   33.6030   59.4390  C.3       1 <0>         0.5122
      18  F1          0.4180   34.7570   59.2300  F         1 <0>        -0.1802
      19  F2          1.2570   33.3360   60.8100  F         1 <0>        -0.1802
      20  F3          2.4660   33.7940   58.9260  F         1 <0>        -0.1805
      21  O1          1.0200   29.2210   54.5370  O.3       1 <0>        -0.5495
      22  C17         0.7440   25.5620   54.7070  C.3       1 <0>        -0.1243
@<TRIPOS>BOND
     1     1     2 1
     2     2     7 ar
     3     2     3 ar
     4     3     4 ar
     5     4     5 ar
     6     5     6 ar
     7     5    22 1
     8     6     7 ar
     9     6     8 1
    10     8     9 1
    11     8    21 1
    12     9    10 1
    13    10    11 1
    14    11    16 ar
    15    11    12 ar
    16    12    13 ar
    17    13    14 ar
    18    14    15 ar
    19    14    17 1
    20    15    16 ar
    21    17    18 1
    22    17    19 1
    23    17    20 1

@<TRIPOS>MOLECULE
ZINC49896536_replica-1.pdb
 21 22 0 0 0
SMALL
GASTEIGER

@<TRIPOS>ATOM
       1  C1         -1.9450   27.0990   59.5460  C.3       1 <0>        -0.1189
       2  C2         -2.0220   28.0640   58.3910  C.ar      1 <0>        -0.0795
       3  C3         -3.0230   27.9320   57.4470  C.ar      1 <0>        -0.1177
       4  C4         -3.0950   28.8180   56.3880  C.ar      1 <0>        -0.1017
       5  C5         -2.1650   29.8340   56.2730  C.ar      1 <0>        -0.1264
       6  C6         -1.1650   29.9660   57.2170  C.ar      1 <0>        -0.1042
       7  C7         -1.0970   29.0840   58.2790  C.ar      1 <0>        -0.1169
       8  C8         -2.2420   30.7980   55.1170  C.3       1 <0>         0.1403
       9  C9         -2.4010   30.0180   53.8120  C.3       1 <0>         0.0955
      10  N1         -1.1650   29.2840   53.5280  N.pl3     1 <0>        -0.7363
      11  C10        -1.2010   28.1390   52.7270  C.ar      1 <0>         0.2661
      12  C11        -1.9540   28.1290   51.5600  C.ar      1 <0>        -0.2014
      13  C12        -1.9870   26.9970   50.7700  C.ar      1 <0>        -0.0386
      14  C13        -1.2710   25.8730   51.1410  C.ar      1 <0>        -0.1805
      15  C14        -0.5210   25.8790   52.3030  C.ar      1 <0>        -0.0251
      16  C15        -0.4790   27.0110   53.0940  C.ar      1 <0>        -0.2652
      17  C16         0.3450   27.0190   54.3550  C.3       1 <0>         0.5110
      18  F1         -0.4980   27.1760   55.4610  F         1 <0>        -0.1762
      19  F2          1.0400   25.8110   54.4670  F         1 <0>        -0.1801
      20  F3          1.2560   28.0790   54.3100  F         1 <0>        -0.1779
      21  O1         -1.0450   31.5760   55.0650  O.3       1 <0>        -0.5478
@<TRIPOS>BOND
     1     1     2 1
     2     2     7 ar
     3     2     3 ar
     4     3     4 ar
     5     4     5 ar
     6     5     6 ar
     7     5     8 1
     8     6     7 ar
     9     8     9 1
    10     8    21 1
    11     9    10 1
    12    10    11 1
    13    11    16 ar
    14    11    12 ar
    15    12    13 ar
    16    13    14 ar
    17    14    15 ar
    18    15    16 ar
    19    16    17 1
    20    17    18 1
    21    17    19 1
    22    17    20 1

@<TRIPOS>MOLECULE
ZINC51579485_replica-1.pdb
 21 22 0 0 0
SMALL
GASTEIGER

@<TRIPOS>ATOM
       1  C1         -0.3510   20.5960   57.3790  C.3       1 <0>        -0.1120
       2  C2         -0.1070   22.0390   57.0180  C.ar      1 <0>        -0.1222
       3  C3          0.4470   22.3600   55.7920  C.ar      1 <0>        -0.0806
       4  C4          0.6720   23.6810   55.4590  C.ar      1 <0>        -0.1460
       5  C5          0.3410   24.6870   56.3550  C.ar      1 <0>         0.1222
       6  C6         -0.2150   24.3630   57.5830  C.ar      1 <0>        -0.2042
       7  C7         -0.4430   23.0410   57.9100  C.ar      1 <0>        -0.0809
       8  O1          0.5610   25.9880   56.0290  O.3       1 <0>        -0.3116
       9  C8         -0.0190   26.9780   56.8820  C.3       1 <0>         0.0486
      10  C9         -0.8740   27.9320   56.0470  C.3       1 <0>         0.1512
      11  C10        -1.1500   29.2050   56.8500  C.3       1 <0>        -0.1699
      12  N1         -0.1590   28.2770   54.8150  N.pl3     1 <0>        -0.7306
      13  C11        -0.6450   27.8460   53.5850  C.ar      1 <0>         0.2716
      14  C12        -0.3140   26.5850   53.1070  C.ar      1 <0>        -0.2053
      15  C13        -0.7970   26.1600   51.8860  C.ar      1 <0>        -0.0046
      16  C14        -1.6140   26.9840   51.1290  C.ar      1 <0>        -0.1811
      17  C15        -1.9540   28.2390   51.5870  C.ar      1 <0>        -0.0166
      18  C16        -1.4770   28.6810   52.8240  C.ar      1 <0>        -0.1215
      19  C17        -1.8310   29.9810   53.3090  C.1       1 <0>         0.2553
      20  N2         -2.1120   31.0130   53.6940  N.1       1 <0>        -0.4272
      21  C18        -0.4340   24.7900   51.3730  C.3       1 <0>        -0.1232
@<TRIPOS>BOND
     1     1     2 1
     2     2     7 ar
     3     2     3 ar
     4     3     4 ar
     5     4     5 ar
     6     5     6 ar
     7     5     8 1
     8     6     7 ar
     9     8     9 1
    10     9    10 1
    11    10    11 1
    12    10    12 1
    13    12    13 1
    14    13    18 ar
    15    13    14 ar
    16    14    15 ar
    17    15    16 ar
    18    15    21 1
    19    16    17 ar
    20    17    18 ar
    21    18    19 1
    22    19    20 3

@<TRIPOS>MOLECULE
ZINC49927887_replica-1.pdb
 23 24 0 0 0
SMALL
GASTEIGER

@<TRIPOS>ATOM
       1  C1         11.5940   32.9450   62.6680  C.3       1 <0>        -0.1392
       2  C2         12.1950   34.3300   62.4210  C.3       1 <0>        -0.0318
       3  C3         12.4260   35.0330   63.7610  C.3       1 <0>        -0.1396
       4  C4         13.5290   34.1830   61.6870  C.3       1 <0>        -0.1458
       5  C5         11.2470   35.1470   61.5820  C.ar      1 <0>        -0.0656
       6  C6         10.8180   36.3820   62.0280  C.ar      1 <0>        -0.1183
       7  C7          9.9480   37.1320   61.2580  C.ar      1 <0>        -0.1062
       8  C8          9.5080   36.6450   60.0410  C.ar      1 <0>        -0.1231
       9  C9          9.9380   35.4100   59.5950  C.ar      1 <0>        -0.1088
      10  C10        10.8100   34.6620   60.3630  C.ar      1 <0>        -0.1118
      11  C11         8.5590   37.4610   59.2020  C.3       1 <0>         0.1538
      12  C12         7.9890   36.5880   58.0830  C.3       1 <0>        -0.1571
      13  C13         6.4610   36.5830   58.1670  C.3       1 <0>         0.1293
      14  N1          6.0220   35.4750   59.0190  N.pl3     1 <0>        -0.7528
      15  C14         4.6570   35.2070   59.1700  C.ar      1 <0>         0.1821
      16  C15         3.7190   35.9840   58.5040  C.ar      1 <0>        -0.1568
      17  C16         2.3720   35.7180   58.6540  C.ar      1 <0>        -0.1023
      18  C17         1.9560   34.6760   59.4700  C.ar      1 <0>         0.0688
      19  C18         2.8930   33.9000   60.1350  C.ar      1 <0>        -0.1586
      20  C19         4.2400   34.1610   59.9820  C.ar      1 <0>        -0.1574
      21  O1          0.6300   34.4160   59.6170  O.3       1 <0>        -0.3219
      22  C20         0.1590   34.1800   60.9460  C.3       1 <0>         0.0292
      23  O2          7.4910   37.9420   60.0210  O.3       1 <0>        -0.5518
@<TRIPOS>BOND
     1     1     2 1
     2     2     3 1
     3     2     4 1
     4     2     5 1
     5     5    10 ar
     6     5     6 ar
     7     6     7 ar
     8     7     8 ar
     9     8     9 ar
    10     8    11 1
    11     9    10 ar
    12    11    12 1
    13    11    23 1
    14    12    13 1
    15    13    14 1
    16    14    15 1
    17    15    20 ar
    18    15    16 ar
    19    16    17 ar
    20    17    18 ar
    21    18    19 ar
    22    18    21 1
    23    19    20 ar
    24    21    22 1

@<TRIPOS>MOLECULE
ZINC41584501_replica-1.pdb
 30 32 0 0 0
SMALL
GASTEIGER

@<TRIPOS>ATOM
      1  C8         2.9480   35.5990   57.9030 C.ar    0  <0>0        0.0252
      2  C9         2.8010   35.7910   56.5370 C.ar    0  <0>0        0.1305
      3  C10        3.9120   36.0480   55.7370 C.ar    0  <0>0        0.0364
      4  C11        5.1600   36.1040   56.2830 C.ar    0  <0>0        0.0058
      5  C12        5.3320   35.8890   57.6580 C.ar    0  <0>0        0.0307
      6  C13        4.2080   35.6650   58.4750 C.ar    0  <0>0        0.1452
      7  O1         4.3610   35.5280   59.8150 O.2     0  <0>0       -0.4214
      8  C14        5.5560   35.0650   60.2470 C.ar    0  <0>0        0.3454
      9  O2         5.6300   34.2920   61.1850 O.2     0  <0>0       -0.2445
     10  C15        6.7660   35.5240   59.5440 C.ar    0  <0>0        0.0722
     11  C16        6.6290   35.9100   58.2340 C.ar    0  <0>0       -0.0127
     12  C17        7.8240   36.3620   57.4350 C.3     0  <0>0        0.0313
     13  C7         1.7400   35.3270   58.7620 C.3     0  <0>0       -0.0437
     14  N1         1.5710   33.8780   58.9250 N.4     0  <0>0        0.3898
     15  H27        2.3450   33.3970   58.4910 H       0  <0>0       -0.0792
     16  C3         1.5300   33.5470   60.3560 C.3     0  <0>0       -0.0769
     17  C2         0.2490   34.1130   60.9730 C.3     0  <0>0       -0.0228
     18  C1        -0.0980   33.3260   62.2390 C.3     0  <0>0       -0.0022
     19  C4         0.3160   33.4560   58.2900 C.3     0  <0>0       -0.0769
     20  C5         0.5050   32.0790   57.6500 C.3     0  <0>0       -0.0228
     21  C6         1.3710   32.2140   56.3960 C.3     0  <0>0       -0.0022
     22  O3         1.5670   35.7250   55.9760 O.3     0  <0>0       -0.5058
     23  H26        1.3490   34.8600   55.6040 H       0  <0>0        0.2922
     24  C18        8.0820   35.5580   60.2230 C.ar    0  <0>0        0.0060
     25  C23        8.4620   36.6790   60.9580 C.ar    0  <0>0        0.0011
     26  C22        9.6870   36.7030   61.5930 C.ar    0  <0>0        0.0114
     27  C21       10.5430   35.6180   61.4910 C.ar    0  <0>0        0.0577
     28  C20       10.1730   34.5050   60.7560 C.ar    0  <0>0        0.0114
     29 Cl         12.0850   35.6570   62.2860 Cl      0  <0>0       -0.0822
     30  C19        8.9480   34.4680   60.1220 C.ar    0  <0>0        0.0011
@<TRIPOS>BOND
     1    23    22    1
     2     3     4   ar
     3     3     2   ar
     4    22     2    1
     5     4     5   ar
     6    21    20    1
     7     2     1   ar
     8    12    11    1
     9    20    19    1
    10     5    11   ar
    11     5     6   ar
    12     1     6   ar
    13     1    13    1
    14    11    10   ar
    15    19    14    1
    16     6     7   ar
    17    15    14    1
    18    13    14    1
    19    14    16    1
    20    10    24    1
    21    10     8   ar
    22     7     8   ar
    23    30    24   ar
    24    30    28   ar
    25    24    25   ar
    26     8     9    2
    27    16    17    1
    28    28    27   ar
    29    25    26   ar
    30    17    18    1
    31    27    26   ar
    32    27    29    1


@<TRIPOS>MOLECULE
ZINC36565216_replica-1.pdb
 30 31 0 0 0
SMALL
GASTEIGER

@<TRIPOS>ATOM
       1  C1          6.9240   36.1440   55.3760  C.3       1 <0>        -0.1409
       2  C2          5.9130   36.1650   56.5250  C.3       1 <0>        -0.1393
       3  C3          6.2610   35.0670   57.5310  C.3       1 <0>         0.1020
       4  N1          5.8970   35.5060   58.8810  N.am      1 <0>        -0.6008
       5  C4          4.7160   34.9440   59.5400  C.3       1 <0>         0.1793
       6  C5          3.5500   34.9650   58.5860  C.ar      1 <0>        -0.0960
       7  C6          3.2620   33.8490   57.8220  C.ar      1 <0>        -0.0944
       8  C7          2.1950   33.8660   56.9470  C.ar      1 <0>        -0.1459
       9  C8          1.4090   35.0050   56.8340  C.ar      1 <0>         0.1113
      10  C9          1.7000   36.1240   57.6010  C.ar      1 <0>        -0.1440
      11  C10         2.7670   36.1000   58.4800  C.ar      1 <0>        -0.0833
      12  O1          0.3580   35.0240   55.9730  O.3       1 <0>        -0.4994
      13  C11         5.0010   33.5230   59.9540  C.2       1 <0>         0.5178
      14  O2          4.2070   32.9220   60.6460  O.2       1 <0>        -0.5069
      15  N2          6.1400   32.9220   59.5570  N.am      1 <0>        -0.7153
      16  C12         6.4180   31.5410   59.9600  C.3       1 <0>         0.1705
      17  C13         5.3780   30.6070   59.3350  C.3       1 <0>        -0.1639
      18  C14         7.8150   31.1410   59.4810  C.3       1 <0>        -0.1575
      19  C15         6.3500   31.4310   61.4850  C.3       1 <0>        -0.1635
      20  C16         6.6480   36.4280   59.5150  C.2       1 <0>         0.5279
      21  O3          6.2580   36.9190   60.5520  O.2       1 <0>        -0.5164
      22  C17         7.9740   36.8500   58.9330  C.3       1 <0>        -0.0681
      23  C18         8.0490   38.3770   58.8900  C.3       1 <0>        -0.1057
      24  C19         8.5300   38.8240   57.5080  C.3       1 <0>        -0.1502
      25  C20         9.0900   36.3160   59.7930  C.ar      1 <0>        -0.0782
      26  C21         9.5370   37.0470   60.8780  C.ar      1 <0>        -0.0916
      27  C22        10.5620   36.5570   61.6660  C.ar      1 <0>        -0.1222
      28  C23        11.1400   35.3380   61.3700  C.ar      1 <0>        -0.1175
      29  C24        10.6920   34.6060   60.2850  C.ar      1 <0>        -0.1235
      30  C25         9.6650   35.0940   59.4990  C.ar      1 <0>        -0.1115
@<TRIPOS>BOND
     1     1     2 1
     2     2     3 1
     3     3     4 1
     4     4     5 1
     5     4    20 am
     6     5     6 1
     7     5    13 1
     8     6    11 ar
     9     6     7 ar
    10     7     8 ar
    11     8     9 ar
    12     9    10 ar
    13     9    12 1
    14    10    11 ar
    15    13    14 2
    16    13    15 am
    17    15    16 1
    18    16    17 1
    19    16    18 1
    20    16    19 1
    21    20    21 2
    22    20    22 1
    23    22    23 1
    24    22    25 1
    25    23    24 1
    26    25    30 ar
    27    25    26 ar
    28    26    27 ar
    29    27    28 ar
    30    28    29 ar
    31    29    30 ar

@<TRIPOS>MOLECULE
ZINC27799331_replica-1.pdb
 29 30 0 0 0
SMALL
GASTEIGER

@<TRIPOS>ATOM
       1  C1          3.2990   35.9610   57.7940  C.3       1 <0>        -0.1105
       2  C2          3.4060   34.9250   58.8830  C.ar      1 <0>        -0.0219
       3  C3          2.3380   34.0950   59.1560  C.ar      1 <0>        -0.1318
       4  C4          2.4350   33.1430   60.1550  C.ar      1 <0>        -0.0868
       5  C5          3.6030   33.0160   60.8880  C.ar      1 <0>        -0.1350
       6  C6          4.6790   33.8360   60.6210  C.ar      1 <0>        -0.0793
       7  C7          4.5860   34.8020   59.6180  C.ar      1 <0>        -0.1420
       8  C8          5.7340   35.6880   59.3310  C.2       1 <0>         0.5665
       9  O1          5.8160   36.7720   59.8740  O.2       1 <0>        -0.5331
      10  N1          6.6910   35.2940   58.4670  N.am      1 <0>        -0.7232
      11  C9          7.8830   36.1220   58.2650  C.3       1 <0>         0.1339
      12  C10         8.2910   36.0750   56.7910  C.3       1 <0>        -0.1226
      13  C11         8.1080   37.4610   56.1670  C.3       1 <0>        -0.0954
      14  C12         6.6440   37.6480   55.7640  C.3       1 <0>        -0.1474
      15  C13         8.4970   38.5340   57.1860  C.3       1 <0>        -0.1792
      16  C14         9.0090   35.5960   59.1170  C.2       1 <0>         0.5306
      17  O2          9.9410   35.0170   58.6010  O.2       1 <0>        -0.5220
      18  N2          8.9820   35.7720   60.4530  N.am      1 <0>        -0.6825
      19  C15        10.0740   35.3750   61.2350  C.ar      1 <0>         0.1336
      20  C16        10.8540   36.3300   61.8740  C.ar      1 <0>        -0.0765
      21  C17        11.9270   35.9380   62.6500  C.ar      1 <0>        -0.1709
      22  C18        12.2340   34.5910   62.7810  C.ar      1 <0>         0.0917
      23  C19        11.4580   33.6380   62.1380  C.ar      1 <0>        -0.1043
      24  C20        10.3810   34.0280   61.3670  C.ar      1 <0>        -0.1030
      25  O3         13.2940   34.2070   63.5400  O.3       1 <0>        -0.3102
      26  C21        14.3970   33.6070   62.8580  C.3       1 <0>         0.6038
      27  F1         15.5910   33.9860   63.4810  F         1 <0>        -0.1641
      28  F2         14.2700   32.2150   62.9000  F         1 <0>        -0.1301
      29  F3         14.4100   34.0340   61.5260  F         1 <0>        -0.1646
@<TRIPOS>BOND
     1     1     2 1
     2     2     7 ar
     3     2     3 ar
     4     3     4 ar
     5     4     5 ar
     6     5     6 ar
     7     6     7 ar
     8     7     8 1
     9     8     9 2
    10     8    10 am
    11    10    11 1
    12    11    12 1
    13    11    16 1
    14    12    13 1
    15    13    14 1
    16    13    15 1
    17    16    17 2
    18    16    18 am
    19    18    19 1
    20    19    24 ar
    21    19    20 ar
    22    20    21 ar
    23    21    22 ar
    24    22    23 ar
    25    22    25 1
    26    23    24 ar
    27    25    26 1
    28    26    27 1
    29    26    28 1
    30    26    29 1

@<TRIPOS>MOLECULE
ZINC62065464_replica-1.pdb
 26 27 0 0 0
SMALL
GASTEIGER

@<TRIPOS>ATOM
       1  C1         13.6110   34.3100   61.9120  C.3       1 <0>        -0.1386
       2  C2         12.2180   34.4470   62.5300  C.3       1 <0>        -0.0286
       3  C3         11.7010   33.0640   62.9340  C.3       1 <0>        -0.1374
       4  C4         12.2950   35.3430   63.7680  C.3       1 <0>        -0.1438
       5  C5         11.2800   35.0600   61.5230  C.ar      1 <0>        -0.0810
       6  C6         10.9270   34.3560   60.3890  C.ar      1 <0>        -0.1192
       7  C7         10.0660   34.9190   59.4650  C.ar      1 <0>        -0.1144
       8  C8          9.5580   36.1870   59.6770  C.ar      1 <0>        -0.0682
       9  C9          9.9110   36.8920   60.8120  C.ar      1 <0>        -0.1141
      10  C10        10.7690   36.3270   61.7380  C.ar      1 <0>        -0.1135
      11  C11         8.6210   36.8020   58.6690  C.3       1 <0>        -0.0736
      12  C12         8.8730   36.1820   57.2940  C.3       1 <0>        -0.5852
      13  S1          7.4300   36.4580   56.2320  S.o2      1 <0>         2.5162
      14  O1          6.6020   37.4720   56.7840  O.2       1 <0>        -1.0278
      15  O2          7.8280   36.5110   54.8680  O.2       1 <0>        -1.0278
      16  N1          6.5360   35.0690   56.3570  N.2       1 <0>        -1.0391
      17  C13         6.9500   34.0500   57.2050  C.ar      1 <0>         0.3313
      18  C14         7.9640   33.1850   56.8130  C.ar      1 <0>        -0.2610
      19  C15         8.3750   32.1730   57.6570  C.ar      1 <0>        -0.0465
      20  C16         7.7810   32.0120   58.8990  C.ar      1 <0>        -0.2403
      21  C17         6.7740   32.8600   59.3050  C.ar      1 <0>        -0.0425
      22  C18         6.3510   33.8930   58.4640  C.ar      1 <0>        -0.2252
      23  C19         5.2780   34.8080   58.8950  C.2       1 <0>         0.5618
      24  O3          5.5030   35.6550   59.7370  O.2       1 <0>        -0.5031
      25  N2          4.0480   34.7050   58.3540  N.am      1 <0>        -0.7570
      26  C20         2.9820   35.6140   58.7830  C.3       1 <0>         0.0973
@<TRIPOS>BOND
     1     1     2 1
     2     2     3 1
     3     2     4 1
     4     2     5 1
     5     5    10 ar
     6     5     6 ar
     7     6     7 ar
     8     7     8 ar
     9     8     9 ar
    10     8    11 1
    11     9    10 ar
    12    11    12 1
    13    12    13 1
    14    13    14 2
    15    13    15 2
    16    13    16 1
    17    16    17 1
    18    17    22 ar
    19    17    18 ar
    20    18    19 ar
    21    19    20 ar
    22    20    21 ar
    23    21    22 ar
    24    22    23 1
    25    23    24 2
    26    23    25 am
    27    25    26 1

@<TRIPOS>MOLECULE
ZINC32230503_replica-1.pdb
 23 24 0 0 0
SMALL
GASTEIGER

@<TRIPOS>ATOM
       1  C1         -0.5820   24.3740   51.2420  C.3       1 <0>        -0.1131
       2  C2         -0.6440   25.7000   51.9550  C.ar      1 <0>        -0.1194
       3  C3         -1.3180   26.7620   51.3810  C.ar      1 <0>        -0.0864
       4  C4         -1.3710   27.9800   52.0300  C.ar      1 <0>        -0.2028
       5  C5         -0.7570   28.1340   53.2650  C.ar      1 <0>         0.1220
       6  C6         -0.0850   27.0660   53.8410  C.ar      1 <0>        -0.1108
       7  C7         -0.0300   25.8510   53.1850  C.ar      1 <0>        -0.0840
       8  C8          0.5830   27.2300   55.1810  C.3       1 <0>        -0.1049
       9  O1         -0.8110   29.3300   53.9080  O.3       1 <0>        -0.3011
      10  C9         -2.0200   29.6360   54.6060  C.3       1 <0>         0.0677
      11  C10        -1.7100   30.5670   55.7800  C.3       1 <0>         0.1124
      12  C11        -0.4870   31.4220   55.4440  C.3       1 <0>         0.1008
      13  N1          0.6060   31.0930   56.3630  N.pl3     1 <0>        -0.7588
      14  C12         0.5910   31.5870   57.6710  C.ar      1 <0>         0.2157
      15  C13         0.7280   30.7180   58.7450  C.ar      1 <0>        -0.1971
      16  C14         0.7180   31.2100   60.0350  C.ar      1 <0>        -0.0658
      17  C15         0.5610   32.5660   60.2580  C.ar      1 <0>        -0.1339
      18  C16         0.4180   33.4330   59.1900  C.ar      1 <0>        -0.0696
      19  C17         0.4330   32.9490   57.8980  C.ar      1 <0>        -0.1924
      20  C18         0.5450   33.1000   61.6670  C.3       1 <0>        -0.0510
      21  C19        -0.3690   34.3250   61.7380  C.3       1 <0>        -0.1455
      22  C20         0.0230   32.0190   62.6160  C.3       1 <0>        -0.1455
      23  O2         -2.8340   31.4160   56.0230  O.3       1 <0>        -0.5840
@<TRIPOS>BOND
     1     1     2 1
     2     2     7 ar
     3     2     3 ar
     4     3     4 ar
     5     4     5 ar
     6     5     6 ar
     7     5     9 1
     8     6     7 ar
     9     6     8 1
    10     9    10 1
    11    10    11 1
    12    11    12 1
    13    11    23 1
    14    12    13 1
    15    13    14 1
    16    14    19 ar
    17    14    15 ar
    18    15    16 ar
    19    16    17 ar
    20    17    18 ar
    21    17    20 1
    22    18    19 ar
    23    20    21 1
    24    20    22 1

@<TRIPOS>MOLECULE
ZINC19790384_replica-1.pdb
 30 32 0 0 0
SMALL
GASTEIGER

@<TRIPOS>ATOM
       1  C1          0.2350   31.8980   61.8550  C.3       1 <0>        -0.1532
       2  C2          0.2670   33.1900   61.0330  C.3       1 <0>        -0.1169
       3  C3         -0.3770   34.3210   61.8370  C.3       1 <0>        -0.1670
       4  C4          1.7170   33.5540   60.7120  C.3       1 <0>        -0.0079
       5  N1          1.8410   33.8490   59.2780  N.4       1 <0>        -0.4033
       6  C5          1.8730   35.2980   59.0390  C.3       1 <0>         0.0609
       7  C6          2.9980   35.6270   58.0930  C.ar      1 <0>        -0.2300
       8  C7          2.7290   35.9100   56.7650  C.ar      1 <0>         0.2437
       9  C8          3.7610   36.2210   55.8820  C.ar      1 <0>        -0.2361
      10  C9          5.0560   36.2400   56.3150  C.ar      1 <0>         0.0385
      11  C10         5.3440   35.9510   57.6480  C.ar      1 <0>        -0.2540
      12  C11         4.3090   35.6410   58.5500  C.ar      1 <0>         0.2179
      13  O1          4.5900   35.3640   59.8380  O.3       1 <0>        -0.2276
      14  C12         5.8300   35.3630   60.3350  C.2       1 <0>         0.1032
      15  C13         6.9210   35.6440   59.5770  C.2       1 <0>        -0.1879
      16  C14         6.7300   35.9630   58.1520  C.2       1 <0>         0.4277
      17  O2          7.6720   36.2220   57.4230  O.2       1 <0>        -0.4301
      18  C15         8.2790   35.6300   60.1730  C.ar      1 <0>        -0.0823
      19  C16         8.7970   36.7830   60.7610  C.ar      1 <0>        -0.0653
      20  C17        10.0610   36.7640   61.3140  C.ar      1 <0>        -0.1550
      21  C18        10.8160   35.6060   61.2890  C.ar      1 <0>        -0.0642
      22  C19        10.3110   34.4570   60.7100  C.ar      1 <0>        -0.2082
      23  C20         9.0420   34.4600   60.1540  C.ar      1 <0>         0.1579
      24  O3          8.5430   33.3290   59.5870  O.3       1 <0>        -0.3109
      25  C21         8.3120   32.2170   60.4540  C.3       1 <0>         0.0216
      26  O4          1.4460   35.8900   56.3190  O.3       1 <0>        -0.5083
      27  C22         0.7580   33.2140   58.5140  C.3       1 <0>        -0.0074
      28  C23         1.2940   31.9660   57.8100  C.3       1 <0>        -0.1288
      29  C24         0.1940   30.9050   57.7460  C.3       1 <0>        -0.1654
      30  C25         1.7320   32.3320   56.3890  C.3       1 <0>        -0.1487
@<TRIPOS>BOND
     1     1     2 1
     2     2     3 1
     3     2     4 1
     4     4     5 1
     5     5     6 1
     6     5    27 1
     7     6     7 1
     8     7    12 ar
     9     7     8 ar
    10     8     9 ar
    11     8    26 1
    12     9    10 ar
    13    10    11 ar
    14    11    16 1
    15    11    12 ar
    16    12    13 1
    17    13    14 1
    18    14    15 2
    19    15    16 1
    20    15    18 1
    21    16    17 2
    22    18    23 ar
    23    18    19 ar
    24    19    20 ar
    25    20    21 ar
    26    21    22 ar
    27    22    23 ar
    28    23    24 1
    29    24    25 1
    30    27    28 1
    31    28    29 1
    32    28    30 1

@<TRIPOS>MOLECULE
ZINC13982914_replica-1.pdb
 25 26 0 0 0
SMALL
GASTEIGER

@<TRIPOS>ATOM
       1  C1          7.5270   37.6480   56.2380  C.3       1 <0>        -0.1556
       2  C2          6.8240   36.3000   56.4170  C.3       1 <0>        -0.1163
       3  C3          6.0050   36.3190   57.7090  C.3       1 <0>        -0.0498
       4  C4          6.6520   35.3870   58.7360  C.3       1 <0>        -0.1465
       5  C5          4.6020   35.8540   57.4220  C.ar      1 <0>        -0.1102
       6  C6          3.6770   35.7740   58.4460  C.ar      1 <0>        -0.0760
       7  C7          2.3890   35.3480   58.1850  C.ar      1 <0>        -0.1417
       8  C8          2.0230   34.9990   56.8930  C.ar      1 <0>         0.1220
       9  C9          2.9550   35.0750   55.8680  C.ar      1 <0>        -0.2075
      10  C10         4.2400   35.5070   56.1330  C.ar      1 <0>        -0.0739
      11  O1          0.7570   34.5800   56.6330  O.3       1 <0>        -0.2889
      12  C11         0.3030   33.4180   57.3290  C.3       1 <0>         0.0499
      13  C12         0.4550   32.2090   56.4410  C.2       1 <0>         0.5311
      14  O2          1.3530   31.4190   56.6410  O.2       1 <0>        -0.4746
      15  N1         -0.4080   32.0060   55.4260  N.am      1 <0>        -0.5819
      16  N2         -0.2670   30.8830   54.6010  N.2       1 <0>        -0.2247
      17  C13        -1.2690   30.0770   54.4240  C.2       1 <0>         0.1437
      18  C14        -2.5860   30.3510   55.1050  C.3       1 <0>        -0.1267
      19  C15        -2.7620   29.3890   56.2800  C.3       1 <0>        -0.1492
      20  C16        -1.1200   28.8950   53.5560  C.ar      1 <0>        -0.0503
      21  C17        -1.7870   28.8370   52.3290  C.ar      1 <0>        -0.0926
      22  C18        -1.6400   27.7300   51.5190  C.ar      1 <0>        -0.1240
      23  C19        -0.8420   26.6750   51.9240  C.ar      1 <0>        -0.1022
      24  C20        -0.1830   26.7230   53.1400  C.ar      1 <0>        -0.1235
      25  C21        -0.3170   27.8260   53.9570  C.ar      1 <0>        -0.0783
@<TRIPOS>BOND
     1     1     2 1
     2     2     3 1
     3     3     4 1
     4     3     5 1
     5     5    10 ar
     6     5     6 ar
     7     6     7 ar
     8     7     8 ar
     9     8     9 ar
    10     8    11 1
    11     9    10 ar
    12    11    12 1
    13    12    13 1
    14    13    14 2
    15    13    15 am
    16    15    16 1
    17    16    17 2
    18    17    18 1
    19    17    20 1
    20    18    19 1
    21    20    25 ar
    22    20    21 ar
    23    21    22 ar
    24    22    23 ar
    25    23    24 ar
    26    24    25 ar

@<TRIPOS>MOLECULE
ZINC37883640_replica-1.pdb
 23 24 0 0 0
SMALL
GASTEIGER

@<TRIPOS>ATOM
      1  C9        -0.1670   30.9590   54.8430 C.3     0  <0>0        0.1735
      2  C8        -1.3350   29.9900   54.6550 C.3     0  <0>0        0.2361
      3  O1        -1.5350   29.7500   53.2600 O.3     0  <0>0       -0.4728
      4  C5        -1.2930   28.4900   52.8100 C.ar    0  <0>0        0.1387
      5  C4        -1.7950   28.0830   51.5830 C.ar    0  <0>0        0.0366
      6  C3        -1.5480   26.8030   51.1270 C.ar    0  <0>0       -0.0011
      7  C2        -0.7990   25.9280   51.8930 C.ar    0  <0>0       -0.0217
      8  C1        -0.5310   24.5310   51.3930 C.3     0  <0>0        0.0310
      9  C7        -0.3030   26.3300   53.1190 C.ar    0  <0>0       -0.0011
     10  C6        -0.5430   27.6110   53.5770 C.ar    0  <0>0        0.0366
     11  C10       -0.3920   31.7920   56.1060 C.3     0  <0>0        0.1206
     12  N1         0.2430   33.1010   55.9490 N.pl3   0  <0>0       -0.3299
     13  H13        0.2570   33.5330   55.0810 H       0  <0>0        0.1469
     14  C11        0.8300   33.7310   57.0510 C.ar    0  <0>0        0.0562
     15  C16        2.1580   34.1380   56.9960 C.ar    0  <0>0        0.0812
     16  C15        2.7320   34.7660   58.0860 C.ar    0  <0>0        0.0694
     17 Cl          3.0900   33.8680   55.5560 Cl      0  <0>0       -0.0801
     18  C14        1.9900   34.9760   59.2350 C.ar    0  <0>0        0.0123
     19 Cl          4.3870   35.2840   58.0150 Cl      0  <0>0       -0.0813
     20  C13        0.6710   34.5650   59.2940 C.ar    0  <0>0        0.0022
     21  C12        0.0890   33.9430   58.2070 C.ar    0  <0>0        0.0152
     22  O2         1.0500   30.2210   54.9690 O.3     0  <0>0       -0.3791
     23  H17        0.9680   29.4150   55.4970 H       0  <0>0        0.2106
@<TRIPOS>BOND
     1     6     5   ar
     2     6     7   ar
     3     8     7    1
     4     5     4   ar
     5     7     9   ar
     6     4     3    1
     7     4    10   ar
     8     9    10   ar
     9     3     2    1
    10     2     1    1
    11     1    22    1
    12     1    11    1
    13    22    23    1
    14    13    12    1
    15    17    15    1
    16    12    11    1
    17    12    14    1
    18    15    14   ar
    19    15    16   ar
    20    14    21   ar
    21    19    16    1
    22    16    18   ar
    23    21    20   ar
    24    18    20   ar


@<TRIPOS>MOLECULE
ZINC56778695_replica-1.pdb
 29 31 0 0 0
SMALL
GASTEIGER

@<TRIPOS>ATOM
       1  C1          8.2310   32.5860   56.6590  C.3       1 <0>        -0.1594
       2  C2          7.2550   33.7630   56.6100  C.3       1 <0>         0.2045
       3  C3          7.8080   34.9080   57.4180  C.ar      1 <0>        -0.1364
       4  C4          8.8570   34.6930   58.2930  C.ar      1 <0>        -0.0601
       5  C5          9.3660   35.7420   59.0340  C.ar      1 <0>        -0.1562
       6  C6          8.8250   37.0110   58.9030  C.ar      1 <0>         0.1324
       7  C7          7.7740   37.2270   58.0280  C.ar      1 <0>        -0.1853
       8  C8          7.2690   36.1760   57.2810  C.ar      1 <0>         0.1440
       9  F1          6.2480   36.3870   56.4230  F         1 <0>        -0.1226
      10  F2          9.3210   38.0360   59.6300  F         1 <0>        -0.1277
      11  N1          5.9650   33.3510   57.1670  N.am      1 <0>        -0.7422
      12  C9          4.8750   33.3010   56.3750  C.2       1 <0>         0.7081
      13  O1          4.9630   33.5970   55.1990  O.2       1 <0>        -0.5792
      14  N2          3.6870   32.9220   56.8880  N.am      1 <0>        -0.6324
      15  C10         3.5800   32.5650   58.3050  C.3       1 <0>         0.0767
      16  C11         2.5020   32.8660   56.0280  C.3       1 <0>         0.1329
      17  C12         1.5290   31.8160   56.5680  C.3       1 <0>        -0.1299
      18  C13         0.0920   32.3000   56.3610  C.3       1 <0>        -0.0562
      19  C14        -0.6700   31.2800   55.5540  C.2       1 <0>         0.0946
      20  C15        -0.1280   30.2850   54.8170  C.2       1 <0>        -0.2532
      21  C16        -1.1830   29.5630   54.2260  C.2       1 <0>         0.1175
      22  N3         -2.3150   30.1170   54.6040  N.2       1 <0>        -0.2830
      23  N4         -2.0130   31.1960   55.4450  N.pl3     1 <0>        -0.4707
      24  C17        -1.0420   28.3850   53.3340  C.ar      1 <0>        -0.0189
      25  C18        -0.2740   27.2930   53.7340  C.ar      1 <0>        -0.0943
      26  C19        -0.1470   26.2000   52.9010  C.ar      1 <0>        -0.1210
      27  C20        -0.7800   26.1870   51.6710  C.ar      1 <0>        -0.1118
      28  C21        -1.5430   27.2680   51.2700  C.ar      1 <0>        -0.1224
      29  C22        -1.6820   28.3640   52.0970  C.ar      1 <0>        -0.0927
@<TRIPOS>BOND
     1     1     2 1
     2     2     3 1
     3     2    11 1
     4     3     8 ar
     5     3     4 ar
     6     4     5 ar
     7     5     6 ar
     8     6     7 ar
     9     6    10 1
    10     7     8 ar
    11     8     9 1
    12    11    12 am
    13    12    13 2
    14    12    14 am
    15    14    15 1
    16    14    16 1
    17    16    17 1
    18    17    18 1
    19    18    19 1
    20    19    23 1
    21    19    20 2
    22    20    21 1
    23    21    22 2
    24    21    24 1
    25    22    23 1
    26    24    29 ar
    27    24    25 ar
    28    25    26 ar
    29    26    27 ar
    30    27    28 ar
    31    28    29 ar

@<TRIPOS>MOLECULE
ZINC61955036_replica-1.pdb
 20 21 0 0 0
SMALL
GASTEIGER

@<TRIPOS>ATOM
      1  C2        -0.6910   30.2330   56.4270 C.ar    0  <0>0        0.0542
      2  C3        -0.5180   31.6050   56.2660 C.ar    0  <0>0        0.0156
      3  C4        -0.0260   32.3640   57.3040 C.ar    0  <0>0        0.0116
      4  C5         0.3000   31.7560   58.5190 C.ar    0  <0>0        0.0685
      5  C6         0.1260   30.3780   58.6770 C.ar    0  <0>0        0.0116
      6  C7        -0.3720   29.6260   57.6370 C.ar    0  <0>0        0.0156
      7  C8         0.8140   32.5430   59.6000 C.1     0  <0>0        0.1004
      8  N2         1.2220   33.1670   60.4570 N.1     0  <0>0       -0.1908
      9  N1        -1.1900   29.4670   55.3740 N.am    0  <0>0       -0.2534
     10  C1        -2.6220   29.1690   55.2990 C.3     0  <0>0        0.1203
     11  C9        -0.3540   29.0010   54.4250 C.2     0  <0>0        0.2529
     12  O1         0.8460   29.1480   54.5460 O.2     0  <0>0       -0.2696
     13  C10       -0.8980   28.3110   53.2360 C.ar    0  <0>0        0.0566
     14  C15       -0.5680   26.9780   52.9890 C.ar    0  <0>0        0.0114
     15  C14       -1.0840   26.3350   51.8800 C.ar    0  <0>0        0.0369
     16  C13       -1.9150   27.0150   51.0080 C.ar    0  <0>0        0.0363
     17 Br         -0.6450   24.5260   51.5490 Br      0  <0>0       -0.0489
     18  C12       -2.2420   28.3410   51.2440 C.ar    0  <0>0        0.1408
     19  C11       -1.7380   28.9910   52.3540 C.ar    0  <0>0        0.0342
     20  F1        -3.0560   28.9970   50.3890 F       0  <0>0       -0.2042
@<TRIPOS>BOND
     1    20    18    1
     2    16    18   ar
     3    16    15   ar
     4    18    19   ar
     5    17    15    1
     6    15    14   ar
     7    19    13   ar
     8    14    13   ar
     9    13    11    1
    10    11    12    2
    11    11     9   am
    12    10     9    1
    13     9     1    1
    14     2     1   ar
    15     2     3   ar
    16     1     6   ar
    17     3     4   ar
    18     6     5   ar
    19     4     5   ar
    20     4     7    1
    21     7     8    3


@<TRIPOS>MOLECULE
ZINC06762831_replica-1.pdb
 26 28 0 0 0
SMALL
GASTEIGER

@<TRIPOS>ATOM
       1  C1          3.3930   33.8800   55.5420  C.3       1 <0>        -0.1657
       2  C2          2.3810   33.2330   56.4900  C.3       1 <0>         0.1463
       3  C3          2.9920   33.1190   57.8890  C.3       1 <0>        -0.1033
       4  C4          1.8800   33.1800   58.9370  C.3       1 <0>        -0.1486
       5  C5          3.7380   31.7890   58.0130  C.3       1 <0>        -0.1475
       6  N1          2.0370   31.8970   55.9980  N.am      1 <0>        -0.7284
       7  C6          0.7450   31.5290   55.8970  C.2       1 <0>         0.5131
       8  O1         -0.1330   32.3030   56.2130  O.2       1 <0>        -0.5278
       9  C7          0.3900   30.1540   55.3910  C.3       1 <0>        -0.1326
      10  C8         -1.1280   29.9660   55.4430  C.3       1 <0>         0.0471
      11  C9         -1.4640   28.8540   56.4030  C.ar      1 <0>        -0.0685
      12  C10        -2.7850   28.5780   56.7040  C.ar      1 <0>        -0.0956
      13  C11        -3.0940   27.5580   57.5850  C.ar      1 <0>        -0.1557
      14  C12        -2.0820   26.8140   58.1640  C.ar      1 <0>         0.0916
      15  C13        -0.7590   27.0910   57.8610  C.ar      1 <0>        -0.1527
      16  C14        -0.4520   28.1070   56.9760  C.ar      1 <0>        -0.0554
      17  F1         -2.3830   25.8160   59.0250  F         1 <0>        -0.1430
      18  C15        -1.6380   29.6160   54.0690  C.2       1 <0>        -0.1626
      19  C16        -2.4950   30.3360   53.3290  C.2       1 <0>         0.0569
      20  N2         -2.7270   29.7050   52.1370  N.pl3     1 <0>        -0.5936
      21  C17        -2.0050   28.5330   52.0800  C.ar      1 <0>         0.0964
      22  C18        -1.2870   28.4300   53.2850  C.ar      1 <0>        -0.0974
      23  C19        -0.4530   27.3320   53.5070  C.ar      1 <0>        -0.0709
      24  C20        -0.3380   26.3640   52.5500  C.ar      1 <0>        -0.1446
      25  C21        -1.0410   26.4630   51.3570  C.ar      1 <0>        -0.0976
      26  C22        -1.8760   27.5340   51.1220  C.ar      1 <0>        -0.1308
@<TRIPOS>BOND
     1     1     2 1
     2     2     3 1
     3     2     6 1
     4     3     4 1
     5     3     5 1
     6     6     7 am
     7     7     8 2
     8     7     9 1
     9     9    10 1
    10    10    11 1
    11    10    18 1
    12    11    16 ar
    13    11    12 ar
    14    12    13 ar
    15    13    14 ar
    16    14    15 ar
    17    14    17 1
    18    15    16 ar
    19    18    22 1
    20    18    19 2
    21    19    20 1
    22    20    21 1
    23    21    26 ar
    24    21    22 ar
    25    22    23 ar
    26    23    24 ar
    27    24    25 ar
    28    25    26 ar

@<TRIPOS>MOLECULE
ZINC49924670_replica-1.pdb
 23 24 0 0 0
SMALL
GASTEIGER

@<TRIPOS>ATOM
       1  C1         12.2400   29.4890   64.4130  C.3       1 <0>        -0.1554
       2  C2         12.8340   30.3570   63.3010  C.3       1 <0>        -0.1161
       3  C3         12.9800   31.7960   63.8010  C.3       1 <0>        -0.0547
       4  C4         14.4610   32.1750   63.8380  C.3       1 <0>        -0.1461
       5  C5         12.2470   32.7270   62.8700  C.ar      1 <0>        -0.0721
       6  C6         12.8040   33.9450   62.5300  C.ar      1 <0>        -0.1111
       7  C7         12.1310   34.7990   61.6760  C.ar      1 <0>        -0.1069
       8  C8         10.9010   34.4340   61.1610  C.ar      1 <0>        -0.1227
       9  C9         10.3430   33.2160   61.5010  C.ar      1 <0>        -0.1084
      10  C10        11.0180   32.3600   62.3520  C.ar      1 <0>        -0.1140
      11  C11        10.1670   35.3650   60.2320  C.3       1 <0>         0.1542
      12  C12         9.9330   36.7050   60.9320  C.3       1 <0>        -0.1574
      13  C13         8.4670   36.8080   61.3600  C.3       1 <0>         0.1284
      14  N1          7.7670   37.7500   60.4840  N.pl3     1 <0>        -0.7504
      15  C14         7.0640   37.2790   59.3730  C.ar      1 <0>         0.2108
      16  C15         5.9450   36.4740   59.5460  C.ar      1 <0>        -0.1898
      17  C16         5.2530   36.0100   58.4460  C.ar      1 <0>        -0.0771
      18  C17         5.6730   36.3450   57.1710  C.ar      1 <0>        -0.1421
      19  C18         6.7860   37.1450   56.9940  C.ar      1 <0>        -0.0740
      20  C19         7.4790   37.6180   58.0920  C.ar      1 <0>        -0.1603
      21  C20         8.6890   38.4960   57.8980  C.3       1 <0>        -0.1050
      22  C21         4.9150   35.8360   55.9710  C.3       1 <0>        -0.1069
      23  O1          8.9090   34.7880   59.8750  O.3       1 <0>        -0.5519
@<TRIPOS>BOND
     1     1     2 1
     2     2     3 1
     3     3     4 1
     4     3     5 1
     5     5    10 ar
     6     5     6 ar
     7     6     7 ar
     8     7     8 ar
     9     8     9 ar
    10     8    11 1
    11     9    10 ar
    12    11    12 1
    13    11    23 1
    14    12    13 1
    15    13    14 1
    16    14    15 1
    17    15    20 ar
    18    15    16 ar
    19    16    17 ar
    20    17    18 ar
    21    18    19 ar
    22    18    22 1
    23    19    20 ar
    24    20    21 1

@<TRIPOS>MOLECULE
ZINC21259903_replica-1.pdb
 33 37 0 0 0
SMALL
GASTEIGER

@<TRIPOS>ATOM
       1  C1         15.3940   33.7410   63.5300  C.3       1 <0>        -0.1484
       2  C2         14.2420   32.7580   63.7440  C.3       1 <0>        -0.0891
       3  C3         13.0410   33.2130   62.9570  C.ar      1 <0>        -0.0804
       4  C4         13.0160   34.4800   62.4030  C.ar      1 <0>        -0.1151
       5  C5         11.9150   34.8970   61.6790  C.ar      1 <0>        -0.1089
       6  C6         10.8380   34.0480   61.5090  C.ar      1 <0>        -0.0854
       7  C7         10.8600   32.7840   62.0670  C.ar      1 <0>        -0.1101
       8  C8         11.9620   32.3650   62.7870  C.ar      1 <0>        -0.1153
       9  C9          9.6370   34.5040   60.7200  C.3       1 <0>        -0.0341
      10  C10        10.0300   34.7300   59.2620  C.3       1 <0>        -0.1024
      11  C11         8.8270   35.2110   58.4690  C.2       1 <0>         0.2678
      12  C12         7.8800   35.9650   59.0530  C.2       1 <0>        -0.3022
      13  C13         6.6470   36.5180   58.3800  C.3       1 <0>         0.2894
      14  N1          6.6470   36.4050   56.9370  N.pl3     1 <0>        -0.7814
      15  C14         6.6280   35.1580   56.3160  C.ar      1 <0>         0.1759
      16  C15         5.5520   34.7500   55.5430  C.ar      1 <0>        -0.1284
      17  C16         5.5580   33.4830   54.9850  C.ar      1 <0>        -0.1084
      18  C17         6.6260   32.6290   55.1980  C.ar      1 <0>        -0.1258
      19  C18         7.7100   33.0410   55.9540  C.ar      1 <0>        -0.1171
      20  C19         7.7150   34.3150   56.4940  C.ar      1 <0>         0.1134
      21  N2          8.8170   34.8340   57.1650  N.pl3     1 <0>        -0.6980
      22  C20         5.4430   35.7870   58.9160  C.ar      1 <0>        -0.1183
      23  C21         4.1760   36.3020   58.7130  C.ar      1 <0>        -0.0501
      24  C22         3.0700   35.6340   59.2040  C.ar      1 <0>        -0.1569
      25  C23         3.2330   34.4450   59.9000  C.ar      1 <0>         0.1289
      26  C24         4.5050   33.9330   60.1070  C.ar      1 <0>        -0.2121
      27  C25         5.6070   34.6010   59.6090  C.ar      1 <0>        -0.0646
      28  O1          2.1470   33.7860   60.3830  O.3       1 <0>        -0.3176
      29  C26         0.8740   34.4130   60.2020  C.3       1 <0>         0.0541
      30  C27        -0.0560   34.0170   61.3500  C.3       1 <0>        -0.1546
      31  C28         7.9870   36.3060   60.4220  C.2       1 <0>         0.4003
      32  O2          7.1260   37.0040   60.9220  O.2       1 <0>        -0.4708
      33  C29         9.1250   35.8370   61.2790  C.3       1 <0>        -0.1593
@<TRIPOS>BOND
     1     1     2 1
     2     2     3 1
     3     3     8 ar
     4     3     4 ar
     5     4     5 ar
     6     5     6 ar
     7     6     7 ar
     8     6     9 1
     9     7     8 ar
    10     9    33 1
    11     9    10 1
    12    10    11 1
    13    11    21 1
    14    11    12 2
    15    12    13 1
    16    12    31 1
    17    13    14 1
    18    13    22 1
    19    14    15 1
    20    15    20 ar
    21    15    16 ar
    22    16    17 ar
    23    17    18 ar
    24    18    19 ar
    25    19    20 ar
    26    20    21 1
    27    22    27 ar
    28    22    23 ar
    29    23    24 ar
    30    24    25 ar
    31    25    26 ar
    32    25    28 1
    33    26    27 ar
    34    28    29 1
    35    29    30 1
    36    31    32 2
    37    31    33 1

@<TRIPOS>MOLECULE
ZINC31774107_replica-1.pdb
 25 27 0 0 0
SMALL
GASTEIGER

@<TRIPOS>ATOM
      1  C1         8.6420   31.8430   59.3990 C.3     0  <0>0        0.0262
      2  C2         8.5620   33.2210   60.0580 C.3     0  <0>0        0.0945
      3  C3         9.7770   33.4350   60.9240 C.ar    0  <0>0       -0.0013
      4  C8        10.1700   32.4530   61.8160 C.ar    0  <0>0        0.0374
      5  C7        11.2860   32.6530   62.6100 C.ar    0  <0>0        0.1719
      6  C6        12.0070   33.8350   62.5100 C.ar    0  <0>0        0.1722
      7  O1        11.6840   31.6930   63.4940 O.3     0  <0>0       -0.4723
      8  C5        11.6110   34.8160   61.6170 C.ar    0  <0>0        0.0398
      9  O2        13.1060   34.0220   63.2980 O.3     0  <0>0       -0.4723
     10  C4        10.4980   34.6100   60.8210 C.ar    0  <0>0        0.0006
     11  C11       14.2310   33.1890   63.0100 C.3     0  <0>0        0.2094
     12  C10       14.0980   31.8450   63.7080 C.3     0  <0>0        0.0946
     13  C9        12.9180   31.0370   63.1910 C.3     0  <0>0        0.2094
     14  N1         8.5130   34.2560   59.0220 N.am    0  <0>0       -0.2987
     15  C12        7.5020   35.1460   59.0060 C.2     0  <0>0        0.2465
     16  O3         6.6300   35.0910   59.8520 O.2     0  <0>0       -0.2701
     17  H14        9.3020   34.3060   58.2560 H       0  <0>0        0.1500
     18  C13        7.4520   36.1890   57.9610 C.ar    0  <0>0        0.0597
     19  C18        8.0420   37.4360   58.1860 C.ar    0  <0>0        0.0412
     20  C17        7.9960   38.4040   57.2040 C.ar    0  <0>0        0.0365
     21 Br          8.9040   37.7940   59.8300 Br      0  <0>0       -0.0488
     22  C16        7.3590   38.1450   56.0010 C.ar    0  <0>0        0.1406
     23  C15        6.7690   36.9100   55.7750 C.ar    0  <0>0        0.0298
     24  F1         7.3140   39.0980   55.0450 F       0  <0>0       -0.2042
     25  C14        6.8120   35.9340   56.7450 C.ar    0  <0>0        0.0073
@<TRIPOS>BOND
     1    24    22    1
     2    23    22   ar
     3    23    25   ar
     4    22    20   ar
     5    25    18   ar
     6    20    19   ar
     7    18    19   ar
     8    18    15    1
     9    19    21    1
    10    17    14    1
    11    15    14   am
    12    15    16    2
    13    14     2    1
    14     1     2    1
    15     2     3    1
    16    10     3   ar
    17    10     8   ar
    18     3     4   ar
    19     8     6   ar
    20     4     5   ar
    21     6     5   ar
    22     6     9    1
    23     5     7    1
    24    11     9    1
    25    11    12    1
    26    13     7    1
    27    13    12    1


@<TRIPOS>MOLECULE
ZINC40313834_replica-1.pdb
 29 31 0 0 0
SMALL
GASTEIGER

@<TRIPOS>ATOM
       1  C1          5.7940   37.0590   60.0690  C.3       1 <0>        -0.1079
       2  C2          6.6660   37.3970   58.8860  C.ar      1 <0>        -0.1082
       3  C3          7.7460   38.2430   59.0430  C.ar      1 <0>        -0.0813
       4  C4          8.5460   38.5550   57.9600  C.ar      1 <0>        -0.1430
       5  C5          8.2670   38.0170   56.7160  C.ar      1 <0>        -0.0862
       6  C6          7.1900   37.1690   56.5550  C.ar      1 <0>        -0.2051
       7  C7          6.3890   36.8520   57.6420  C.ar      1 <0>         0.1156
       8  O1          5.3300   36.0130   57.4860  O.3       1 <0>        -0.2987
       9  C8          5.1290   35.4580   56.1840  C.3       1 <0>         0.0307
      10  C9          5.0090   33.9370   56.2920  C.3       1 <0>         0.0890
      11  C10         4.5950   33.5580   57.7150  C.3       1 <0>        -0.0486
      12  N1          5.5270   32.5550   58.2460  N.4       1 <0>        -0.3737
      13  C11         6.8190   32.6760   57.5570  C.3       1 <0>         0.0406
      14  C12         7.7510   33.5260   58.3830  C.ar      1 <0>        -0.1677
      15  C13         8.8060   34.1820   57.7770  C.ar      1 <0>        -0.0935
      16  C14         9.6600   34.9630   58.5340  C.ar      1 <0>        -0.1155
      17  C15         9.4590   35.0870   59.8960  C.ar      1 <0>        -0.0342
      18  C16         8.4030   34.4310   60.5020  C.ar      1 <0>        -0.1091
      19  C17         7.5460   33.6540   59.7440  C.ar      1 <0>        -0.0873
      20  C18        10.3900   35.9360   60.7220  C.3       1 <0>        -0.0678
      21  C19         9.5740   36.8010   61.6850  C.3       1 <0>        -0.1473
      22  C20        11.3330   35.0330   61.5190  C.3       1 <0>        -0.1486
      23  C21         4.9780   31.2100   58.0240  C.3       1 <0>        -0.0284
      24  C22         5.0210   30.4200   59.3340  C.3       1 <0>         0.0542
      25  C23         4.9460   31.3910   60.5330  C.3       1 <0>        -0.1473
      26  C24         5.9400   30.7510   61.5390  C.3       1 <0>        -0.1568
      27  C25         7.0020   30.1680   60.5720  C.3       1 <0>         0.0496
      28  O2          6.2570   29.7050   59.4310  O.3       1 <0>        -0.3826
      29  O3          4.0220   33.4700   55.3690  O.3       1 <0>        -0.5386
@<TRIPOS>BOND
     1     1     2 1
     2     2     7 ar
     3     2     3 ar
     4     3     4 ar
     5     4     5 ar
     6     5     6 ar
     7     6     7 ar
     8     7     8 1
     9     8     9 1
    10     9    10 1
    11    10    11 1
    12    10    29 1
    13    11    12 1
    14    12    13 1
    15    12    23 1
    16    13    14 1
    17    14    19 ar
    18    14    15 ar
    19    15    16 ar
    20    16    17 ar
    21    17    18 ar
    22    17    20 1
    23    18    19 ar
    24    20    21 1
    25    20    22 1
    26    23    24 1
    27    24    28 1
    28    24    25 1
    29    25    26 1
    30    26    27 1
    31    27    28 1

@<TRIPOS>MOLECULE
ZINC04029210_replica-1.pdb
 27 29 0 0 0
SMALL
GASTEIGER

@<TRIPOS>ATOM
       1  C1          7.7840   31.1550   59.0210  C.3       1 <0>        -0.1802
       2  C2          6.9970   32.4660   59.0570  C.3       1 <0>         0.1119
       3  C3          7.5700   33.3760   60.1470  C.3       1 <0>        -0.1332
       4  C4          9.0240   33.7160   59.8050  C.3       1 <0>        -0.0814
       5  C5          9.0730   34.3670   58.4190  C.3       1 <0>        -0.1525
       6  C6          8.4410   33.4190   57.3970  C.3       1 <0>         0.0558
       7  O1          7.1010   33.1190   57.7900  O.3       1 <0>        -0.3698
       8  C7          9.5810   34.6880   60.8480  C.3       1 <0>        -0.0268
       9  C8         10.0140   35.9830   60.1580  C.3       1 <0>        -0.1461
      10  C9          9.4570   37.1820   60.9280  C.3       1 <0>        -0.0075
      11  C10         7.1190   37.4540   60.3590  C.3       1 <0>         0.0509
      12  C11         6.4980   36.9270   59.0910  C.ar      1 <0>        -0.1684
      13  C12         5.3440   36.1690   59.1500  C.ar      1 <0>        -0.0932
      14  C13         4.7720   35.6890   57.9870  C.ar      1 <0>        -0.1147
      15  C14         5.3590   35.9600   56.7640  C.ar      1 <0>        -0.0825
      16  C15         6.5160   36.7150   56.7050  C.ar      1 <0>        -0.1145
      17  C16         7.0850   37.1980   57.8690  C.ar      1 <0>        -0.0931
      18  C17        10.7670   34.0630   61.5350  C.ar      1 <0>        -0.1347
      19  C18        11.9580   34.7600   61.6250  C.ar      1 <0>        -0.0744
      20  C19        13.0460   34.1910   62.2590  C.ar      1 <0>        -0.2057
      21  C20        12.9450   32.9160   62.7960  C.ar      1 <0>         0.1366
      22  C21        11.7500   32.2170   62.7000  C.ar      1 <0>        -0.1476
      23  C22        10.6640   32.7920   62.0680  C.ar      1 <0>        -0.0741
      24  O2         14.0150   32.3520   63.4170  O.3       1 <0>        -0.3144
      25  C23        15.0430   33.2360   63.8680  C.3       1 <0>         0.0253
      26  C24         5.5270   32.1710   59.3590  C.3       1 <0>        -0.1421
      27  N1          8.4950   37.9020   60.0720  N.4       1 <0>        -0.5181
@<TRIPOS>BOND
     1     1     2 1
     2     2     7 1
     3     2     3 1
     4     2    26 1
     5     3     4 1
     6     4     5 1
     7     4     8 1
     8     5     6 1
     9     6     7 1
    10     8     9 1
    11     8    18 1
    12     9    10 1
    13    10    27 1
    14    11    12 1
    15    11    27 1
    16    12    17 ar
    17    12    13 ar
    18    13    14 ar
    19    14    15 ar
    20    15    16 ar
    21    16    17 ar
    22    18    23 ar
    23    18    19 ar
    24    19    20 ar
    25    20    21 ar
    26    21    22 ar
    27    21    24 1
    28    22    23 ar
    29    24    25 1

@<TRIPOS>MOLECULE
ZINC39364976_replica-1.pdb
 25 28 0 0 0
SMALL
GASTEIGER

@<TRIPOS>ATOM
       1  C1          6.9370   37.8660   55.9000  C.ar      1 <0>        -0.0944
       2  C2          8.0370   38.6120   56.2820  C.ar      1 <0>        -0.1297
       3  C3          8.6060   38.4190   57.5310  C.ar      1 <0>        -0.0690
       4  C4          8.0700   37.4660   58.3750  C.ar      1 <0>        -0.1228
       5  C5          6.9880   36.6900   57.9890  C.ar      1 <0>         0.1986
       6  C6          6.4060   36.9090   56.7460  C.ar      1 <0>        -0.1415
       7  N1          6.5120   35.6530   58.8030  N.pl3     1 <0>        -0.6586
       8  C7          7.3230   34.4310   58.9240  C.3       1 <0>         0.1376
       9  C8          8.2880   34.5210   60.0770  C.3       1 <0>        -0.1342
      10  C9          9.4090   35.5360   59.9110  C.3       1 <0>        -0.0190
      11  S1          8.7390   37.2230   60.0030  S.3       1 <0>        -0.1315
      12  C10        10.4240   35.3440   61.0080  C.ar      1 <0>        -0.0475
      13  C11        10.8220   36.4200   61.7790  C.ar      1 <0>        -0.0839
      14  C12        11.7530   36.2450   62.7860  C.ar      1 <0>        -0.1202
      15  C13        12.2870   34.9910   63.0230  C.ar      1 <0>         0.0715
      16  C14        11.8870   33.9110   62.2510  C.ar      1 <0>         0.0723
      17  C15        10.9520   34.0890   61.2470  C.ar      1 <0>        -0.1114
      18  F1         12.4080   32.6850   62.4820  F         1 <0>        -0.1255
      19  F2         13.1960   34.8190   64.0070  F         1 <0>        -0.1259
      20  C16         5.2390   35.7810   59.5170  C.3       1 <0>         0.1879
      21  C17         4.1750   34.9350   58.8160  C.3       1 <0>         0.1019
      22  N2          3.1990   35.8020   58.1440  N.2       1 <0>        -0.4545
      23  C18         2.0460   35.5590   58.6700  C.2       1 <0>         0.0928
      24  C19         2.1800   34.5280   59.7120  C.2       1 <0>         0.0861
      25  N3          3.4130   34.1590   59.8040  N.2       1 <0>        -0.4454
@<TRIPOS>BOND
     1     1     6 ar
     2     1     2 ar
     3     2     3 ar
     4     3     4 ar
     5     4    11 1
     6     4     5 ar
     7     5     6 ar
     8     5     7 1
     9     7     8 1
    10     7    20 1
    11     8     9 1
    12     9    10 1
    13    10    11 1
    14    10    12 1
    15    12    17 ar
    16    12    13 ar
    17    13    14 ar
    18    14    15 ar
    19    15    16 ar
    20    15    19 1
    21    16    17 ar
    22    16    18 1
    23    20    21 1
    24    21    25 1
    25    21    22 1
    26    22    23 2
    27    23    24 1
    28    24    25 2

@<TRIPOS>MOLECULE
ZINC07115601_replica-1.pdb
 31 34 0 0 0
SMALL
GASTEIGER

@<TRIPOS>ATOM
       1  C1          3.1040   34.1400   58.5790  C.3       1 <0>         0.0978
       2  N1          1.6640   33.8710   58.6070  N.pl3     1 <0>        -0.6132
       3  C2          0.8630   34.0490   57.3930  C.3       1 <0>         0.1059
       4  C3          0.8240   32.7540   56.6230  C.2       1 <0>         0.4864
       5  O1          1.7760   32.0030   56.6520  O.2       1 <0>        -0.5234
       6  N2         -0.2680   32.4310   55.9030  N.am      1 <0>        -0.7265
       7  C4         -0.3060   31.1730   55.1530  C.3       1 <0>         0.1335
       8  C5         -1.7270   30.6090   55.1740  C.3       1 <0>         0.0241
       9  C6         -1.8320   29.5490   56.2400  C.ar      1 <0>        -0.1074
      10  C7         -0.7640   29.3120   57.0850  C.ar      1 <0>        -0.0738
      11  C8         -0.8570   28.3420   58.0630  C.ar      1 <0>        -0.1485
      12  C9         -2.0250   27.6040   58.1970  C.ar      1 <0>         0.1270
      13  C10        -3.0940   27.8430   57.3490  C.ar      1 <0>        -0.2046
      14  C11        -2.9980   28.8190   56.3750  C.ar      1 <0>        -0.0686
      15  O2         -2.1180   26.6470   59.1580  O.3       1 <0>        -0.3181
      16  C12        -2.8980   26.9620   60.3130  C.3       1 <0>         0.0266
      17  C13        -2.0480   30.0040   53.8320  C.2       1 <0>        -0.1644
      18  C14        -2.9140   30.4850   52.9260  C.2       1 <0>         0.0626
      19  N3         -2.9420   29.6690   51.8280  N.pl3     1 <0>        -0.5928
      20  C15        -2.0710   28.6180   52.0040  C.ar      1 <0>         0.0970
      21  C16        -1.4690   28.7840   53.2650  C.ar      1 <0>        -0.0982
      22  C17        -0.5250   27.8590   53.7130  C.ar      1 <0>        -0.0748
      23  C18        -0.1900   26.7940   52.9240  C.ar      1 <0>        -0.1432
      24  C19        -0.7780   26.6270   51.6790  C.ar      1 <0>        -0.0983
      25  C20        -1.7190   27.5240   51.2190  C.ar      1 <0>        -0.1291
      26  C21         1.0550   33.4460   59.7890  C.ar      1 <0>         0.2212
      27  C22         0.3690   34.3540   60.5850  C.ar      1 <0>        -0.1949
      28  C23        -0.2330   33.9310   61.7530  C.ar      1 <0>        -0.0729
      29  C24        -0.1520   32.6030   62.1320  C.ar      1 <0>        -0.1783
      30  C25         0.5310   31.6960   61.3430  C.ar      1 <0>        -0.0732
      31  C26         1.1300   32.1120   60.1700  C.ar      1 <0>        -0.1931
@<TRIPOS>BOND
     1     1     2 1
     2     2     3 1
     3     2    26 1
     4     3     4 1
     5     4     5 2
     6     4     6 am
     7     6     7 1
     8     7     8 1
     9     8     9 1
    10     8    17 1
    11     9    14 ar
    12     9    10 ar
    13    10    11 ar
    14    11    12 ar
    15    12    13 ar
    16    12    15 1
    17    13    14 ar
    18    15    16 1
    19    17    21 1
    20    17    18 2
    21    18    19 1
    22    19    20 1
    23    20    25 ar
    24    20    21 ar
    25    21    22 ar
    26    22    23 ar
    27    23    24 ar
    28    24    25 ar
    29    26    31 ar
    30    26    27 ar
    31    27    28 ar
    32    28    29 ar
    33    29    30 ar
    34    30    31 ar

@<TRIPOS>MOLECULE
ZINC10088771_replica-1.pdb
 25 26 0 0 0
SMALL
GASTEIGER

@<TRIPOS>ATOM
       1  C1          7.6050   36.6660   55.5940  C.3       1 <0>        -0.1679
       2  C2          6.5550   36.4940   56.6950  C.3       1 <0>         0.0726
       3  C3          6.5840   35.0740   57.1970  C.2       1 <0>         0.5176
       4  O1          5.7850   34.7110   58.0350  O.2       1 <0>        -0.4938
       5  N1          7.4950   34.2070   56.7150  N.am      1 <0>        -0.6687
       6  C4          7.5850   32.9160   57.2490  C.ar      1 <0>         0.1402
       7  C5          8.4330   32.6640   58.3190  C.ar      1 <0>        -0.1422
       8  C6          8.5190   31.3890   58.8440  C.ar      1 <0>        -0.1019
       9  C7          7.7610   30.3650   58.3050  C.ar      1 <0>        -0.1316
      10  C8          6.9160   30.6130   57.2390  C.ar      1 <0>        -0.1016
      11  C9          6.8220   31.8870   56.7130  C.ar      1 <0>        -0.1205
      12  O2          6.8460   37.3870   57.7730  O.3       1 <0>        -0.3197
      13  C10         8.1350   37.7510   57.9360  C.2       1 <0>         0.5020
      14  O3          8.5410   38.7860   57.4420  O.2       1 <0>        -0.5101
      15  C11         9.0430   36.9020   58.7040  C.2       1 <0>        -0.2011
      16  C12         9.2770   37.1670   60.0050  C.2       1 <0>         0.0074
      17  C13        10.1920   36.3120   60.7790  C.ar      1 <0>        -0.0930
      18  C14        10.7850   36.7960   61.9490  C.ar      1 <0>        -0.0900
      19  C15        11.6410   35.9890   62.6680  C.ar      1 <0>        -0.1217
      20  C16        11.9150   34.7040   62.2350  C.ar      1 <0>        -0.0554
      21  C17        11.3310   34.2180   61.0780  C.ar      1 <0>        -0.1198
      22  C18        10.4680   35.0100   60.3500  C.ar      1 <0>        -0.0845
      23  C19        12.8530   33.8290   63.0260  C.3       1 <0>        -0.0621
      24  C20        12.3280   32.3920   63.0290  C.3       1 <0>        -0.1457
      25  C21        14.2420   33.8630   62.3880  C.3       1 <0>        -0.1458
@<TRIPOS>BOND
     1     1     2 1
     2     2     3 1
     3     2    12 1
     4     3     4 2
     5     3     5 am
     6     5     6 1
     7     6    11 ar
     8     6     7 ar
     9     7     8 ar
    10     8     9 ar
    11     9    10 ar
    12    10    11 ar
    13    12    13 1
    14    13    14 2
    15    13    15 1
    16    15    16 2
    17    16    17 1
    18    17    22 ar
    19    17    18 ar
    20    18    19 ar
    21    19    20 ar
    22    20    21 ar
    23    20    23 1
    24    21    22 ar
    25    23    24 1
    26    23    25 1

@<TRIPOS>MOLECULE
ZINC06838916_replica-1.pdb
 30 33 0 0 0
SMALL
GASTEIGER

@<TRIPOS>ATOM
       1  C1         -1.2870   25.4940   51.1060  C.3       1 <0>        -0.1471
       2  C2         -1.0090   26.9410   51.5160  C.3       1 <0>        -0.0833
       3  C3         -0.4990   26.9720   52.9340  C.ar      1 <0>        -0.0920
       4  C4          0.1660   25.8840   53.4550  C.ar      1 <0>        -0.0989
       5  C5          0.6410   25.9020   54.7590  C.ar      1 <0>        -0.1408
       6  C6          0.4550   27.0000   55.5510  C.ar      1 <0>        -0.0753
       7  C7         -0.2160   28.1140   55.0440  C.ar      1 <0>        -0.0941
       8  C8         -0.6990   28.1010   53.7230  C.ar      1 <0>         0.1029
       9  N1         -1.3090   29.3160   53.5010  N.pl3     1 <0>        -0.5912
      10  C9         -1.2350   30.0860   54.6300  C.2       1 <0>         0.0578
      11  C10        -0.5820   29.4210   55.5960  C.2       1 <0>        -0.1625
      12  C11        -0.2860   29.9200   56.9870  C.3       1 <0>         0.0503
      13  C12        -0.7470   31.3740   57.1150  C.3       1 <0>        -0.1319
      14  C13         0.2930   32.1680   57.8620  C.2       1 <0>         0.5120
      15  O1          1.3620   31.6610   58.1330  O.2       1 <0>        -0.5264
      16  N2          0.0360   33.4380   58.2300  N.am      1 <0>        -0.7285
      17  C14         1.0480   34.2090   58.9570  C.3       1 <0>         0.1469
      18  C15         0.6160   34.3700   60.4160  C.3       1 <0>        -0.1656
      19  C16         1.1980   35.5890   58.3140  C.3       1 <0>        -0.1032
      20  C17         2.6810   35.9600   58.2410  C.3       1 <0>        -0.1486
      21  C18         0.6090   35.5600   56.9020  C.3       1 <0>        -0.1477
      22  C19        -1.0190   29.0700   57.9920  C.ar      1 <0>        -0.0471
      23  C20        -2.1010   28.3080   57.5930  C.ar      1 <0>        -0.1151
      24  C21        -2.7770   27.5270   58.5120  C.ar      1 <0>        -0.1011
      25  C22        -2.3700   27.5060   59.8360  C.ar      1 <0>         0.0245
      26  C23        -1.2800   28.2740   60.2380  C.ar      1 <0>         0.0334
      27  C24        -0.6050   29.0510   59.3100  C.ar      1 <0>        -0.0650
      28  O2         -1.0820   28.0820   61.5750  O.3       1 <0>        -0.3088
      29  C25        -1.8020   26.8800   61.9020  C.3       1 <0>         0.2131
      30  O3         -2.8540   26.8340   60.9210  O.3       1 <0>        -0.3115
@<TRIPOS>BOND
     1     1     2 1
     2     2     3 1
     3     3     8 ar
     4     3     4 ar
     5     4     5 ar
     6     5     6 ar
     7     6     7 ar
     8     7    11 1
     9     7     8 ar
    10     8     9 1
    11     9    10 1
    12    10    11 2
    13    11    12 1
    14    12    13 1
    15    12    22 1
    16    13    14 1
    17    14    15 2
    18    14    16 am
    19    16    17 1
    20    17    18 1
    21    17    19 1
    22    19    20 1
    23    19    21 1
    24    22    27 ar
    25    22    23 ar
    26    23    24 ar
    27    24    25 ar
    28    25    30 1
    29    25    26 ar
    30    26    27 ar
    31    26    28 1
    32    28    29 1
    33    29    30 1

@<TRIPOS>MOLECULE
ZINC35560046_replica-1.pdb
 27 30 0 0 0
SMALL
GASTEIGER

@<TRIPOS>ATOM
       1  C1         -2.5480   28.2140   62.5370  C.3       1 <0>        -0.1477
       2  C2         -2.4870   27.6700   61.1080  C.3       1 <0>        -0.0827
       3  C3         -1.4830   28.4610   60.3110  C.ar      1 <0>        -0.0922
       4  C4         -0.4400   29.0980   60.9510  C.ar      1 <0>        -0.0995
       5  C5          0.4910   29.8310   60.2280  C.ar      1 <0>        -0.1413
       6  C6          0.3910   29.9340   58.8690  C.ar      1 <0>        -0.0754
       7  C7         -0.6570   29.2980   58.2010  C.ar      1 <0>        -0.0944
       8  C8         -1.6020   28.5490   58.9280  C.ar      1 <0>         0.1028
       9  N1         -2.5020   28.0390   58.0200  N.pl3     1 <0>        -0.5919
      10  C9         -2.1580   28.4320   56.7540  C.2       1 <0>         0.0578
      11  C10        -1.0580   29.1990   56.7960  C.2       1 <0>        -0.1591
      12  C11        -0.3600   29.8300   55.6190  C.3       1 <0>         0.0405
      13  C12        -0.7780   31.2980   55.5040  C.3       1 <0>        -0.1320
      14  C13         0.3270   32.1770   56.0300  C.2       1 <0>         0.5160
      15  O1          1.4750   31.7820   56.0170  O.2       1 <0>        -0.5206
      16  N2          0.0410   33.4010   56.5150  N.am      1 <0>        -0.7074
      17  C14         1.1160   34.2560   57.0260  C.3       1 <0>         0.0813
      18  C15         0.8370   35.0570   58.3000  C.3       1 <0>        -0.1939
      19  C16         0.9120   35.7700   56.9480  C.3       1 <0>        -0.1905
      20  C17        -0.7430   29.0990   54.3580  C.ar      1 <0>        -0.0612
      21  C18        -1.6660   29.6540   53.4900  C.ar      1 <0>        -0.1170
      22  C19        -2.0170   28.9820   52.3340  C.ar      1 <0>        -0.1283
      23  C20        -1.4450   27.7570   52.0450  C.ar      1 <0>        -0.0877
      24  C21        -0.5220   27.2040   52.9120  C.ar      1 <0>        -0.1213
      25  C22        -0.1670   27.8760   54.0660  C.ar      1 <0>        -0.0496
      26  C23         0.8420   27.2750   55.0090  C.3       1 <0>        -0.1159
      27  C24        -1.8290   27.0260   50.7840  C.3       1 <0>        -0.1140
@<TRIPOS>BOND
     1     1     2 1
     2     2     3 1
     3     3     8 ar
     4     3     4 ar
     5     4     5 ar
     6     5     6 ar
     7     6     7 ar
     8     7    11 1
     9     7     8 ar
    10     8     9 1
    11     9    10 1
    12    10    11 2
    13    11    12 1
    14    12    13 1
    15    12    20 1
    16    13    14 1
    17    14    15 2
    18    14    16 am
    19    16    17 1
    20    17    19 1
    21    17    18 1
    22    18    19 1
    23    20    25 ar
    24    20    21 ar
    25    21    22 ar
    26    22    23 ar
    27    23    24 ar
    28    23    27 1
    29    24    25 ar
    30    25    26 1

@<TRIPOS>MOLECULE
ZINC44389329_replica-1.pdb
 21 22 0 0 0
SMALL
GASTEIGER

@<TRIPOS>ATOM
       1  C1         14.0480   31.9940   63.7590  C.3       1 <0>        -0.1448
       2  C2         12.7780   31.7190   62.9510  C.3       1 <0>        -0.0591
       3  C3         11.7870   30.9310   63.8100  C.3       1 <0>        -0.1447
       4  C4         12.1540   33.0260   62.5350  C.ar      1 <0>        -0.0725
       5  C5         12.7340   34.2210   62.9160  C.ar      1 <0>        -0.1149
       6  C6         12.1610   35.4200   62.5350  C.ar      1 <0>        -0.1107
       7  C7         11.0100   35.4240   61.7700  C.ar      1 <0>        -0.0907
       8  C8         10.4310   34.2290   61.3880  C.ar      1 <0>        -0.0933
       9  C9         11.0050   33.0290   61.7660  C.ar      1 <0>        -0.1193
      10  C10        10.3850   36.7310   61.3550  C.3       1 <0>         0.0995
      11  N1          9.0090   36.7980   61.8650  N.3       1 <0>        -0.6795
      12  C11         8.0420   36.8790   60.7620  C.3       1 <0>         0.0321
      13  C12         8.5720   37.8340   59.6890  C.3       1 <0>         0.1505
      14  C13         8.4390   37.1890   58.3330  C.ar      1 <0>        -0.0888
      15  C14         8.8130   35.8700   58.1560  C.ar      1 <0>        -0.1238
      16  C15         8.6910   35.2780   56.9130  C.ar      1 <0>        -0.0852
      17  C16         8.1940   36.0030   55.8460  C.ar      1 <0>        -0.1529
      18  C17         7.8190   37.3240   56.0240  C.ar      1 <0>         0.1032
      19  C18         7.9360   37.9150   57.2710  C.ar      1 <0>        -0.1430
      20  F1          7.3330   38.0340   54.9810  F         1 <0>        -0.1369
      21  O1          7.8170   39.0470   59.7160  O.3       1 <0>        -0.5478
@<TRIPOS>BOND
     1     1     2 1
     2     2     3 1
     3     2     4 1
     4     4     9 ar
     5     4     5 ar
     6     5     6 ar
     7     6     7 ar
     8     7     8 ar
     9     7    10 1
    10     8     9 ar
    11    10    11 1
    12    11    12 1
    13    12    13 1
    14    13    14 1
    15    13    21 1
    16    14    19 ar
    17    14    15 ar
    18    15    16 ar
    19    16    17 ar
    20    17    18 ar
    21    18    19 ar
    22    18    20 1

@<TRIPOS>MOLECULE
ZINC59367357_replica-1.pdb
 32 35 0 0 0
SMALL
GASTEIGER

@<TRIPOS>ATOM
       1  C1          1.8500   34.5320   59.5500  C.3       1 <0>         0.0259
       2  O1          2.7700   33.9690   60.4880  O.3       1 <0>        -0.3156
       3  C2          4.0680   33.8740   60.0970  C.ar      1 <0>         0.1383
       4  C3          4.3910   33.2340   58.9100  C.ar      1 <0>        -0.2100
       5  C4          5.7130   33.1400   58.5150  C.ar      1 <0>        -0.0606
       6  C5          6.7110   33.6810   59.3030  C.ar      1 <0>        -0.1537
       7  C6          6.3920   34.3190   60.4880  C.ar      1 <0>        -0.0493
       8  C7          5.0710   34.4210   60.8840  C.ar      1 <0>        -0.1503
       9  C8          8.1500   33.5760   58.8700  C.3       1 <0>         0.1767
      10  C9          8.9830   32.8290   59.9320  C.3       1 <0>        -0.1187
      11  C10        10.0100   33.8470   60.3720  C.2       1 <0>         0.1198
      12  N1          9.8320   34.9470   59.7230  N.2       1 <0>        -0.2177
      13  N2          8.7730   34.9080   58.8140  N.pl3     1 <0>        -0.5009
      14  C11         8.3680   35.9610   57.9860  C.ar      1 <0>         0.1769
      15  C12         8.2830   35.7720   56.6110  C.ar      1 <0>         0.1309
      16  C13         7.8820   36.8160   55.7940  C.ar      1 <0>         0.0596
      17  C14         7.5670   38.0480   56.3450  C.ar      1 <0>         0.1009
      18  C15         7.6510   38.2380   57.7160  C.ar      1 <0>         0.0597
      19  C16         8.0460   37.1960   58.5370  C.ar      1 <0>         0.1257
      20  F1          8.1220   37.3810   59.8740  F         1 <0>        -0.0944
      21  F2          7.3430   39.4400   58.2500  F         1 <0>        -0.0969
      22  F3          7.1770   39.0650   55.5450  F         1 <0>        -0.0929
      23  F4          7.8000   36.6330   54.4570  F         1 <0>        -0.0966
      24  F5          8.5920   34.5730   56.0730  F         1 <0>        -0.0898
      25  C17        11.0550   33.6180   61.3860  C.ar      1 <0>        -0.0659
      26  C18        10.9870   32.4990   62.2220  C.ar      1 <0>        -0.0506
      27  C19        11.9660   32.2890   63.1680  C.ar      1 <0>        -0.1522
      28  C20        13.0200   33.1860   63.2930  C.ar      1 <0>         0.1433
      29  C21        13.0900   34.2980   62.4660  C.ar      1 <0>        -0.2106
      30  C22        12.1190   34.5140   61.5120  C.ar      1 <0>        -0.0413
      31  O2         13.9820   32.9730   64.2280  O.3       1 <0>        -0.3151
      32  C23        15.2010   33.7060   64.0820  C.3       1 <0>         0.0248
@<TRIPOS>BOND
     1     1     2 1
     2     2     3 1
     3     3     8 ar
     4     3     4 ar
     5     4     5 ar
     6     5     6 ar
     7     6     7 ar
     8     6     9 1
     9     7     8 ar
    10     9    13 1
    11     9    10 1
    12    10    11 1
    13    11    12 2
    14    11    25 1
    15    12    13 1
    16    13    14 1
    17    14    19 ar
    18    14    15 ar
    19    15    16 ar
    20    15    24 1
    21    16    17 ar
    22    16    23 1
    23    17    18 ar
    24    17    22 1
    25    18    19 ar
    26    18    21 1
    27    19    20 1
    28    25    30 ar
    29    25    26 ar
    30    26    27 ar
    31    27    28 ar
    32    28    29 ar
    33    28    31 1
    34    29    30 ar
    35    31    32 1

@<TRIPOS>MOLECULE
ZINC03457810_replica-1.pdb
 28 30 0 0 0
SMALL
GASTEIGER

@<TRIPOS>ATOM
       1  C1          4.7890   36.2840   58.2470  C.3       1 <0>        -0.1463
       2  C2          4.2280   35.1650   57.3670  C.3       1 <0>        -0.1115
       3  C3          3.4790   35.7660   56.2050  C.2       1 <0>         0.5413
       4  O1          3.9870   36.6520   55.5500  O.2       1 <0>        -0.5260
       5  N1          2.2460   35.3190   55.8960  N.am      1 <0>        -0.8430
       6  S1          5.5900   34.1480   56.7440  S.3       1 <0>         0.0734
       7  C4          6.4260   33.7970   58.2550  C.2       1 <0>         0.1490
       8  N2          5.9030   33.2390   59.3240  N.2       1 <0>        -0.2886
       9  N3          6.7920   33.1320   60.2460  N.2       1 <0>        -0.2670
      10  C5          7.9370   33.6140   59.8220  C.2       1 <0>         0.2327
      11  N4          7.7390   34.0490   58.5330  N.pl3     1 <0>        -0.4491
      12  C6          8.7300   34.6610   57.6420  C.3       1 <0>         0.1382
      13  C7          8.4890   36.1460   57.5680  C.ar      1 <0>        -0.1234
      14  C8          8.1650   36.7340   56.3590  C.ar      1 <0>        -0.0932
      15  C9          7.9400   38.0960   56.2920  C.ar      1 <0>        -0.1206
      16  C10         8.0490   38.8720   57.4310  C.ar      1 <0>        -0.1040
      17  C11         8.3780   38.2840   58.6380  C.ar      1 <0>        -0.1200
      18  C12         8.5990   36.9220   58.7060  C.ar      1 <0>        -0.0935
      19  C13         9.2020   33.6720   60.5860  C.ar      1 <0>        -0.0195
      20  C14         9.9330   34.8600   60.6410  C.ar      1 <0>        -0.1071
      21  C15        11.1100   34.9090   61.3590  C.ar      1 <0>        -0.1177
      22  C16        11.5710   33.7810   62.0140  C.ar      1 <0>        -0.0515
      23  C17        10.8550   32.5980   61.9590  C.ar      1 <0>        -0.1107
      24  C18         9.6740   32.5380   61.2480  C.ar      1 <0>        -0.0695
      25  C19        12.8610   33.8400   62.7920  C.3       1 <0>        -0.0324
      26  C20        12.7450   34.8920   63.8950  C.3       1 <0>        -0.1399
      27  C21        13.1400   32.4710   63.4180  C.3       1 <0>        -0.1468
      28  C22        14.0090   34.2120   61.8500  C.3       1 <0>        -0.1407
@<TRIPOS>BOND
     1     1     2 1
     2     2     3 1
     3     2     6 1
     4     3     4 2
     5     3     5 am
     6     6     7 1
     7     7    11 1
     8     7     8 2
     9     8     9 1
    10     9    10 2
    11    10    11 1
    12    10    19 1
    13    11    12 1
    14    12    13 1
    15    13    18 ar
    16    13    14 ar
    17    14    15 ar
    18    15    16 ar
    19    16    17 ar
    20    17    18 ar
    21    19    24 ar
    22    19    20 ar
    23    20    21 ar
    24    21    22 ar
    25    22    23 ar
    26    22    25 1
    27    23    24 ar
    28    25    26 1
    29    25    27 1
    30    25    28 1

@<TRIPOS>MOLECULE
ZINC37856853_replica-1.pdb
 23 24 0 0 0
SMALL
GASTEIGER

@<TRIPOS>ATOM
      1  C9        -0.1620   30.9640   55.9430 C.3     0  <0>0        0.1735
      2  C8        -1.3080   30.1370   55.3580 C.3     0  <0>0        0.1206
      3  N1        -1.1240   30.0020   53.9100 N.pl3   0  <0>0       -0.3306
      4  H9        -1.1040   30.7930   53.3490 H       0  <0>0        0.1469
      5  C5        -0.9790   28.7360   53.3400 C.ar    0  <0>0        0.0447
      6  C4        -1.5820   28.4480   52.1210 C.ar    0  <0>0        0.0140
      7  C3        -1.4360   27.1950   51.5600 C.ar    0  <0>0       -0.0030
      8  C2        -0.6890   26.2280   52.2070 C.ar    0  <0>0       -0.0218
      9  C1        -0.5310   24.8620   51.5900 C.3     0  <0>0        0.0310
     10  C7        -0.0910   26.5090   53.4220 C.ar    0  <0>0       -0.0030
     11  C6        -0.2290   27.7620   53.9870 C.ar    0  <0>0        0.0140
     12  C10       -0.2530   30.9530   57.4700 C.3     0  <0>0        0.2362
     13  O1         0.8730   31.6410   58.0200 O.3     0  <0>0       -0.4711
     14  C11        0.7170   32.1920   59.2520 C.ar    0  <0>0        0.1595
     15  C16        0.8190   31.3990   60.3860 C.ar    0  <0>0        0.0924
     16  C15        0.6670   31.9640   61.6400 C.ar    0  <0>0        0.0145
     17 Cl          1.1420   29.7000   60.2330 Cl      0  <0>0       -0.0791
     18  C14        0.4020   33.3150   61.7620 C.ar    0  <0>0        0.0019
     19  C13        0.2950   34.1070   60.6340 C.ar    0  <0>0        0.0145
     20  C12        0.4530   33.5480   59.3800 C.ar    0  <0>0        0.0924
     21 Cl          0.3190   34.5430   57.9620 Cl      0  <0>0       -0.0791
     22  O2        -0.2540   32.3090   55.4700 O.3     0  <0>0       -0.3791
     23  H17        0.5660   32.6470   55.0860 H       0  <0>0        0.2106
@<TRIPOS>BOND
     1     7     6   ar
     2     7     8   ar
     3     9     8    1
     4     6     5   ar
     5     8    10   ar
     6     5     3    1
     7     5    11   ar
     8     4     3    1
     9    10    11   ar
    10     3     2    1
    11    23    22    1
    12     2     1    1
    13    22     1    1
    14     1    12    1
    15    12    13    1
    16    21    20    1
    17    13    14    1
    18    14    20   ar
    19    14    15   ar
    20    20    19   ar
    21    17    15    1
    22    15    16   ar
    23    19    18   ar
    24    16    18   ar


@<TRIPOS>MOLECULE
ZINC20554482_replica-1.pdb
 22 23 0 0 0
SMALL
GASTEIGER

@<TRIPOS>ATOM
      1  C4         9.6300   34.5510   59.4080 C.3     0  <0>0        0.0919
      2  C3         8.6840   33.4500   58.9250 C.3     0  <0>0        0.0241
      3  C2         7.5510   33.2690   59.9360 C.3     0  <0>0        0.0020
      4  C1         6.2200   33.6460   59.2840 C.3     0  <0>0        0.0001
      5  C5         9.1450   35.8860   58.9040 C.ar    0  <0>0       -0.0029
      6  C10        8.6780   36.0070   57.6090 C.ar    0  <0>0        0.0214
      7  C9         8.2340   37.2320   57.1470 C.ar    0  <0>0        0.1426
      8  C8         8.2560   38.3360   57.9810 C.ar    0  <0>0        0.0241
      9  C7         8.7280   38.2140   59.2740 C.ar    0  <0>0        0.0014
     10  C6         9.1680   36.9890   59.7380 C.ar    0  <0>0       -0.0026
     11  N1         7.7350   37.3630   55.7600 N.pl3   0  <0>0        0.0577
     12  O1         7.8960   36.4540   54.9660 O.2     0  <0>0       -0.1261
     13  O2         7.1630   38.3810   55.4120 O.2     0  <0>0       -0.1261
     14  N2         9.6570   34.5630   60.8730 N.pl3   0  <0>0       -0.3306
     15  H13        8.8130   34.9890   61.4350 H       0  <0>0        0.1471
     16  C11       10.7550   34.0320   61.5560 C.ar    0  <0>0        0.0449
     17  C16       10.7030   32.7390   62.0590 C.ar    0  <0>0        0.0148
     18  C15       11.7900   32.2180   62.7340 C.ar    0  <0>0        0.0080
     19  C14       12.9290   32.9830   62.9100 C.ar    0  <0>0        0.0346
     20  C13       12.9820   34.2720   62.4100 C.ar    0  <0>0        0.0080
     21 Br         14.4140   32.2660   63.8340 Br      0  <0>0       -0.0490
     22  C12       11.9010   34.7970   61.7290 C.ar    0  <0>0        0.0148
@<TRIPOS>BOND
     1    12    11    2
     2    13    11    2
     3    11     7    1
     4     7     6   ar
     5     7     8   ar
     6     6     5   ar
     7     8     9   ar
     8     5     1    1
     9     5    10   ar
    10     2     1    1
    11     2     3    1
    12     9    10   ar
    13     4     3    1
    14     1    14    1
    15    14    15    1
    16    14    16    1
    17    16    22   ar
    18    16    17   ar
    19    22    20   ar
    20    17    18   ar
    21    20    19   ar
    22    18    19   ar
    23    19    21    1


@<TRIPOS>MOLECULE
ZINC06054778_replica-1.pdb
 27 29 0 0 0
SMALL
GASTEIGER

@<TRIPOS>ATOM
       1  C1          6.1310   31.3870   57.1830  C.3       1 <0>        -0.1089
       2  C2          5.9620   32.6800   57.9370  C.2       1 <0>         0.1467
       3  C3          5.3350   33.8080   57.4490  C.2       1 <0>        -0.2712
       4  C4          5.4150   34.8190   58.5220  C.ar      1 <0>        -0.0608
       5  C5          4.9700   36.1310   58.6470  C.ar      1 <0>        -0.0815
       6  C6          5.2010   36.8210   59.8180  C.ar      1 <0>        -0.1300
       7  C7          5.8700   36.2110   60.8680  C.ar      1 <0>        -0.1008
       8  C8          6.3110   34.9100   60.7590  C.ar      1 <0>        -0.1193
       9  C9          6.0860   34.1970   59.5850  C.ar      1 <0>         0.0871
      10  N1          6.4000   32.9130   59.1880  N.pl3     1 <0>        -0.5710
      11  C10         4.7410   33.9660   56.1730  C.2       1 <0>         0.4465
      12  O1          3.7360   33.3470   55.8910  O.2       1 <0>        -0.4178
      13  C11         5.3570   34.9030   55.1650  C.3       1 <0>         0.0590
      14  C12         4.7130   34.6740   53.7960  C.3       1 <0>        -0.1640
      15  O2          6.7610   34.6520   55.0780  O.3       1 <0>        -0.3317
      16  C13         7.5860   35.6330   55.4990  C.2       1 <0>         0.5032
      17  O3          7.6770   36.6660   54.8630  O.2       1 <0>        -0.5154
      18  C14         8.3480   35.4610   56.6820  C.2       1 <0>        -0.2228
      19  C15         8.3550   36.4250   57.6280  C.2       1 <0>         0.0260
      20  C16         9.1390   36.2430   58.8570  C.ar      1 <0>        -0.1314
      21  C17         9.8380   35.0510   59.0740  C.ar      1 <0>        -0.0485
      22  C18        10.5760   34.8870   60.2250  C.ar      1 <0>        -0.2143
      23  C19        10.6180   35.9010   61.1760  C.ar      1 <0>         0.1499
      24  C20         9.9210   37.0850   60.9680  C.ar      1 <0>        -0.1578
      25  C21         9.1850   37.2600   59.8180  C.ar      1 <0>        -0.0445
      26  O4         11.3430   35.7330   62.3110  O.3       1 <0>        -0.3131
      27  C22        12.3520   34.7220   62.2930  C.3       1 <0>         0.0239
@<TRIPOS>BOND
     1     1     2 1
     2     2    10 1
     3     2     3 2
     4     3     4 1
     5     3    11 1
     6     4     9 ar
     7     4     5 ar
     8     5     6 ar
     9     6     7 ar
    10     7     8 ar
    11     8     9 ar
    12     9    10 1
    13    11    12 2
    14    11    13 1
    15    13    14 1
    16    13    15 1
    17    15    16 1
    18    16    17 2
    19    16    18 1
    20    18    19 2
    21    19    20 1
    22    20    25 ar
    23    20    21 ar
    24    21    22 ar
    25    22    23 ar
    26    23    24 ar
    27    23    26 1
    28    24    25 ar
    29    26    27 1

@<TRIPOS>MOLECULE
ZINC21050735_replica-1.pdb
 20 21 0 0 0
SMALL
GASTEIGER

@<TRIPOS>ATOM
       1  C1         -3.0150   30.6950   54.4990  C.3       1 <0>        -0.1566
       2  C2         -1.6690   30.4550   53.8110  C.3       1 <0>        -0.1305
       3  C3         -0.9010   29.3640   54.5610  C.3       1 <0>         0.1958
       4  C4         -0.7820   28.1420   53.6880  C.ar      1 <0>        -0.0938
       5  C5         -0.0800   27.0380   54.1360  C.ar      1 <0>        -0.1089
       6  C6          0.0260   25.9160   53.3370  C.ar      1 <0>        -0.1169
       7  C7         -0.5600   25.9000   52.0850  C.ar      1 <0>        -0.0841
       8  C8         -1.2570   27.0060   51.6350  C.ar      1 <0>        -0.1159
       9  C9         -1.3680   28.1260   52.4360  C.ar      1 <0>        -0.1057
      10  C10        -0.4410   24.6780   51.2110  C.3       1 <0>        -0.1197
      11  N1          0.4380   29.8550   54.8990  N.pl3     1 <0>        -0.7522
      12  C11         0.6220   30.6610   56.0250  C.ar      1 <0>         0.2289
      13  C12         0.9320   32.0070   55.8740  C.ar      1 <0>        -0.1970
      14  C13         1.1130   32.8010   56.9900  C.ar      1 <0>        -0.0783
      15  C14         0.9860   32.2580   58.2550  C.ar      1 <0>        -0.1796
      16  C15         0.6770   30.9190   58.4080  C.ar      1 <0>        -0.0689
      17  C16         0.4900   30.1190   57.2980  C.ar      1 <0>        -0.1565
      18  C17         0.1490   28.6610   57.4650  C.3       1 <0>        -0.0433
      19  C18         1.2920   27.9500   58.1920  C.3       1 <0>        -0.1446
      20  C19        -1.1360   28.5300   58.2840  C.3       1 <0>        -0.1450
@<TRIPOS>BOND
     1     1     2 1
     2     2     3 1
     3     3     4 1
     4     3    11 1
     5     4     9 ar
     6     4     5 ar
     7     5     6 ar
     8     6     7 ar
     9     7     8 ar
    10     7    10 1
    11     8     9 ar
    12    11    12 1
    13    12    17 ar
    14    12    13 ar
    15    13    14 ar
    16    14    15 ar
    17    15    16 ar
    18    16    17 ar
    19    17    18 1
    20    18    19 1
    21    18    20 1

@<TRIPOS>MOLECULE
ZINC13468963_replica-1.pdb
 26 27 0 0 0
SMALL
GASTEIGER

@<TRIPOS>ATOM
       1  C1          7.2030   36.8690   56.1270  C.3       1 <0>        -0.1410
       2  C2          8.2330   37.1640   57.2200  C.3       1 <0>        -0.0970
       3  C3          8.5570   38.6590   57.2250  C.3       1 <0>        -0.1462
       4  C4          7.6630   36.7610   58.5810  C.3       1 <0>         0.1901
       5  C5          8.7890   36.3790   59.5050  C.ar      1 <0>        -0.0892
       6  C6          9.0640   37.1540   60.6170  C.ar      1 <0>        -0.0858
       7  C7         10.0950   36.8000   61.4680  C.ar      1 <0>        -0.1496
       8  C8         10.8590   35.6770   61.2010  C.ar      1 <0>         0.0924
       9  C9         10.5850   34.9050   60.0840  C.ar      1 <0>        -0.1495
      10  C10         9.5510   35.2560   59.2380  C.ar      1 <0>        -0.0765
      11  F1         11.8680   35.3340   62.0290  F         1 <0>        -0.1424
      12  N1          6.7600   35.6190   58.4140  N.am      1 <0>        -0.7375
      13  C11         5.7660   35.4110   59.2990  C.2       1 <0>         0.5121
      14  O1          5.6170   36.1690   60.2350  O.2       1 <0>        -0.4903
      15  C12         4.8370   34.2370   59.1270  C.3       1 <0>        -0.1153
      16  C13         3.6570   34.6440   58.2430  C.3       1 <0>        -0.0588
      17  C14         3.2050   36.0570   58.6140  C.3       1 <0>        -0.1258
      18  C15         4.0800   34.6160   56.7960  C.ar      1 <0>        -0.0231
      19  C16         4.9050   33.6060   56.3370  C.ar      1 <0>        -0.1104
      20  C17         5.2880   33.5770   55.0090  C.ar      1 <0>        -0.1198
      21  C18         4.8510   34.5610   54.1430  C.ar      1 <0>        -0.1424
      22  C19         4.0310   35.5730   54.6030  C.ar      1 <0>        -0.1227
      23  C20         3.6480   35.6030   55.9310  C.ar      1 <0>        -0.1278
      24  C21         2.5160   33.6820   58.4520  C.2       1 <0>         0.4885
      25  O2          1.3890   34.0100   58.1720  O.co2     1 <0>        -0.6171
      26  O3          2.7540   32.4580   58.9500  O.co2     1 <0>        -0.7721
@<TRIPOS>BOND
     1     1     2 1
     2     2     3 1
     3     2     4 1
     4     4     5 1
     5     4    12 1
     6     5    10 ar
     7     5     6 ar
     8     6     7 ar
     9     7     8 ar
    10     8     9 ar
    11     8    11 1
    12     9    10 ar
    13    12    13 am
    14    13    14 2
    15    13    15 1
    16    15    16 1
    17    16    17 1
    18    16    18 1
    19    16    24 1
    20    18    23 ar
    21    18    19 ar
    22    19    20 ar
    23    20    21 ar
    24    21    22 ar
    25    22    23 ar
    26    24    25 2
    27    24    26 1

@<TRIPOS>MOLECULE
ZINC06439426_replica-1.pdb
 31 34 0 0 0
SMALL
GASTEIGER

@<TRIPOS>ATOM
       1  C1          1.1810   35.6330   58.1740  C.3       1 <0>        -0.1473
       2  C2          0.9920   34.1210   58.0350  C.3       1 <0>         0.0282
       3  O1          1.1850   33.7400   56.6710  O.3       1 <0>        -0.1453
       4  N1          0.0720   33.0840   56.0920  N.am      1 <0>        -0.6059
       5  C3          0.1330   31.7670   55.8170  C.2       1 <0>         0.5199
       6  O2          1.1430   31.1420   56.0640  O.2       1 <0>        -0.4958
       7  C4         -1.0500   31.0700   55.1950  C.3       1 <0>        -0.1177
       8  C5         -0.6970   29.6070   54.9260  C.3       1 <0>         0.0441
       9  C6         -1.2420   28.7460   56.0360  C.ar      1 <0>        -0.0301
      10  C7         -2.5870   28.8020   56.3570  C.ar      1 <0>        -0.1539
      11  C8         -3.0910   28.0110   57.3720  C.ar      1 <0>        -0.0759
      12  C9         -2.2500   27.1690   58.0750  C.ar      1 <0>        -0.2128
      13  C10        -0.9010   27.1140   57.7580  C.ar      1 <0>         0.1347
      14  C11        -0.3980   27.9060   56.7360  C.ar      1 <0>        -0.1421
      15  O3         -0.0730   26.2860   58.4480  O.3       1 <0>        -0.3080
      16  C12        -0.5550   24.9690   58.7240  C.3       1 <0>         0.1030
      17  C13        -0.1760   24.0480   57.5930  C.ar      1 <0>        -0.0987
      18  C14         0.2870   24.5730   56.4010  C.ar      1 <0>        -0.0952
      19  C15         0.6390   23.7280   55.3650  C.ar      1 <0>        -0.1227
      20  C16         0.5190   22.3600   55.5170  C.ar      1 <0>        -0.1089
      21  C17         0.0510   21.8360   56.7070  C.ar      1 <0>        -0.1231
      22  C18        -0.2970   22.6790   57.7450  C.ar      1 <0>        -0.0954
      23  C19        -1.3020   29.1770   53.6140  C.2       1 <0>        -0.1449
      24  C20        -2.1360   29.8960   52.8460  C.2       1 <0>         0.0447
      25  N2         -2.4770   29.1800   51.7310  N.pl3     1 <0>        -0.5955
      26  C21        -1.8540   27.9520   51.7550  C.ar      1 <0>         0.0930
      27  C22        -1.0850   27.8990   52.9320  C.ar      1 <0>        -0.0763
      28  C23        -0.3410   26.7550   53.2270  C.ar      1 <0>        -0.0527
      29  C24        -0.3540   25.6970   52.3640  C.ar      1 <0>        -0.1507
      30  C25        -1.1050   25.7460   51.1980  C.ar      1 <0>        -0.0987
      31  C26        -1.8520   26.8620   50.8900  C.ar      1 <0>        -0.1361
@<TRIPOS>BOND
     1     1     2 1
     2     2     3 1
     3     3     4 1
     4     4     5 am
     5     5     6 2
     6     5     7 1
     7     7     8 1
     8     8     9 1
     9     8    23 1
    10     9    14 ar
    11     9    10 ar
    12    10    11 ar
    13    11    12 ar
    14    12    13 ar
    15    13    14 ar
    16    13    15 1
    17    15    16 1
    18    16    17 1
    19    17    22 ar
    20    17    18 ar
    21    18    19 ar
    22    19    20 ar
    23    20    21 ar
    24    21    22 ar
    25    23    27 1
    26    23    24 2
    27    24    25 1
    28    25    26 1
    29    26    31 ar
    30    26    27 ar
    31    27    28 ar
    32    28    29 ar
    33    29    30 ar
    34    30    31 ar

@<TRIPOS>MOLECULE
ZINC66199314_replica-1.pdb
 30 31 0 0 0
SMALL
GASTEIGER

@<TRIPOS>ATOM
       1  C1         -0.5300   26.2130   51.3960  C.3       1 <0>        -0.1175
       2  C2         -0.4450   26.7140   52.8140  C.ar      1 <0>        -0.0505
       3  C3          0.2220   25.9700   53.7710  C.ar      1 <0>        -0.1515
       4  C4          0.3020   26.4270   55.0740  C.ar      1 <0>        -0.0734
       5  C5         -0.2850   27.6290   55.4220  C.ar      1 <0>        -0.1035
       6  C6         -0.9540   28.3760   54.4650  C.ar      1 <0>         0.1301
       7  C7         -1.0270   27.9190   53.1560  C.ar      1 <0>        -0.2085
       8  O1         -1.5300   29.5590   54.8060  O.3       1 <0>        -0.2855
       9  C8         -0.7820   30.7460   54.5380  C.3       1 <0>         0.0527
      10  C9         -0.7550   31.6130   55.7710  C.2       1 <0>         0.5176
      11  O2         -1.4460   31.3300   56.7260  O.2       1 <0>        -0.5111
      12  N1          0.0390   32.7020   55.8120  N.am      1 <0>        -0.5214
      13  N2          0.0630   33.5070   56.9570  N.am      1 <0>        -0.5207
      14  C10         1.2310   33.7530   57.5840  C.2       1 <0>         0.5198
      15  O3          2.2600   33.2770   57.1550  O.2       1 <0>        -0.5236
      16  C11         1.2580   34.6190   58.8170  C.3       1 <0>        -0.0554
      17  C12         2.6840   35.1180   59.0580  C.3       1 <0>        -0.1466
      18  C13         0.7990   33.8150   60.0050  C.ar      1 <0>        -0.0795
      19  C14         0.0730   34.4230   61.0130  C.ar      1 <0>        -0.0804
      20  C15        -0.3480   33.6840   62.1040  C.ar      1 <0>        -0.1189
      21  C16        -0.0430   32.3370   62.1860  C.ar      1 <0>        -0.0717
      22  C17         0.6820   31.7300   61.1780  C.ar      1 <0>        -0.1175
      23  C18         1.0990   32.4680   60.0850  C.ar      1 <0>        -0.1060
      24  C19        -0.5020   31.5330   63.3750  C.3       1 <0>        -0.0794
      25  C20        -0.6480   30.0640   62.9710  C.3       1 <0>        -0.0905
      26  C21        -0.1970   29.1710   64.1290  C.3       1 <0>        -0.1513
      27  C22        -2.1130   29.7700   62.6410  C.3       1 <0>        -0.1491
      28  C23        -0.1970   28.1260   56.8420  C.3       1 <0>        -0.0546
      29  C24        -1.4640   27.7250   57.6020  C.3       1 <0>        -0.1423
      30  C25         1.0240   27.5080   57.5250  C.3       1 <0>        -0.1423
@<TRIPOS>BOND
     1     1     2 1
     2     2     7 ar
     3     2     3 ar
     4     3     4 ar
     5     4     5 ar
     6     5     6 ar
     7     5    28 1
     8     6     7 ar
     9     6     8 1
    10     8     9 1
    11     9    10 1
    12    10    11 2
    13    10    12 am
    14    12    13 1
    15    13    14 am
    16    14    15 2
    17    14    16 1
    18    16    17 1
    19    16    18 1
    20    18    23 ar
    21    18    19 ar
    22    19    20 ar
    23    20    21 ar
    24    21    22 ar
    25    21    24 1
    26    22    23 ar
    27    24    25 1
    28    25    26 1
    29    25    27 1
    30    28    29 1
    31    28    30 1

@<TRIPOS>MOLECULE
ZINC49924741_replica-1.pdb
 23 24 0 0 0
SMALL
GASTEIGER

@<TRIPOS>ATOM
       1  C1          0.4310   35.1710   57.1410  C.3       1 <0>        -0.1082
       2  C2          0.6510   34.1940   58.2670  C.ar      1 <0>        -0.1179
       3  C3          1.1870   34.6270   59.4640  C.ar      1 <0>        -0.1063
       4  C4          1.3900   33.7310   60.4970  C.ar      1 <0>        -0.1379
       5  C5          1.0560   32.3990   60.3370  C.ar      1 <0>        -0.1058
       6  C6          0.5210   31.9590   59.1430  C.ar      1 <0>        -0.1163
       7  C7          0.3110   32.8570   58.1040  C.ar      1 <0>         0.1817
       8  N1         -0.2370   32.4160   56.8970  N.pl3     1 <0>        -0.7743
       9  C8          0.6230   31.7940   55.8870  C.3       1 <0>         0.1314
      10  C9         -0.2410   31.0340   54.8790  C.3       1 <0>        -0.1619
      11  C10        -0.8170   29.7810   55.5430  C.3       1 <0>         0.1551
      12  C11        -0.6910   28.6110   54.6020  C.ar      1 <0>        -0.1074
      13  C12        -0.0240   27.4680   55.0060  C.ar      1 <0>        -0.0708
      14  C13         0.0910   26.3940   54.1440  C.ar      1 <0>        -0.0882
      15  C14        -0.4610   26.4620   52.8790  C.ar      1 <0>        -0.1135
      16  C15        -1.1280   27.6030   52.4760  C.ar      1 <0>        -0.0872
      17  C16        -1.2470   28.6760   53.3380  C.ar      1 <0>        -0.0789
      18  C17        -1.9790   29.9180   52.9010  C.3       1 <0>        -0.1221
      19  C18        -1.7290   27.6760   51.0950  C.3       1 <0>        -0.1164
      20  C19         0.8190   25.1500   54.5840  C.3       1 <0>        -0.1178
      21  C20         0.5780   27.3960   56.3860  C.3       1 <0>        -0.1367
      22  O1         -2.1950   29.9970   55.8540  O.3       1 <0>        -0.5578
      23  C21         0.1570   30.5060   58.9680  C.3       1 <0>        -0.1078
@<TRIPOS>BOND
     1     1     2 1
     2     2     7 ar
     3     2     3 ar
     4     3     4 ar
     5     4     5 ar
     6     5     6 ar
     7     6     7 ar
     8     6    23 1
     9     7     8 1
    10     8     9 1
    11     9    10 1
    12    10    11 1
    13    11    12 1
    14    11    22 1
    15    12    17 ar
    16    12    13 ar
    17    13    14 ar
    18    13    21 1
    19    14    15 ar
    20    14    20 1
    21    15    16 ar
    22    16    17 ar
    23    16    19 1
    24    17    18 1

@<TRIPOS>MOLECULE
ZINC11947025_replica-1.pdb
 24 25 0 0 0
SMALL
GASTEIGER

@<TRIPOS>ATOM
       1  C1          0.7690   25.6020   54.5410  C.3       1 <0>        -0.1154
       2  C2         -0.0780   26.4990   53.6760  C.ar      1 <0>        -0.1070
       3  C3         -0.3930   26.1180   52.3850  C.ar      1 <0>        -0.1153
       4  C4         -1.1690   26.9410   51.5910  C.ar      1 <0>        -0.1174
       5  C5         -1.6330   28.1470   52.0850  C.ar      1 <0>        -0.1171
       6  C6         -1.3220   28.5310   53.3750  C.ar      1 <0>        -0.0738
       7  C7         -0.5470   27.7050   54.1760  C.ar      1 <0>         0.0948
       8  O1         -0.2440   28.0790   55.4470  O.3       1 <0>        -0.3163
       9  C8         -0.8560   27.3390   56.5040  C.3       1 <0>         0.0565
      10  C9         -0.1380   27.6420   57.8210  C.3       1 <0>         0.0599
      11  O2         -0.9020   28.5850   58.5740  O.3       1 <0>        -0.3006
      12  C10        -0.3160   29.7820   58.8420  C.ar      1 <0>         0.1237
      13  C11         0.0950   30.0780   60.1350  C.ar      1 <0>        -0.1918
      14  C12         0.6930   31.2940   60.4140  C.ar      1 <0>        -0.0902
      15  C13         0.8840   32.2200   59.4110  C.ar      1 <0>        -0.1286
      16  C14         0.4740   31.9310   58.1070  C.ar      1 <0>        -0.0766
      17  C15        -0.1230   30.7010   57.8260  C.ar      1 <0>        -0.1205
      18  C16         0.6780   32.9200   57.0300  C.2       1 <0>         0.1514
      19  N1          1.6900   32.8080   56.2320  N.2       1 <0>        -0.3263
      20  O3          2.6770   31.8220   56.4750  O.3       1 <0>        -0.3992
      21  C17        -1.8280   29.8450   53.9120  C.3       1 <0>        -0.0202
      22  C18        -2.6330   29.5990   55.1890  C.3       1 <0>        -0.1461
      23  C19        -0.6400   30.7580   54.2260  C.3       1 <0>        -0.1496
      24  C20        -2.7210   30.5140   52.8660  C.3       1 <0>        -0.1413
@<TRIPOS>BOND
     1     1     2 1
     2     2     7 ar
     3     2     3 ar
     4     3     4 ar
     5     4     5 ar
     6     5     6 ar
     7     6     7 ar
     8     6    21 1
     9     7     8 1
    10     8     9 1
    11     9    10 1
    12    10    11 1
    13    11    12 1
    14    12    17 ar
    15    12    13 ar
    16    13    14 ar
    17    14    15 ar
    18    15    16 ar
    19    16    17 ar
    20    16    18 1
    21    18    19 2
    22    19    20 1
    23    21    22 1
    24    21    23 1
    25    21    24 1

@<TRIPOS>MOLECULE
ZINC32197562_replica-1.pdb
 23 24 0 0 0
SMALL
GASTEIGER

@<TRIPOS>ATOM
      1  N1        10.6410   35.8400   61.1500 N.pl3   0  <0>0       -0.3304
      2  H15       10.9560   36.6550   61.8180 H       0  <0>0        0.1469
      3  C8         9.8750   36.1250   60.0170 C.ar    0  <0>0        0.0447
      4  C7         9.7540   35.1820   59.0030 C.ar    0  <0>0        0.0140
      5  C6         8.9960   35.4670   57.8850 C.ar    0  <0>0       -0.0030
      6  C5         8.3580   36.6880   57.7720 C.ar    0  <0>0       -0.0227
      7  C10        8.4760   37.6290   58.7800 C.ar    0  <0>0       -0.0030
      8  C9         9.2290   37.3500   59.9030 C.ar    0  <0>0        0.0140
      9  C2         7.5320   36.9970   56.5500 C.3     0  <0>0        0.0189
     10  C1         7.5070   38.5090   56.3210 C.3     0  <0>0        0.0044
     11  C3         8.1440   36.3050   55.3320 C.3     0  <0>0        0.0044
     12  C4         6.1030   36.4900   56.7600 C.3     0  <0>0        0.0044
     13  C11       11.0250   34.4590   61.4460 C.3     0  <0>0        0.1213
     14  C12       12.3100   34.4530   62.2760 C.3     0  <0>0        0.1530
     15  C13       12.5100   33.0890   62.8840 C.ar    0  <0>0        0.0165
     16  C18       13.7710   32.6910   63.2910 C.ar    0  <0>0        0.0560
     17  C17       13.9540   31.4380   63.8480 C.ar    0  <0>0        0.0112
     18 Cl         15.1230   33.7630   63.1030 Cl      0  <0>0       -0.0825
     19  C16       12.8780   30.5840   63.9990 C.ar    0  <0>0        0.0008
     20  C15       11.6170   30.9830   63.5920 C.ar    0  <0>0       -0.0002
     21  C14       11.4330   32.2360   63.0390 C.ar    0  <0>0       -0.0011
     22  O1        12.2100   35.4280   63.3170 O.3     0  <0>0       -0.3783
     23  H22       11.9840   36.4760   63.0690 H       0  <0>0        0.2109
@<TRIPOS>BOND
     1    11     9    1
     2    10     9    1
     3     9    12    1
     4     9     6    1
     5     6     5   ar
     6     6     7   ar
     7     5     4   ar
     8     7     8   ar
     9     4     3   ar
    10     8     3   ar
    11     3     1    1
    12     1    13    1
    13     1     2    1
    14    13    14    1
    15    14    15    1
    16    14    22    1
    17    15    21   ar
    18    15    16   ar
    19    21    20   ar
    20    23    22    1
    21    18    16    1
    22    16    17   ar
    23    20    19   ar
    24    17    19   ar


@<TRIPOS>MOLECULE
ZINC50101715_replica-1.pdb
 21 23 0 0 0
SMALL
GASTEIGER

@<TRIPOS>ATOM
       1  C1          2.3960   30.0810   59.3240  C.3       1 <0>         0.0311
       2  O1          1.3060   29.1700   59.1740  O.3       1 <0>        -0.3882
       3  C2          0.0400   29.7100   59.5600  C.3       1 <0>         0.1007
       4  C3         -1.0630   28.8280   59.0330  C.ar      1 <0>        -0.0716
       5  C4         -1.6560   27.8920   59.8600  C.ar      1 <0>        -0.0990
       6  C5         -2.6670   27.0850   59.3770  C.ar      1 <0>        -0.1107
       7  C6         -3.0880   27.2140   58.0660  C.ar      1 <0>        -0.1214
       8  C7         -2.4970   28.1510   57.2390  C.ar      1 <0>        -0.0984
       9  C8         -1.4880   28.9610   57.7240  C.ar      1 <0>        -0.1069
      10  C9         -0.8470   29.9870   56.8250  C.3       1 <0>         0.1643
      11  N1          0.3060   29.3890   56.1470  N.pl3     1 <0>        -0.7428
      12  C10         0.1120   28.3980   55.1820  C.ar      1 <0>         0.2215
      13  C11         0.6480   27.1200   55.3830  C.ar      1 <0>        -0.1717
      14  C12         0.4740   26.1370   54.4620  C.ar      1 <0>        -0.0605
      15  C13        -0.2530   26.3980   53.2860  C.ar      1 <0>        -0.0990
      16  C14        -0.4490   25.4010   52.3170  C.ar      1 <0>        -0.0888
      17  C15        -1.1590   25.6860   51.1910  C.ar      1 <0>        -0.1404
      18  C16        -1.6970   26.9550   50.9830  C.ar      1 <0>        -0.1028
      19  C17        -1.5270   27.9460   51.9000  C.ar      1 <0>        -0.1259
      20  C18        -0.8000   27.6890   53.0760  C.ar      1 <0>         0.0010
      21  C19        -0.6110   28.6860   54.0460  C.ar      1 <0>        -0.2084
@<TRIPOS>BOND
     1     1     2 1
     2     2     3 1
     3     3     4 1
     4     4     9 ar
     5     4     5 ar
     6     5     6 ar
     7     6     7 ar
     8     7     8 ar
     9     8     9 ar
    10     9    10 1
    11    10    11 1
    12    11    12 1
    13    12    21 ar
    14    12    13 ar
    15    13    14 ar
    16    14    15 ar
    17    15    20 ar
    18    15    16 ar
    19    16    17 ar
    20    17    18 ar
    21    18    19 ar
    22    19    20 ar
    23    20    21 ar

@<TRIPOS>MOLECULE
ZINC37763806_replica-1.pdb
 20 21 0 0 0
SMALL
GASTEIGER

@<TRIPOS>ATOM
       1  C1         -2.9910   30.2890   52.7410  C.3       1 <0>        -0.1881
       2  C2         -1.6050   29.9850   53.3160  C.3       1 <0>        -0.0816
       3  C3         -1.2260   28.5640   52.9850  C.ar      1 <0>        -0.1264
       4  C4         -1.6250   28.0030   51.7880  C.ar      1 <0>        -0.0943
       5  C5         -1.2780   26.7000   51.4820  C.ar      1 <0>        -0.1501
       6  C6         -0.5310   25.9530   52.3760  C.ar      1 <0>        -0.0956
       7  C7         -0.1280   26.5080   53.5750  C.ar      1 <0>        -0.1365
       8  C8         -0.4710   27.8190   53.8810  C.ar      1 <0>         0.2129
       9  N1         -0.0610   28.3850   55.0900  N.pl3     1 <0>        -0.7568
      10  C9         -1.0580   28.7940   56.0820  C.3       1 <0>         0.1709
      11  C10        -1.3980   27.6060   56.9830  C.3       1 <0>        -0.1319
      12  C11        -2.8190   27.7690   57.5280  C.3       1 <0>        -0.1730
      13  C12        -0.5000   29.9170   56.9210  C.ar      1 <0>        -0.0980
      14  C13        -0.8230   31.2280   56.6220  C.ar      1 <0>        -0.0959
      15  C14        -0.3130   32.2570   57.3890  C.ar      1 <0>        -0.1418
      16  C15         0.5230   31.9760   58.4590  C.ar      1 <0>         0.1065
      17  C16         0.8440   30.6590   58.7570  C.ar      1 <0>        -0.1411
      18  C17         0.3280   29.6330   57.9910  C.ar      1 <0>        -0.0910
      19  O1          1.0260   32.9860   59.2150  O.3       1 <0>        -0.4998
      20  C18         0.6870   25.6940   54.5460  C.3       1 <0>        -0.1087
@<TRIPOS>BOND
     1     1     2 1
     2     2     3 1
     3     3     8 ar
     4     3     4 ar
     5     4     5 ar
     6     5     6 ar
     7     6     7 ar
     8     7     8 ar
     9     7    20 1
    10     8     9 1
    11     9    10 1
    12    10    11 1
    13    10    13 1
    14    11    12 1
    15    13    18 ar
    16    13    14 ar
    17    14    15 ar
    18    15    16 ar
    19    16    17 ar
    20    16    19 1
    21    17    18 ar

@<TRIPOS>MOLECULE
ZINC29888590_replica-1.pdb
 27 29 0 0 0
SMALL
GASTEIGER

@<TRIPOS>ATOM
       1  C1         -0.3830   25.3530   52.0040  C.3       1 <0>        -0.1180
       2  C2         -0.4320   26.5930   52.8600  C.ar      1 <0>        -0.0844
       3  C3          0.2430   26.6270   54.0670  C.ar      1 <0>        -0.1113
       4  C4          0.1970   27.7640   54.8520  C.ar      1 <0>        -0.1174
       5  C5         -0.5240   28.8660   54.4320  C.ar      1 <0>        -0.0942
       6  C6         -1.2010   28.8300   53.2280  C.ar      1 <0>        -0.1038
       7  C7         -1.1510   27.6960   52.4400  C.ar      1 <0>        -0.0807
       8  C8         -1.8860   27.6590   51.1250  C.3       1 <0>        -0.1181
       9  C9         -0.5730   30.1060   55.2880  C.3       1 <0>         0.1893
      10  C10        -1.3650   29.8110   56.5630  C.3       1 <0>        -0.1591
      11  N1          0.7900   30.5090   55.6420  N.am      1 <0>        -0.7288
      12  C11         1.0320   31.7660   56.0630  C.2       1 <0>         0.5393
      13  O1          0.1210   32.5630   56.1500  O.2       1 <0>        -0.5256
      14  C12         2.4340   32.1820   56.4270  C.3       1 <0>        -0.1615
      15  S1          2.5380   33.9920   56.4590  S.3       1 <0>         0.1284
      16  C13         4.2440   34.3160   56.7640  C.2       1 <0>         0.0277
      17  N2          5.1280   33.5900   57.4220  N.2       1 <0>        -0.2807
      18  N3          6.4240   34.0340   57.5410  N.2       1 <0>        -0.3585
      19  C14         6.7780   35.1830   56.9980  C.2       1 <0>         0.3401
      20  S2          5.2400   35.7100   56.2560  S.3       1 <0>         0.0139
      21  N4          8.0170   35.8130   56.9980  N.pl3     1 <0>        -0.6192
      22  C15         8.7160   35.9810   58.1950  C.ar      1 <0>         0.1618
      23  C16         8.5460   37.1380   58.9450  C.ar      1 <0>        -0.1495
      24  C17         9.2340   37.2980   60.1310  C.ar      1 <0>        -0.0934
      25  C18        10.1010   36.3130   60.5680  C.ar      1 <0>        -0.1389
      26  C19        10.2770   35.1620   59.8220  C.ar      1 <0>        -0.0906
      27  C20         9.5880   34.9920   58.6370  C.ar      1 <0>        -0.1357
@<TRIPOS>BOND
     1     1     2 1
     2     2     7 ar
     3     2     3 ar
     4     3     4 ar
     5     4     5 ar
     6     5     6 ar
     7     5     9 1
     8     6     7 ar
     9     7     8 1
    10     9    10 1
    11     9    11 1
    12    11    12 am
    13    12    13 2
    14    12    14 1
    15    14    15 1
    16    15    16 1
    17    16    20 1
    18    16    17 2
    19    17    18 1
    20    18    19 2
    21    19    20 1
    22    19    21 1
    23    21    22 1
    24    22    27 ar
    25    22    23 ar
    26    23    24 ar
    27    24    25 ar
    28    25    26 ar
    29    26    27 ar

@<TRIPOS>MOLECULE
ZINC32230458_replica-1.pdb
 23 24 0 0 0
SMALL
GASTEIGER

@<TRIPOS>ATOM
       1  C1          5.7400   37.5890   60.2570  C.3       1 <0>        -0.1183
       2  C2          5.4910   36.2010   59.7260  C.ar      1 <0>        -0.0343
       3  C3          6.0560   35.1070   60.3560  C.ar      1 <0>        -0.1832
       4  C4          5.8300   33.8320   59.8720  C.ar      1 <0>        -0.0345
       5  C5          5.0370   33.6460   58.7570  C.ar      1 <0>        -0.2023
       6  C6          4.4680   34.7420   58.1210  C.ar      1 <0>         0.2291
       7  C7          4.7010   36.0220   58.6080  C.ar      1 <0>        -0.2116
       8  N1          3.6650   34.5570   56.9920  N.pl3     1 <0>        -0.7512
       9  C8          3.9260   35.3290   55.7740  C.3       1 <0>         0.1400
      10  C9          5.2480   34.8710   55.1550  C.3       1 <0>         0.1145
      11  C10         6.3100   35.9520   55.3660  C.3       1 <0>         0.0283
      12  O1          7.5800   35.3350   55.5880  O.3       1 <0>        -0.3167
      13  C11         8.1830   35.5750   56.7820  C.ar      1 <0>         0.1240
      14  C12         8.7220   34.5260   57.5120  C.ar      1 <0>        -0.1476
      15  C13         9.3350   34.7730   58.7250  C.ar      1 <0>        -0.0785
      16  C14         9.4110   36.0660   59.2120  C.ar      1 <0>        -0.1114
      17  C15         8.8750   37.1130   58.4870  C.ar      1 <0>        -0.0745
      18  C16         8.2610   36.8710   57.2720  C.ar      1 <0>        -0.2042
      19  C17        10.0800   36.3320   60.5360  C.3       1 <0>        -0.0544
      20  C18         9.0510   36.8780   61.5270  C.3       1 <0>        -0.1466
      21  C19        10.6710   35.0280   61.0790  C.3       1 <0>        -0.1466
      22  O2          5.0670   34.6490   53.7550  O.3       1 <0>        -0.5909
      23  C20         6.4480   32.6440   60.5630  C.3       1 <0>        -0.1182
@<TRIPOS>BOND
     1     1     2 1
     2     2     7 ar
     3     2     3 ar
     4     3     4 ar
     5     4     5 ar
     6     4    23 1
     7     5     6 ar
     8     6     7 ar
     9     6     8 1
    10     8     9 1
    11     9    10 1
    12    10    11 1
    13    10    22 1
    14    11    12 1
    15    12    13 1
    16    13    18 ar
    17    13    14 ar
    18    14    15 ar
    19    15    16 ar
    20    16    17 ar
    21    16    19 1
    22    17    18 ar
    23    19    20 1
    24    19    21 1

@<TRIPOS>MOLECULE
ZINC40140621_replica-1.pdb
 27 30 0 0 0
SMALL
GASTEIGER

@<TRIPOS>ATOM
       1  C1          3.0110   32.1620   58.9470  C.3       1 <0>        -0.1189
       2  C2          3.3450   33.2000   57.9080  C.ar      1 <0>        -0.0783
       3  C3          3.9880   34.3660   58.2770  C.ar      1 <0>        -0.1373
       4  C4          4.2950   35.3210   57.3230  C.ar      1 <0>         0.0907
       5  C5          3.9560   35.1110   55.9970  C.ar      1 <0>        -0.1399
       6  C6          3.3130   33.9470   55.6230  C.ar      1 <0>        -0.0871
       7  C7          3.0100   32.9850   56.5770  C.ar      1 <0>         0.1316
       8  N1          2.3630   31.8030   56.2010  N.am      1 <0>        -0.6583
       9  C8          1.0170   31.7590   56.1530  C.2       1 <0>         0.6078
      10  O1          0.3670   32.7650   56.3560  O.2       1 <0>        -0.5018
      11  C9          0.3310   30.4850   55.8530  C.2       1 <0>         0.0168
      12  C10        -0.4950   29.7470   56.7320  C.2       1 <0>        -0.1449
      13  C11        -0.8990   28.6640   56.0350  C.2       1 <0>        -0.0105
      14  N2         -0.3400   28.7550   54.7980  N.pl3     1 <0>        -0.2167
      15  N3          0.3670   29.8240   54.7110  N.2       1 <0>        -0.2496
      16  C12        -0.5130   27.8220   53.7670  C.ar      1 <0>         0.1492
      17  C13         0.0200   26.5450   53.8890  C.ar      1 <0>        -0.0963
      18  C14        -0.1510   25.6240   52.8740  C.ar      1 <0>        -0.1018
      19  C15        -0.8530   25.9740   51.7330  C.ar      1 <0>         0.0790
      20  C16        -1.3860   27.2480   51.6070  C.ar      1 <0>         0.0915
      21  C17        -1.2220   28.1690   52.6260  C.ar      1 <0>        -0.1125
      22  F1         -2.0720   27.5870   50.4940  F         1 <0>        -0.1154
      23  F2         -1.0180   25.0730   50.7400  F         1 <0>        -0.1176
      24  C18        -1.7960   27.7980   56.8900  C.3       1 <0>        -0.0405
      25  C19        -1.5450   28.2700   58.3400  C.3       1 <0>        -0.1153
      26  C20        -1.0730   29.7260   58.1260  C.3       1 <0>        -0.0492
      27  F3          4.9230   36.4600   57.6850  F         1 <0>        -0.1385
@<TRIPOS>BOND
     1     1     2 1
     2     2     7 ar
     3     2     3 ar
     4     3     4 ar
     5     4     5 ar
     6     4    27 1
     7     5     6 ar
     8     6     7 ar
     9     7     8 1
    10     8     9 am
    11     9    10 2
    12     9    11 1
    13    11    15 2
    14    11    12 1
    15    12    26 1
    16    12    13 2
    17    13    14 1
    18    13    24 1
    19    14    15 1
    20    14    16 1
    21    16    21 ar
    22    16    17 ar
    23    17    18 ar
    24    18    19 ar
    25    19    20 ar
    26    19    23 1
    27    20    21 ar
    28    20    22 1
    29    24    25 1
    30    25    26 1

@<TRIPOS>MOLECULE
ZINC12488079_replica-1.pdb
 29 32 0 0 0
SMALL
GASTEIGER

@<TRIPOS>ATOM
       1  C1          8.6380   38.5530   57.0240  C.ar      1 <0>        -0.1042
       2  C2          8.1010   38.8190   58.2720  C.ar      1 <0>        -0.1217
       3  C3          7.1610   37.9710   58.8170  C.ar      1 <0>        -0.0758
       4  C4          6.7510   36.8410   58.1080  C.ar      1 <0>        -0.0349
       5  C5          7.2960   36.5780   56.8500  C.ar      1 <0>        -0.1015
       6  C6          8.2360   37.4340   56.3170  C.ar      1 <0>        -0.1193
       7  C7          5.7410   35.9250   58.6870  C.2       1 <0>         0.2344
       8  C8          6.0310   35.0850   59.7710  C.2       1 <0>        -0.2668
       9  S1          4.4580   34.2690   59.9830  S.3       1 <0>         0.1712
      10  C9          3.6210   35.0330   58.7400  C.2       1 <0>         0.3271
      11  N1          4.5090   35.8550   58.2180  N.2       1 <0>        -0.5872
      12  N2          2.3100   34.8450   58.3570  N.pl3     1 <0>        -0.5589
      13  C10         1.9710   34.4550   56.9790  C.3       1 <0>         0.0887
      14  C11         1.0320   33.2450   57.0370  C.3       1 <0>         0.0461
      15  O1         -0.0670   33.5440   57.9000  O.3       1 <0>        -0.3741
      16  C12         0.3050   33.7920   59.2580  C.3       1 <0>         0.0475
      17  C13         1.2080   35.0250   59.3150  C.3       1 <0>         0.0847
      18  C14         7.2330   34.9280   60.4910  C.2       1 <0>         0.2718
      19  N3          8.2590   34.3330   59.9320  N.2       1 <0>        -0.5103
      20  C15         9.4250   34.1800   60.6290  C.ar      1 <0>         0.1322
      21  C16         9.7280   32.9550   61.2290  C.ar      1 <0>        -0.1614
      22  C17        10.9070   32.8090   61.9300  C.ar      1 <0>        -0.0495
      23  C18        11.7880   33.8710   62.0390  C.ar      1 <0>        -0.1994
      24  C19        11.4940   35.0860   61.4480  C.ar      1 <0>        -0.0531
      25  C20        10.3220   35.2470   60.7390  C.ar      1 <0>        -0.1119
      26  C21        13.0730   33.7020   62.8070  C.3       1 <0>         0.5096
      27  F1         13.0840   34.5800   63.8970  F         1 <0>        -0.1767
      28  F2         13.1710   32.3850   63.2700  F         1 <0>        -0.1768
      29  F3         14.1590   33.9830   61.9700  F         1 <0>        -0.1773
@<TRIPOS>BOND
     1     1     6 ar
     2     1     2 ar
     3     2     3 ar
     4     3     4 ar
     5     4     5 ar
     6     4     7 1
     7     5     6 ar
     8     7    11 1
     9     7     8 2
    10     8     9 1
    11     8    18 1
    12     9    10 1
    13    10    11 2
    14    10    12 1
    15    12    17 1
    16    12    13 1
    17    13    14 1
    18    14    15 1
    19    15    16 1
    20    16    17 1
    21    18    19 2
    22    19    20 1
    23    20    25 ar
    24    20    21 ar
    25    21    22 ar
    26    22    23 ar
    27    23    24 ar
    28    23    26 1
    29    24    25 ar
    30    26    27 1
    31    26    28 1
    32    26    29 1

@<TRIPOS>MOLECULE
ZINC41435432_replica-1.pdb
 31 35 0 0 0
SMALL
GASTEIGER

@<TRIPOS>ATOM
       1  C1         -0.5800   26.1610   51.7270  C.ar      1 <0>        -0.1113
       2  C2         -0.0770   26.0550   53.0120  C.ar      1 <0>        -0.1226
       3  C3         -0.2840   27.0700   53.9230  C.ar      1 <0>        -0.0822
       4  C4         -1.0030   28.2030   53.5480  C.ar      1 <0>        -0.0321
       5  C5         -1.5070   28.3050   52.2530  C.ar      1 <0>        -0.1040
       6  C6         -1.2940   27.2830   51.3500  C.ar      1 <0>        -0.1221
       7  C7         -1.2290   29.2980   54.5240  C.2       1 <0>         0.1051
       8  C8         -2.5020   29.6160   54.9220  C.2       1 <0>        -0.1903
       9  S1         -2.1680   30.9540   56.0600  S.3       1 <0>         0.0272
      10  C9         -0.3890   30.9520   55.8910  C.2       1 <0>         0.1686
      11  N1         -0.2070   29.9690   55.0220  N.2       1 <0>        -0.4707
      12  C10         0.6120   31.8130   56.5490  C.2       1 <0>        -0.1462
      13  C11         0.6420   33.1810   56.3280  C.2       1 <0>         0.0395
      14  C12         1.6530   33.9400   56.9700  C.ar      1 <0>        -0.1933
      15  C13         1.6130   35.3430   56.9450  C.ar      1 <0>        -0.0005
      16  C14         2.5680   36.0600   57.6020  C.ar      1 <0>        -0.2273
      17  C15         3.5910   35.4130   58.2920  C.ar      1 <0>         0.1996
      18  C16         3.6590   34.0290   58.3120  C.ar      1 <0>        -0.1728
      19  C17         2.7010   33.2830   57.6440  C.ar      1 <0>         0.1918
      20  O1          2.7800   31.9300   57.6190  O.3       1 <0>        -0.2677
      21  C18         1.6160   31.2530   57.4720  C.2       1 <0>         0.5292
      22  O2          1.4060   30.2170   58.0750  O.2       1 <0>        -0.4022
      23  O3          4.5280   36.1430   58.9500  O.3       1 <0>        -0.2971
      24  C19         5.8660   35.6420   58.9380  C.3       1 <0>         0.1035
      25  C20         6.7770   36.6560   58.2950  C.ar      1 <0>        -0.1319
      26  C21         7.2500   36.4470   57.0130  C.ar      1 <0>        -0.0701
      27  C22         8.0840   37.3770   56.4230  C.ar      1 <0>        -0.1271
      28  C23         8.4470   38.5180   57.1140  C.ar      1 <0>        -0.0858
      29  C24         7.9750   38.7310   58.3950  C.ar      1 <0>        -0.1504
      30  C25         7.1350   37.8020   58.9860  C.ar      1 <0>         0.1067
      31  F1          6.6680   38.0100   60.2360  F         1 <0>        -0.1363
@<TRIPOS>BOND
     1     1     6 ar
     2     1     2 ar
     3     2     3 ar
     4     3     4 ar
     5     4     5 ar
     6     4     7 1
     7     5     6 ar
     8     7    11 1
     9     7     8 2
    10     8     9 1
    11     9    10 1
    12    10    11 2
    13    10    12 1
    14    12    21 1
    15    12    13 2
    16    13    14 1
    17    14    19 ar
    18    14    15 ar
    19    15    16 ar
    20    16    17 ar
    21    17    18 ar
    22    17    23 1
    23    18    19 ar
    24    19    20 1
    25    20    21 1
    26    21    22 2
    27    23    24 1
    28    24    25 1
    29    25    30 ar
    30    25    26 ar
    31    26    27 ar
    32    27    28 ar
    33    28    29 ar
    34    29    30 ar
    35    30    31 1

@<TRIPOS>MOLECULE
ZINC01599345_replica-1.pdb
 17 18 0 0 0
SMALL
GASTEIGER

@<TRIPOS>ATOM
      1  S1        -0.1390   28.3360   54.7960 S.3     0  <0>0        0.0506
      2  O1         0.5530   27.4920   55.7060 O.3     0  <0>0       -0.0570
      3  O2         0.4220   29.5440   54.3000 O.3     0  <0>0       -0.0570
      4  C4        -0.5300   27.3470   53.3910 C.ar    0  <0>0        0.1203
      5  C3        -1.2530   27.8880   52.3440 C.ar    0  <0>0        0.0198
      6  C2        -1.5600   27.1120   51.2420 C.ar    0  <0>0        0.0014
      7  C1        -1.1440   25.7940   51.1870 C.ar    0  <0>0        0.0001
      8  C6        -0.4210   25.2540   52.2340 C.ar    0  <0>0        0.0014
      9  C5        -0.1140   26.0300   53.3360 C.ar    0  <0>0        0.0198
     10  O3        -1.4550   28.7100   55.4630 O.3     0  <0>0       -0.3572
     11  C7        -1.4130   28.6870   56.8220 C.ar    0  <0>0        0.1718
     12  C12       -0.6990   29.6570   57.5110 C.ar    0  <0>0        0.0403
     13  C11       -0.6570   29.6310   58.8920 C.ar    0  <0>0        0.0099
     14  C10       -1.3250   28.6390   59.5860 C.ar    0  <0>0        0.0348
     15  C9        -2.0370   27.6710   58.9020 C.ar    0  <0>0        0.0099
     16 Br         -1.2650   28.6070   61.4770 Br      0  <0>0       -0.0490
     17  C8        -2.0870   27.6960   57.5210 C.ar    0  <0>0        0.0403
@<TRIPOS>BOND
     1     7     6   ar
     2     7     8   ar
     3     6     5   ar
     4     8     9   ar
     5     5     4   ar
     6     9     4   ar
     7     4     1    1
     8     3     1    1
     9     1    10    1
    10     1     2    1
    11    10    11    1
    12    11    12   ar
    13    11    17   ar
    14    12    13   ar
    15    17    15   ar
    16    13    14   ar
    17    15    14   ar
    18    14    16    1


@<TRIPOS>MOLECULE
ZINC25157923_replica-1.pdb
 27 28 0 0 0
SMALL
GASTEIGER

@<TRIPOS>ATOM
       1  C1         -1.2150   30.0800   56.9720  C.3       1 <0>        -0.1653
       2  C2         -0.0690   30.0560   55.9590  C.3       1 <0>         0.1597
       3  C3          0.2770   31.4880   55.5450  C.3       1 <0>        -0.1541
       4  C4          1.0730   32.1490   56.6400  C.2       1 <0>         0.5085
       5  O1          2.2110   31.7930   56.8630  O.2       1 <0>        -0.5163
       6  N1          0.5200   33.1360   57.3730  N.am      1 <0>        -0.7273
       7  C5          1.2940   33.7790   58.4390  C.3       1 <0>         0.1966
       8  C6          0.7950   33.3020   59.7790  C.ar      1 <0>        -0.1278
       9  C7          0.2840   34.2110   60.6870  C.ar      1 <0>        -0.0749
      10  C8         -0.1740   33.7770   61.9160  C.ar      1 <0>        -0.1475
      11  C9         -0.1210   32.4280   62.2380  C.ar      1 <0>         0.1300
      12  C10         0.3910   31.5190   61.3250  C.ar      1 <0>        -0.2036
      13  C11         0.8430   31.9570   60.0940  C.ar      1 <0>        -0.0638
      14  O2         -0.5700   31.9990   63.4470  O.3       1 <0>        -0.3171
      15  C12        -0.4350   30.6050   63.7320  C.3       1 <0>         0.0260
      16  C13         1.1300   35.2960   58.3440  C.3       1 <0>        -0.0984
      17  C14         2.5010   35.9660   58.4660  C.3       1 <0>        -0.1469
      18  C15         0.5030   35.6590   56.9950  C.3       1 <0>        -0.1369
      19  N2         -0.4780   29.2920   54.7780  N.am      1 <0>        -0.7120
      20  C16        -0.0240   28.0360   54.5980  C.2       1 <0>         0.5669
      21  O3          0.7250   27.5370   55.4140  O.2       1 <0>        -0.5351
      22  C17        -0.4370   27.2640   53.4060  C.ar      1 <0>        -0.1323
      23  C18        -0.0650   25.9250   53.2750  C.ar      1 <0>        -0.0856
      24  C19        -0.4530   25.2100   52.1610  C.ar      1 <0>        -0.1280
      25  C20        -1.2090   25.8180   51.1740  C.ar      1 <0>        -0.0951
      26  C21        -1.5800   27.1460   51.2970  C.ar      1 <0>        -0.1272
      27  C22        -1.2030   27.8700   52.4090  C.ar      1 <0>        -0.0607
@<TRIPOS>BOND
     1     1     2 1
     2     2     3 1
     3     2    19 1
     4     3     4 1
     5     4     5 2
     6     4     6 am
     7     6     7 1
     8     7     8 1
     9     7    16 1
    10     8    13 ar
    11     8     9 ar
    12     9    10 ar
    13    10    11 ar
    14    11    12 ar
    15    11    14 1
    16    12    13 ar
    17    14    15 1
    18    16    17 1
    19    16    18 1
    20    19    20 am
    21    20    21 2
    22    20    22 1
    23    22    27 ar
    24    22    23 ar
    25    23    24 ar
    26    24    25 ar
    27    25    26 ar
    28    26    27 ar

@<TRIPOS>MOLECULE
ZINC49920275_replica-1.pdb
 22 23 0 0 0
SMALL
GASTEIGER

@<TRIPOS>ATOM
       1  C1          7.5390   36.6120   54.9160  C.3       1 <0>        -0.1479
       2  C2          7.3820   37.8280   55.8310  C.3       1 <0>        -0.0889
       3  C3          8.0240   37.5400   57.1640  C.ar      1 <0>        -0.0743
       4  C4          8.5020   36.2730   57.4410  C.ar      1 <0>        -0.1148
       5  C5          9.0910   36.0090   58.6640  C.ar      1 <0>        -0.1027
       6  C6          9.2010   37.0120   59.6090  C.ar      1 <0>        -0.1266
       7  C7          8.7220   38.2790   59.3320  C.ar      1 <0>        -0.1051
       8  C8          8.1370   38.5440   58.1080  C.ar      1 <0>        -0.1139
       9  C9          9.8410   36.7230   60.9420  C.3       1 <0>         0.1418
      10  C10        10.0150   35.2120   61.1080  C.3       1 <0>         0.0938
      11  N1         11.3960   34.9190   61.4980  N.pl3     1 <0>        -0.7345
      12  C11        11.6930   33.7370   62.1810  C.ar      1 <0>         0.2468
      13  C12        10.7140   32.7650   62.3500  C.ar      1 <0>        -0.2020
      14  C13        11.0120   31.5980   63.0240  C.ar      1 <0>        -0.0199
      15  C14        12.2820   31.3940   63.5320  C.ar      1 <0>        -0.2457
      16  C15        13.2580   32.3590   63.3650  C.ar      1 <0>        -0.0203
      17  C16        12.9700   33.5270   62.6870  C.ar      1 <0>        -0.1964
      18  C17        12.6020   30.1200   64.2680  C.3       1 <0>         0.5122
      19  F1         13.3600   30.4170   65.4060  F         1 <0>        -0.1802
      20  F2         11.4120   29.4920   64.6530  F         1 <0>        -0.1803
      21  F3         13.3290   29.2680   63.4310  F         1 <0>        -0.1805
      22  O1          9.0080   37.2250   61.9900  O.3       1 <0>        -0.5497
@<TRIPOS>BOND
     1     1     2 1
     2     2     3 1
     3     3     8 ar
     4     3     4 ar
     5     4     5 ar
     6     5     6 ar
     7     6     7 ar
     8     6     9 1
     9     7     8 ar
    10     9    10 1
    11     9    22 1
    12    10    11 1
    13    11    12 1
    14    12    17 ar
    15    12    13 ar
    16    13    14 ar
    17    14    15 ar
    18    15    16 ar
    19    15    18 1
    20    16    17 ar
    21    18    19 1
    22    18    20 1
    23    18    21 1

@<TRIPOS>MOLECULE
ZINC31249422_replica-1.pdb
 26 27 0 0 0
SMALL
GASTEIGER

@<TRIPOS>ATOM
       1  C1          8.4280   38.4820   57.7550  C.3       1 <0>        -0.1585
       2  C2          8.2230   36.9780   57.9420  C.3       1 <0>         0.1869
       3  C3          9.0880   36.4910   59.0760  C.ar      1 <0>        -0.0970
       4  C4          9.2720   37.2830   60.1950  C.ar      1 <0>        -0.1126
       5  C5         10.0650   36.8370   61.2350  C.ar      1 <0>        -0.1135
       6  C6         10.6740   35.5990   61.1580  C.ar      1 <0>        -0.0727
       7  C7         10.4900   34.8060   60.0400  C.ar      1 <0>        -0.1092
       8  C8          9.6930   35.2510   59.0010  C.ar      1 <0>        -0.1034
       9  C9         11.5410   35.1130   62.2910  C.3       1 <0>        -0.0589
      10  C10        12.7730   34.4070   61.7230  C.3       1 <0>        -0.1453
      11  C11        11.9820   36.3040   63.1430  C.3       1 <0>        -0.1454
      12  N1          6.8160   36.7100   58.2520  N.am      1 <0>        -0.7245
      13  C12         6.0860   35.9220   57.4390  C.2       1 <0>         0.5652
      14  O1          6.5940   35.4310   56.4490  O.2       1 <0>        -0.5155
      15  C13         4.6710   35.6530   57.7500  C.ar      1 <0>        -0.1900
      16  C14         3.6680   36.0540   56.8610  C.ar      1 <0>        -0.0355
      17  C15         2.3480   35.8030   57.1530  C.ar      1 <0>        -0.2123
      18  C16         2.0020   35.1490   58.3320  C.ar      1 <0>         0.1524
      19  C17         2.9900   34.7450   59.2240  C.ar      1 <0>         0.0323
      20  C18         4.3250   34.9890   58.9360  C.ar      1 <0>         0.1825
      21  O2          5.2930   34.5920   59.8020  O.3       1 <0>        -0.3125
      22  C19         5.9420   33.3490   59.5220  C.3       1 <0>         0.0536
      23  O3          2.6470   34.1080   60.3760  O.3       1 <0>        -0.3160
      24  C20         2.5190   32.6850   60.3170  C.3       1 <0>         0.0361
      25  O4          0.6960   34.9060   58.6130  O.3       1 <0>        -0.2988
      26  C21         0.0600   33.8550   57.8810  C.3       1 <0>         0.0211
@<TRIPOS>BOND
     1     1     2 1
     2     2     3 1
     3     2    12 1
     4     3     8 ar
     5     3     4 ar
     6     4     5 ar
     7     5     6 ar
     8     6     7 ar
     9     6     9 1
    10     7     8 ar
    11     9    10 1
    12     9    11 1
    13    12    13 am
    14    13    14 2
    15    13    15 1
    16    15    20 ar
    17    15    16 ar
    18    16    17 ar
    19    17    18 ar
    20    18    19 ar
    21    18    25 1
    22    19    20 ar
    23    19    23 1
    24    20    21 1
    25    21    22 1
    26    23    24 1
    27    25    26 1

@<TRIPOS>MOLECULE
ZINC37059803_replica-1.pdb
 21 22 0 0 0
SMALL
GASTEIGER

@<TRIPOS>ATOM
       1  C1         -1.9330   27.2380   50.8020  C.3       1 <0>        -0.1084
       2  C2         -1.3220   27.7030   52.1000  C.ar      1 <0>        -0.1393
       3  C3         -0.3960   26.9090   52.7510  C.ar      1 <0>        -0.0239
       4  C4          0.1650   27.3320   53.9390  C.ar      1 <0>        -0.1945
       5  C5         -0.2030   28.5570   54.4810  C.ar      1 <0>         0.2775
       6  C6         -1.1330   29.3520   53.8250  C.ar      1 <0>        -0.1218
       7  C7         -1.6860   28.9250   52.6340  C.ar      1 <0>        -0.0174
       8  N1         -1.5280   30.6570   54.3990  N.pl3     1 <0>         0.0439
       9  O1         -2.6970   30.9080   54.5860  O.2       1 <0>        -0.1792
      10  O2         -0.6830   31.4740   54.6820  O.3       1 <0>        -0.1537
      11  N2          0.3620   28.9880   55.6840  N.pl3     1 <0>        -0.7219
      12  C8         -0.0520   28.3750   56.9490  C.3       1 <0>         0.1420
      13  C9         -1.5640   28.1400   56.9300  C.3       1 <0>        -0.1734
      14  C10         0.6700   27.0380   57.1270  C.3       1 <0>        -0.1204
      15  C11        -0.2850   26.0230   57.7600  C.3       1 <0>        -0.0827
      16  C12        -0.0410   24.6630   57.1600  C.ar      1 <0>        -0.0831
      17  C13        -0.3480   23.5250   57.8800  C.ar      1 <0>        -0.1191
      18  C14        -0.1240   22.2760   57.3300  C.ar      1 <0>        -0.1190
      19  C15         0.4070   22.1660   56.0580  C.ar      1 <0>        -0.1246
      20  C16         0.7130   23.3060   55.3360  C.ar      1 <0>        -0.1173
      21  C17         0.4850   24.5540   55.8850  C.ar      1 <0>        -0.1157
@<TRIPOS>BOND
     1     1     2 1
     2     2     7 ar
     3     2     3 ar
     4     3     4 ar
     5     4     5 ar
     6     5     6 ar
     7     5    11 1
     8     6     7 ar
     9     6     8 1
    10     8     9 2
    11     8    10 1
    12    11    12 1
    13    12    13 1
    14    12    14 1
    15    14    15 1
    16    15    16 1
    17    16    21 ar
    18    16    17 ar
    19    17    18 ar
    20    18    19 ar
    21    19    20 ar
    22    20    21 ar

@<TRIPOS>MOLECULE
ZINC66164400_replica-1.pdb
 21 22 0 0 0
SMALL
GASTEIGER

@<TRIPOS>ATOM
      1  C10       10.7770   35.0550   60.5170 C.3     0  <0>0        0.1312
      2  C8        11.2970   35.0040   61.9550 C.3     0  <0>0        0.1854
      3  C9        11.5230   36.4280   62.4660 C.3     0  <0>0        0.0491
      4  O1        12.5300   34.2830   61.9900 O.3     0  <0>0       -0.4774
      5  C5        12.5340   33.1000   62.6590 C.ar    0  <0>0        0.1384
      6  C4        11.3580   32.3780   62.7990 C.ar    0  <0>0        0.0366
      7  C3        11.3650   31.1750   63.4790 C.ar    0  <0>0       -0.0011
      8  C2        12.5420   30.6900   64.0180 C.ar    0  <0>0       -0.0217
      9  C1        12.5470   29.3780   64.7580 C.3     0  <0>0        0.0310
     10  C7        13.7150   31.4110   63.8830 C.ar    0  <0>0       -0.0011
     11  C6        13.7140   32.6120   63.2000 C.ar    0  <0>0        0.0366
     12  N1         9.4440   35.6650   60.5000 N.pl3   0  <0>0       -0.3297
     13  H14        8.8190   35.4820   61.2190 H       0  <0>0        0.1469
     14  C11        9.0750   36.5090   59.4500 C.ar    0  <0>0        0.0457
     15  C16        8.8850   35.9900   58.1750 C.ar    0  <0>0        0.0280
     16  C15        8.5150   36.8270   57.1380 C.ar    0  <0>0        0.0863
     17  C14        8.3440   38.1830   57.3680 C.ar    0  <0>0        0.1507
     18 Cl          8.2700   36.1790   55.5460 Cl      0  <0>0       -0.0799
     19  C13        8.5390   38.7010   58.6370 C.ar    0  <0>0        0.0318
     20  F1         7.9870   38.9990   56.3520 F       0  <0>0       -0.2033
     21  C12        8.9030   37.8680   59.6770 C.ar    0  <0>0        0.0167
@<TRIPOS>BOND
     1    18    16    1
     2    20    17    1
     3    16    17   ar
     4    16    15   ar
     5    17    19   ar
     6    15    14   ar
     7    19    21   ar
     8    14    21   ar
     9    14    12    1
    10    12     1    1
    11    12    13    1
    12     1     2    1
    13     2     4    1
    14     2     3    1
    15     4     5    1
    16     5     6   ar
    17     5    11   ar
    18     6     7   ar
    19    11    10   ar
    20     7     8   ar
    21    10     8   ar
    22     8     9    1


@<TRIPOS>MOLECULE
ZINC25425130_replica-1.pdb
 26 28 0 0 0
SMALL
GASTEIGER

@<TRIPOS>ATOM
       1  C1          5.1990   36.4250   55.8120  C.3       1 <0>        -0.1488
       2  C2          5.0580   35.8470   57.2220  C.3       1 <0>        -0.1190
       3  C3          4.4040   34.4660   57.1440  C.3       1 <0>        -0.0163
       4  C4          5.4730   33.4040   57.1310  C.2       1 <0>         0.1285
       5  N1          6.0850   32.9360   56.0800  N.2       1 <0>        -0.2967
       6  N2          6.9390   32.0410   56.4290  N.2       1 <0>        -0.3479
       7  C5          6.9190   31.8890   57.7330  C.2       1 <0>         0.3831
       8  S1          7.9120   30.7790   58.6730  S.3       1 <0>        -0.8137
       9  N3          5.9870   32.7580   58.2220  N.pl3     1 <0>        -0.4777
      10  C6          5.6130   32.9560   59.6250  C.3       1 <0>         0.1068
      11  C7          6.1660   34.2710   60.1110  C.2       1 <0>         0.5088
      12  O1          5.4450   35.0540   60.6930  O.2       1 <0>        -0.5036
      13  N4          7.4620   34.5770   59.9000  N.am      1 <0>        -0.7272
      14  C8          8.0000   35.8550   60.3720  C.3       1 <0>         0.2315
      15  C9          9.3650   35.6350   60.9700  C.ar      1 <0>        -0.0888
      16  C10         9.9910   34.4090   60.8310  C.ar      1 <0>        -0.0946
      17  C11        11.2450   34.2080   61.3790  C.ar      1 <0>        -0.1167
      18  C12        11.8710   35.2300   62.0660  C.ar      1 <0>        -0.1182
      19  C13        11.2470   36.4550   62.2040  C.ar      1 <0>        -0.1201
      20  C14         9.9950   36.6590   61.6520  C.ar      1 <0>        -0.1025
      21  C15         8.1060   36.8130   59.2150  C.ar      1 <0>        -0.0803
      22  C16         7.6830   38.1210   59.3590  C.ar      1 <0>        -0.1102
      23  C17         7.7810   39.0010   58.2980  C.ar      1 <0>        -0.1155
      24  C18         8.3010   38.5720   57.0910  C.ar      1 <0>        -0.1207
      25  C19         8.7250   37.2640   56.9460  C.ar      1 <0>        -0.1163
      26  C20         8.6310   36.3860   58.0090  C.ar      1 <0>        -0.1049
@<TRIPOS>BOND
     1     1     2 1
     2     2     3 1
     3     3     4 1
     4     4     9 1
     5     4     5 2
     6     5     6 1
     7     6     7 2
     8     7     8 1
     9     7     9 1
    10     9    10 1
    11    10    11 1
    12    11    12 2
    13    11    13 am
    14    13    14 1
    15    14    15 1
    16    14    21 1
    17    15    20 ar
    18    15    16 ar
    19    16    17 ar
    20    17    18 ar
    21    18    19 ar
    22    19    20 ar
    23    21    26 ar
    24    21    22 ar
    25    22    23 ar
    26    23    24 ar
    27    24    25 ar
    28    25    26 ar

@<TRIPOS>MOLECULE
ZINC66190213_replica-1.pdb
 24 25 0 0 0
SMALL
GASTEIGER

@<TRIPOS>ATOM
       1  C1          3.9950   35.8100   57.6570  C.3       1 <0>        -0.1812
       2  C2          4.9430   35.5890   56.4780  C.3       1 <0>         0.0785
       3  C3          4.1540   35.6520   55.1700  C.3       1 <0>        -0.1497
       4  O1          5.9480   36.6050   56.4780  O.3       1 <0>        -0.3138
       5  C4          6.9980   36.4360   57.3250  C.ar      1 <0>         0.0793
       6  C5          7.6070   35.1950   57.4360  C.ar      1 <0>        -0.1044
       7  C6          8.6740   35.0220   58.2960  C.ar      1 <0>        -0.1511
       8  C7          9.1370   36.0920   59.0510  C.ar      1 <0>         0.1789
       9  C8          8.5260   37.3340   58.9400  C.ar      1 <0>        -0.1563
      10  C9          7.4640   37.5060   58.0740  C.ar      1 <0>        -0.1621
      11  N1         10.2160   35.9170   59.9230  N.pl3     1 <0>        -0.7496
      12  C10        10.2090   36.5660   61.2370  C.3       1 <0>         0.1184
      13  C11        11.2510   35.9010   62.1400  C.3       1 <0>         0.1150
      14  N2         11.6670   34.6270   61.5490  N.pl3     1 <0>        -0.7429
      15  C12        12.5570   33.7970   62.2340  C.ar      1 <0>         0.2166
      16  C13        13.8840   34.1780   62.3900  C.ar      1 <0>        -0.1660
      17  C14        14.7610   33.3550   63.0690  C.ar      1 <0>        -0.0705
      18  C15        14.3200   32.1520   63.5910  C.ar      1 <0>        -0.1308
      19  C16        13.0000   31.7700   63.4360  C.ar      1 <0>        -0.1326
      20  C17        12.1160   32.5910   62.7640  C.ar      1 <0>        -0.1462
      21  C18        12.5250   30.4580   64.0060  C.3       1 <0>         0.5072
      22  F1         12.9990   30.3180   65.3150  F         1 <0>        -0.1757
      23  F2         11.1260   30.4320   64.0120  F         1 <0>        -0.1765
      24  F3         13.0070   29.4070   63.2200  F         1 <0>        -0.1764
@<TRIPOS>BOND
     1     1     2 1
     2     2     3 1
     3     2     4 1
     4     4     5 1
     5     5    10 ar
     6     5     6 ar
     7     6     7 ar
     8     7     8 ar
     9     8     9 ar
    10     8    11 1
    11     9    10 ar
    12    11    12 1
    13    12    13 1
    14    13    14 1
    15    14    15 1
    16    15    20 ar
    17    15    16 ar
    18    16    17 ar
    19    17    18 ar
    20    18    19 ar
    21    19    20 ar
    22    19    21 1
    23    21    22 1
    24    21    23 1
    25    21    24 1

@<TRIPOS>MOLECULE
ZINC37274551_replica-1.pdb
 22 23 0 0 0
SMALL
GASTEIGER

@<TRIPOS>ATOM
      1  N1        -0.8180   27.7020   56.0190 N.3     0  <0>0       -0.2959
      2  H12       -1.5290   27.0610   55.6990 H       0  <0>0        0.1235
      3  C2         0.2470   26.9900   56.7390 C.3     0  <0>0        0.0587
      4  C1         1.0710   27.9920   57.5510 C.3     0  <0>0        0.0174
      5  C3        -0.3760   25.9590   57.6820 C.3     0  <0>0        0.0429
      6  C4        -0.1030   24.5710   57.1620 C.ar    0  <0>0       -0.0103
      7  C9        -0.4440   23.4680   57.9230 C.ar    0  <0>0        0.0537
      8  C8        -0.1970   22.1940   57.4430 C.ar    0  <0>0        0.0111
      9 Cl         -1.1860   23.6810   59.4780 Cl      0  <0>0       -0.0826
     10  C7         0.3980   22.0250   56.2070 C.ar    0  <0>0        0.0008
     11  C6         0.7430   23.1280   55.4490 C.ar    0  <0>0       -0.0003
     12  C5         0.4920   24.4010   55.9260 C.ar    0  <0>0       -0.0034
     13  C10       -0.2680   28.4790   54.9010 C.3     0  <0>0        0.0767
     14  C11       -0.6370   27.8160   53.5990 C.ar    0  <0>0       -0.0080
     15  C16       -0.2250   26.5210   53.3430 C.ar    0  <0>0       -0.0030
     16  C15       -0.5680   25.9110   52.1500 C.ar    0  <0>0       -0.0003
     17  C14       -1.3130   26.5990   51.2110 C.ar    0  <0>0       -0.0000
     18  C13       -1.7200   27.8950   51.4650 C.ar    0  <0>0       -0.0003
     19  C12       -1.3810   28.5040   52.6590 C.ar    0  <0>0       -0.0030
     20  C17       -0.8460   29.8960   54.9320 C.3     0  <0>0        0.0186
     21  C18       -1.8680   30.0050   56.0650 C.3     0  <0>0        0.0017
     22  C19        0.2840   30.9010   55.1650 C.3     0  <0>0        0.0017
@<TRIPOS>BOND
     1    17    18   ar
     2    17    16   ar
     3    18    19   ar
     4    16    15   ar
     5    19    14   ar
     6    15    14   ar
     7    14    13    1
     8    13    20    1
     9    13     1    1
    10    20    22    1
    11    20    21    1
    12    11    12   ar
    13    11    10   ar
    14     2     1    1
    15    12     6   ar
    16     1     3    1
    17    10     8   ar
    18     3     4    1
    19     3     5    1
    20     6     5    1
    21     6     7   ar
    22     8     7   ar
    23     7     9    1


@<TRIPOS>MOLECULE
ZINC01172050_replica-1.pdb
 26 27 0 0 0
SMALL
GASTEIGER

@<TRIPOS>ATOM
       1  C1         15.4520   33.4580   64.9030  C.3       1 <0>        -0.1491
       2  C2         14.9360   32.9410   63.5590  C.3       1 <0>        -0.0948
       3  C3         13.8410   31.9000   63.7990  C.3       1 <0>        -0.1481
       4  C4         14.3640   34.1060   62.7490  C.3       1 <0>         0.0586
       5  O1         13.1230   34.5200   63.3220  O.3       1 <0>        -0.3059
       6  C5         12.1230   34.8390   62.4620  C.ar      1 <0>         0.1676
       7  C6         11.6220   36.1350   62.4300  C.ar      1 <0>        -0.2183
       8  C7         10.6070   36.4620   61.5600  C.ar      1 <0>        -0.0082
       9  C8         10.0800   35.4890   60.7060  C.ar      1 <0>        -0.1809
      10  C9         10.5860   34.1870   60.7400  C.ar      1 <0>        -0.0418
      11  C10        11.6040   33.8690   61.6110  C.ar      1 <0>        -0.1590
      12  C11         8.9920   35.8360   59.7720  C.2       1 <0>         0.5598
      13  O2          8.0960   36.5760   60.1290  O.2       1 <0>        -0.5012
      14  N1          8.9910   35.3320   58.5220  N.am      1 <0>        -0.6512
      15  C12         7.9110   35.5780   57.6700  C.2       1 <0>         0.1098
      16  C13         6.7840   34.8340   57.7720  C.2       1 <0>        -0.1165
      17  C14         5.7060   34.9910   56.7840  C.ar      1 <0>        -0.0534
      18  C15         4.6590   35.8880   57.0220  C.ar      1 <0>        -0.1286
      19  C16         3.6530   36.0300   56.0910  C.ar      1 <0>        -0.1124
      20  C17         3.6750   35.2870   54.9240  C.ar      1 <0>        -0.1140
      21  C18         4.7070   34.3970   54.6810  C.ar      1 <0>        -0.1171
      22  C19         5.7250   34.2470   55.5990  C.ar      1 <0>        -0.0989
      23  C20         7.9970   36.6440   56.6630  C.2       1 <0>         0.5310
      24  O3          8.4740   36.4110   55.5700  O.2       1 <0>        -0.4828
      25  O4          7.5460   37.8820   56.9520  O.3       1 <0>        -0.3407
      26  C21         8.5030   38.8240   57.4410  C.3       1 <0>         0.0369
@<TRIPOS>BOND
     1     1     2 1
     2     2     3 1
     3     2     4 1
     4     4     5 1
     5     5     6 1
     6     6    11 ar
     7     6     7 ar
     8     7     8 ar
     9     8     9 ar
    10     9    10 ar
    11     9    12 1
    12    10    11 ar
    13    12    13 2
    14    12    14 am
    15    14    15 1
    16    15    16 2
    17    15    23 1
    18    16    17 1
    19    17    22 ar
    20    17    18 ar
    21    18    19 ar
    22    19    20 ar
    23    20    21 ar
    24    21    22 ar
    25    23    24 2
    26    23    25 1
    27    25    26 1

@<TRIPOS>MOLECULE
ZINC66165785_replica-1.pdb
 25 26 0 0 0
SMALL
GASTEIGER

@<TRIPOS>ATOM
       1  C1          0.6420   31.9800   58.6030  C.3       1 <0>        -0.1507
       2  C2          0.2390   32.8210   57.3900  C.3       1 <0>        -0.1239
       3  C3          0.2040   34.2990   57.7840  C.3       1 <0>         0.0604
       4  O1          0.9310   35.0650   56.8220  O.3       1 <0>        -0.3201
       5  C4          2.2160   35.3880   57.1320  C.ar      1 <0>         0.0733
       6  C5          3.1930   35.3680   56.1460  C.ar      1 <0>        -0.1583
       7  C6          4.4970   35.6960   56.4590  C.ar      1 <0>        -0.1548
       8  C7          4.8320   36.0450   57.7600  C.ar      1 <0>         0.1831
       9  C8          3.8540   36.0650   58.7460  C.ar      1 <0>        -0.1581
      10  C9          2.5480   35.7430   58.4310  C.ar      1 <0>        -0.1026
      11  N1          6.1540   36.3770   58.0780  N.pl3     1 <0>        -0.7485
      12  C10         6.4360   37.2360   59.2310  C.3       1 <0>         0.1328
      13  C11         7.8930   37.6990   59.1780  C.3       1 <0>         0.0728
      14  C12         8.0240   38.8620   58.1920  C.3       1 <0>        -0.1794
      15  O2          8.7210   36.6160   58.7490  O.3       1 <0>        -0.3060
      16  C13         9.5760   36.0920   59.6670  C.ar      1 <0>         0.1251
      17  C14        10.1070   34.8240   59.4770  C.ar      1 <0>        -0.2078
      18  C15        10.9750   34.2930   60.4100  C.ar      1 <0>        -0.0752
      19  C16        11.3160   35.0230   61.5340  C.ar      1 <0>        -0.1059
      20  C17        10.7870   36.2860   61.7260  C.ar      1 <0>        -0.0811
      21  C18         9.9230   36.8240   60.7930  C.ar      1 <0>        -0.1491
      22  C19        12.2630   34.4410   62.5510  C.3       1 <0>        -0.0264
      23  C20        11.7650   33.0590   62.9800  C.3       1 <0>        -0.1393
      24  C21        13.6570   34.3110   61.9320  C.3       1 <0>        -0.1460
      25  C22        12.3300   35.3600   63.7720  C.3       1 <0>        -0.1394
@<TRIPOS>BOND
     1     1     2 1
     2     2     3 1
     3     3     4 1
     4     4     5 1
     5     5    10 ar
     6     5     6 ar
     7     6     7 ar
     8     7     8 ar
     9     8     9 ar
    10     8    11 1
    11     9    10 ar
    12    11    12 1
    13    12    13 1
    14    13    14 1
    15    13    15 1
    16    15    16 1
    17    16    21 ar
    18    16    17 ar
    19    17    18 ar
    20    18    19 ar
    21    19    20 ar
    22    19    22 1
    23    20    21 ar
    24    22    23 1
    25    22    24 1
    26    22    25 1

@<TRIPOS>MOLECULE
ZINC12986828_replica-1.pdb
 31 34 0 0 0
SMALL
GASTEIGER

@<TRIPOS>ATOM
       1  C1         10.9610   36.6290   62.3350  C.3       1 <0>        -0.1194
       2  C2         10.1940   36.5870   61.0380  C.ar      1 <0>        -0.0778
       3  C3          9.4290   37.6750   60.6540  C.ar      1 <0>        -0.1199
       4  C4          8.7300   37.6440   59.4660  C.ar      1 <0>        -0.0594
       5  C5          8.7860   36.5100   58.6550  C.ar      1 <0>        -0.0490
       6  C6          9.5600   35.4180   59.0470  C.ar      1 <0>        -0.0976
       7  C7         10.2590   35.4630   60.2340  C.ar      1 <0>        -0.0944
       8  C8         11.0960   34.2830   60.6590  C.3       1 <0>        -0.1162
       9  C9          8.0320   36.4700   57.3800  C.2       1 <0>        -0.0078
      10  C10         8.6090   36.8750   56.2240  C.2       1 <0>        -0.1826
      11  S1          7.3230   36.6370   55.0130  S.3       1 <0>         0.1547
      12  C11         6.0510   36.0040   56.0760  C.2       1 <0>         0.1175
      13  C12         6.6530   35.9920   57.3460  C.2       1 <0>        -0.2461
      14  C13         5.8370   35.5170   58.4180  C.2       1 <0>         0.5592
      15  O1          6.2750   35.4720   59.5550  O.2       1 <0>        -0.5009
      16  N1          4.5800   35.1150   58.1570  N.am      1 <0>        -0.6190
      17  C14         4.0700   35.1660   56.8920  C.2       1 <0>         0.3629
      18  N2          4.8010   35.5980   55.8860  N.2       1 <0>        -0.5021
      19  S2          2.4140   34.6350   56.6000  S.3       1 <0>         0.1082
      20  C15         1.5480   35.5950   57.8680  C.3       1 <0>        -0.1507
      21  C16         1.4240   34.7720   59.1240  C.2       1 <0>         0.5374
      22  O2          2.3830   34.6270   59.8520  O.2       1 <0>        -0.5016
      23  N3          0.2470   34.1960   59.4380  N.am      1 <0>        -0.6597
      24  C17         0.1540   33.3540   60.5550  C.ar      1 <0>         0.0998
      25  C18         0.4720   32.0080   60.4380  C.ar      1 <0>        -0.0634
      26  C19         0.3810   31.1790   61.5390  C.ar      1 <0>        -0.1420
      27  C20        -0.0260   31.6900   62.7610  C.ar      1 <0>         0.1221
      28  C21        -0.3430   33.0320   62.8810  C.ar      1 <0>        -0.1728
      29  C22        -0.2490   33.8660   61.7830  C.ar      1 <0>         0.1097
      30  F1         -0.5540   35.1770   61.9010  F         1 <0>        -0.1260
      31  F2         -0.1140   30.8770   63.8370  F         1 <0>        -0.1274
@<TRIPOS>BOND
     1     1     2 1
     2     2     7 ar
     3     2     3 ar
     4     3     4 ar
     5     4     5 ar
     6     5     6 ar
     7     5     9 1
     8     6     7 ar
     9     7     8 1
    10     9    13 1
    11     9    10 2
    12    10    11 1
    13    11    12 1
    14    12    18 1
    15    12    13 2
    16    13    14 1
    17    14    15 2
    18    14    16 am
    19    16    17 1
    20    17    18 2
    21    17    19 1
    22    19    20 1
    23    20    21 1
    24    21    22 2
    25    21    23 am
    26    23    24 1
    27    24    29 ar
    28    24    25 ar
    29    25    26 ar
    30    26    27 ar
    31    27    28 ar
    32    27    31 1
    33    28    29 ar
    34    29    30 1

@<TRIPOS>MOLECULE
ZINC37085956_replica-1.pdb
 22 23 0 0 0
SMALL
GASTEIGER

@<TRIPOS>ATOM
      1  C4         8.8420   36.4510   59.2840 C.3     0  <0>0        0.0919
      2  C3         8.8580   37.9770   59.1750 C.3     0  <0>0        0.0241
      3  C2         7.4200   38.5020   59.1670 C.3     0  <0>0        0.0020
      4  C1         6.5330   37.5730   59.9980 C.3     0  <0>0        0.0001
      5  C5         9.8410   36.0130   60.3230 C.ar    0  <0>0       -0.0045
      6  C10       10.1550   36.8500   61.3760 C.ar    0  <0>0       -0.0018
      7  C9        11.0670   36.4450   62.3330 C.ar    0  <0>0        0.0111
      8  C8        11.6740   35.2070   62.2300 C.ar    0  <0>0        0.0577
      9  C7        11.3640   34.3710   61.1720 C.ar    0  <0>0        0.0111
     10 Cl         12.8250   34.7000   63.4270 Cl      0  <0>0       -0.0822
     11  C6        10.4470   34.7740   60.2190 C.ar    0  <0>0       -0.0018
     12  N1         9.1940   35.8650   57.9890 N.pl3   0  <0>0       -0.3296
     13  H13       10.1010   35.5630   57.8240 H       0  <0>0        0.1471
     14  C11        8.2220   35.7400   56.9890 C.ar    0  <0>0        0.0583
     15  C16        7.3380   34.6620   57.0050 C.ar    0  <0>0        0.0612
     16  C15        6.3740   34.5460   56.0140 C.ar    0  <0>0        0.0158
     17  C14        6.2990   35.4920   55.0090 C.ar    0  <0>0        0.0014
     18  C13        7.1810   36.5580   54.9900 C.ar    0  <0>0        0.0013
     19  C12        8.1410   36.6840   55.9760 C.ar    0  <0>0        0.0156
     20  N2         7.4190   33.7010   58.0210 N.pl3   0  <0>0       -0.3031
     21  C17        8.4080   32.6240   57.9330 C.3     0  <0>0        0.1123
     22  C18        6.5140   33.7750   59.1710 C.3     0  <0>0        0.1123
@<TRIPOS>BOND
     1    18    17   ar
     2    18    19   ar
     3    17    16   ar
     4    19    14   ar
     5    16    15   ar
     6    14    15   ar
     7    14    12    1
     8    15    20    1
     9    13    12    1
    10    21    20    1
    11    12     1    1
    12    20    22    1
    13     3     2    1
    14     3     4    1
    15     2     1    1
    16     1     5    1
    17    11     5   ar
    18    11     9   ar
    19     5     6   ar
    20     9     8   ar
    21     6     7   ar
    22     8     7   ar
    23     8    10    1


@<TRIPOS>MOLECULE
ZINC27744526_replica-1.pdb
 30 33 0 0 0
SMALL
GASTEIGER

@<TRIPOS>ATOM
       1  C1         -3.0750   26.4630   60.0100  C.3       1 <0>         0.0237
       2  O1         -2.1650   26.1350   58.9580  O.3       1 <0>        -0.3179
       3  C2         -1.9240   27.0960   58.0280  C.ar      1 <0>         0.1257
       4  C3         -2.9800   27.7950   57.4610  C.ar      1 <0>        -0.1486
       5  C4         -2.7320   28.7710   56.5150  C.ar      1 <0>        -0.0700
       6  C5         -1.4330   29.0520   56.1330  C.ar      1 <0>        -0.1056
       7  C6         -0.3790   28.3530   56.6930  C.ar      1 <0>        -0.0725
       8  C7         -0.6210   27.3800   57.6440  C.ar      1 <0>        -0.2052
       9  C8         -1.1650   30.1170   55.1010  C.3       1 <0>         0.0230
      10  C9          0.3420   30.3650   55.0030  C.3       1 <0>         0.1385
      11  N1          0.6340   31.7490   55.3840  N.am      1 <0>        -0.7340
      12  C10         1.1700   32.0170   56.5910  C.2       1 <0>         0.5605
      13  O2          1.4110   31.1100   57.3640  O.2       1 <0>        -0.5244
      14  C11         1.4650   33.4110   56.9740  C.ar      1 <0>        -0.1723
      15  C12         0.7260   34.0320   57.9850  C.ar      1 <0>        -0.0463
      16  C13         1.0090   35.3320   58.3420  C.ar      1 <0>        -0.1669
      17  C14         2.0180   36.0320   57.6970  C.ar      1 <0>        -0.0526
      18  C15         2.7520   35.4310   56.6940  C.ar      1 <0>        -0.2210
      19  C16         2.4830   34.1200   56.3250  C.ar      1 <0>         0.1835
      20  O3          3.2040   33.5290   55.3390  O.3       1 <0>        -0.2806
      21  C17         4.2300   34.3130   54.7260  C.3       1 <0>         0.0169
      22  C18        -1.6880   29.6620   53.7630  C.2       1 <0>        -0.1678
      23  C19        -2.5720   30.3120   52.9890  C.2       1 <0>         0.0565
      24  N2         -2.8060   29.5970   51.8460  N.pl3     1 <0>        -0.6050
      25  C20        -2.0650   28.4370   51.8600  C.ar      1 <0>         0.1097
      26  C21        -1.3330   28.4260   53.0620  C.ar      1 <0>        -0.1009
      27  C22        -0.4840   27.3570   53.3520  C.ar      1 <0>        -0.0757
      28  C23        -0.3690   26.3230   52.4650  C.ar      1 <0>        -0.1451
      29  C24        -1.0890   26.3280   51.2780  C.ar      1 <0>        -0.0997
      30  C25        -1.9330   27.3740   50.9730  C.ar      1 <0>        -0.1302
@<TRIPOS>BOND
     1     1     2 1
     2     2     3 1
     3     3     8 ar
     4     3     4 ar
     5     4     5 ar
     6     5     6 ar
     7     6     7 ar
     8     6     9 1
     9     7     8 ar
    10     9    10 1
    11     9    22 1
    12    10    11 1
    13    11    12 am
    14    12    13 2
    15    12    14 1
    16    14    19 ar
    17    14    15 ar
    18    15    16 ar
    19    16    17 ar
    20    17    18 ar
    21    18    19 ar
    22    19    20 1
    23    20    21 1
    24    22    26 1
    25    22    23 2
    26    23    24 1
    27    24    25 1
    28    25    30 ar
    29    25    26 ar
    30    26    27 ar
    31    27    28 ar
    32    28    29 ar
    33    29    30 ar

@<TRIPOS>MOLECULE
ZINC19888254_replica-1.pdb
 26 29 0 0 0
SMALL
GASTEIGER

@<TRIPOS>ATOM
       1  C1          6.0600   32.1850   61.2010  C.3       1 <0>         0.0229
       2  O1          5.1640   33.2480   61.5310  O.3       1 <0>        -0.3010
       3  C2          4.9310   34.1810   60.5690  C.ar      1 <0>         0.1491
       4  C3          5.8100   35.2390   60.3990  C.ar      1 <0>        -0.2186
       5  C4          5.5740   36.1880   59.4220  C.ar      1 <0>        -0.0284
       6  C5          4.4570   36.0880   58.6140  C.ar      1 <0>        -0.2280
       7  C6          3.5750   35.0290   58.7730  C.ar      1 <0>         0.1519
       8  C7          3.8100   34.0740   59.7530  C.ar      1 <0>         0.0272
       9  O2          2.9440   33.0360   59.9170  O.3       1 <0>        -0.3125
      10  C8          1.8840   33.2170   60.8580  C.3       1 <0>         0.0330
      11  O3          2.4800   34.9290   57.9720  O.3       1 <0>        -0.3014
      12  C9          2.1040   36.0960   57.2390  C.3       1 <0>         0.0208
      13  C10         6.5310   37.3370   59.2430  C.3       1 <0>         0.1982
      14  C11         7.4620   37.0660   58.0730  C.3       1 <0>        -0.0844
      15  C12         6.8110   36.7080   56.7300  C.3       1 <0>        -0.0907
      16  C13         7.8830   35.8210   56.0960  C.2       1 <0>        -0.1681
      17  C14         8.6230   35.2540   57.0420  C.2       1 <0>        -0.1654
      18  C15         8.1020   35.6760   58.3670  C.3       1 <0>        -0.0214
      19  C16         8.9820   35.8180   59.5460  C.ar      1 <0>        -0.1198
      20  C17        10.1560   35.1090   59.6830  C.ar      1 <0>        -0.1061
      21  C18        10.9350   35.2600   60.8180  C.ar      1 <0>         0.0422
      22  C19        10.5340   36.1280   61.8200  C.ar      1 <0>        -0.1097
      23  C20         9.3660   36.8480   61.6860  C.ar      1 <0>        -0.1681
      24  C21         8.5790   36.7050   60.5500  C.ar      1 <0>         0.2094
      25  N1          7.4060   37.4630   60.4290  N.pl3     1 <0>        -0.7502
      26  F1         12.0860   34.5640   60.9450  F         1 <0>        -0.1451
@<TRIPOS>BOND
     1     1     2 1
     2     2     3 1
     3     3     8 ar
     4     3     4 ar
     5     4     5 ar
     6     5     6 ar
     7     5    13 1
     8     6     7 ar
     9     7     8 ar
    10     7    11 1
    11     8     9 1
    12     9    10 1
    13    11    12 1
    14    13    25 1
    15    13    14 1
    16    14    18 1
    17    14    15 1
    18    15    16 1
    19    16    17 2
    20    17    18 1
    21    18    19 1
    22    19    24 ar
    23    19    20 ar
    24    20    21 ar
    25    21    22 ar
    26    21    26 1
    27    22    23 ar
    28    23    24 ar
    29    24    25 1

@<TRIPOS>MOLECULE
ZINC11888664_replica-1.pdb
 23 24 0 0 0
SMALL
GASTEIGER

@<TRIPOS>ATOM
       1  C1         11.9720   36.5800   63.8520  C.3       1 <0>        -0.1196
       2  C2         11.3980   36.1060   62.5420  C.ar      1 <0>        -0.0437
       3  C3         10.5390   36.9210   61.8310  C.ar      1 <0>        -0.1494
       4  C4         10.0100   36.4850   60.6250  C.ar      1 <0>         0.1291
       5  C5         10.3470   35.2300   60.1370  C.ar      1 <0>        -0.2128
       6  C6         11.2060   34.4190   60.8520  C.ar      1 <0>        -0.0707
       7  C7         11.7360   34.8590   62.0520  C.ar      1 <0>        -0.1131
       8  C8         12.6780   33.9750   62.8270  C.3       1 <0>        -0.0595
       9  C9         12.1120   32.5550   62.8870  C.3       1 <0>        -0.1457
      10  C10        14.0430   33.9520   62.1340  C.3       1 <0>        -0.1434
      11  O1          9.1640   37.2840   59.9230  O.3       1 <0>        -0.3085
      12  C11         8.7870   36.8400   58.6180  C.3       1 <0>         0.0619
      13  C12         7.2910   37.0870   58.4090  C.3       1 <0>         0.0601
      14  O2          6.7470   36.0520   57.5870  O.3       1 <0>        -0.3051
      15  C13         5.3960   36.0090   57.4650  C.ar      1 <0>         0.1508
      16  C14         4.8110   36.0850   56.2070  C.ar      1 <0>        -0.2228
      17  C15         3.4410   36.0420   56.0790  C.ar      1 <0>        -0.0517
      18  C16         2.6380   35.9180   57.2150  C.ar      1 <0>        -0.1581
      19  C17         3.2300   35.8410   58.4780  C.ar      1 <0>        -0.0464
      20  C18         4.6010   35.8800   58.5970  C.ar      1 <0>        -0.1613
      21  C19         1.1700   35.8720   57.0830  C.2       1 <0>         0.1574
      22  N1          0.5650   34.7310   56.9810  N.2       1 <0>        -0.3354
      23  O3          1.3180   33.5340   56.9210  O.3       1 <0>        -0.4043
@<TRIPOS>BOND
     1     1     2 1
     2     2     7 ar
     3     2     3 ar
     4     3     4 ar
     5     4     5 ar
     6     4    11 1
     7     5     6 ar
     8     6     7 ar
     9     7     8 1
    10     8     9 1
    11     8    10 1
    12    11    12 1
    13    12    13 1
    14    13    14 1
    15    14    15 1
    16    15    20 ar
    17    15    16 ar
    18    16    17 ar
    19    17    18 ar
    20    18    19 ar
    21    18    21 1
    22    19    20 ar
    23    21    22 2
    24    22    23 1

@<TRIPOS>MOLECULE
ZINC35648248_replica-1.pdb
 21 22 0 0 0
SMALL
GASTEIGER

@<TRIPOS>ATOM
      1  C1        -3.0100   30.4790   52.8550 C.3     0  <0>0        0.0215
      2  C2        -2.3840   29.6990   54.0130 C.3     0  <0>0        0.0735
      3  C3        -2.4410   30.5430   55.2880 C.3     0  <0>0        0.0458
      4  C4        -2.2150   29.6590   56.4860 C.ar    0  <0>0       -0.0203
      5  C9        -1.2280   29.9760   57.4020 C.ar    0  <0>0       -0.0011
      6  C8        -1.0230   29.1700   58.5050 C.ar    0  <0>0        0.0366
      7  C7        -1.8000   28.0350   58.6870 C.ar    0  <0>0        0.1387
      8  C6        -2.7860   27.7160   57.7650 C.ar    0  <0>0        0.0366
      9  C5        -2.9910   28.5280   56.6660 C.ar    0  <0>0       -0.0011
     10  O1        -1.5970   27.2380   59.7690 O.3     0  <0>0       -0.4714
     11  C10       -1.1650   25.9000   59.5180 C.3     0  <0>0        0.2525
     12  N1        -0.9880   29.3900   53.6940 N.pl3   0  <0>0       -0.3320
     13  H14       -0.3750   30.1030   53.4590 H       0  <0>0        0.1468
     14  C11       -0.5390   28.0660   53.7310 C.ar    0  <0>0        0.0733
     15  C16       -0.7720   27.2200   52.6530 C.ar    0  <0>0        0.1635
     16  C15       -0.3210   25.9120   52.6920 C.ar    0  <0>0        0.0863
     17  F1        -1.4330   27.6760   51.5670 F       0  <0>0       -0.2020
     18  C14        0.3510   25.4440   53.8080 C.ar    0  <0>0        0.0138
     19 Cl         -0.6050   24.8560   51.3440 Cl      0  <0>0       -0.0799
     20  C13        0.5790   26.2830   54.8840 C.ar    0  <0>0        0.0023
     21  C12        0.1360   27.5910   54.8480 C.ar    0  <0>0        0.0166
@<TRIPOS>BOND
     1    19    16    1
     2    17    15    1
     3    15    16   ar
     4    15    14   ar
     5    16    18   ar
     6     1     2    1
     7    13    12    1
     8    12    14    1
     9    12     2    1
    10    14    21   ar
    11    18    20   ar
    12     2     3    1
    13    21    20   ar
    14     3     4    1
    15     4     9   ar
    16     4     5   ar
    17     9     8   ar
    18     5     6   ar
    19     8     7   ar
    20     6     7   ar
    21     7    10    1
    22    11    10    1


@<TRIPOS>MOLECULE
ZINC49891888_replica-1.pdb
 21 22 0 0 0
SMALL
GASTEIGER

@<TRIPOS>ATOM
       1  C1         -0.5490   24.9520   51.5270  C.3       1 <0>        -0.1088
       2  C2         -0.4800   26.0990   52.5030  C.ar      1 <0>        -0.1453
       3  C3          0.2030   25.9480   53.6960  C.ar      1 <0>        -0.0692
       4  C4          0.2690   26.9960   54.5940  C.ar      1 <0>        -0.1981
       5  C5         -0.3510   28.2040   54.2950  C.ar      1 <0>         0.2129
       6  C6         -1.0350   28.3510   53.0960  C.ar      1 <0>        -0.1937
       7  C7         -1.0930   27.3000   52.2010  C.ar      1 <0>        -0.0394
       8  C8         -1.8300   27.4620   50.8960  C.3       1 <0>        -0.1183
       9  N1         -0.2870   29.2650   55.1990  N.pl3     1 <0>        -0.7520
      10  C9         -0.5940   30.6280   54.7550  C.3       1 <0>         0.1292
      11  C10        -0.8090   31.5260   55.9750  C.3       1 <0>        -0.1600
      12  C11         0.5030   32.2350   56.3210  C.3       1 <0>         0.1550
      13  C12         0.5790   32.4490   57.8110  C.ar      1 <0>        -0.1001
      14  C13         0.6410   31.3610   58.6620  C.ar      1 <0>        -0.0928
      15  C14         0.7110   31.5530   60.0280  C.ar      1 <0>        -0.1195
      16  C15         0.7190   32.8370   60.5470  C.ar      1 <0>         0.0696
      17  C16         0.6570   33.9280   59.6940  C.ar      1 <0>         0.0730
      18  C17         0.5920   33.7320   58.3260  C.ar      1 <0>        -0.1161
      19  F1          0.6630   35.1810   60.1990  F         1 <0>        -0.1249
      20  F2          0.7870   33.0260   61.8830  F         1 <0>        -0.1255
      21  O1          1.6050   31.4330   55.8980  O.3       1 <0>        -0.5472
@<TRIPOS>BOND
     1     1     2 1
     2     2     7 ar
     3     2     3 ar
     4     3     4 ar
     5     4     5 ar
     6     5     6 ar
     7     5     9 1
     8     6     7 ar
     9     7     8 1
    10     9    10 1
    11    10    11 1
    12    11    12 1
    13    12    13 1
    14    12    21 1
    15    13    18 ar
    16    13    14 ar
    17    14    15 ar
    18    15    16 ar
    19    16    17 ar
    20    16    20 1
    21    17    18 ar
    22    17    19 1

@<TRIPOS>MOLECULE
ZINC66165761_replica-1.pdb
 24 25 0 0 0
SMALL
GASTEIGER

@<TRIPOS>ATOM
       1  C1          3.6680   36.0580   56.0800  C.3       1 <0>        -0.1507
       2  C2          2.8720   35.6060   57.3050  C.3       1 <0>        -0.1239
       3  C3          1.3750   35.7530   57.0230  C.3       1 <0>         0.0604
       4  O1          0.6300   35.2840   58.1480  O.3       1 <0>        -0.3201
       5  C4          0.5380   33.9370   58.3110  C.ar      1 <0>         0.0734
       6  C5          0.8870   33.3600   59.5230  C.ar      1 <0>        -0.1583
       7  C6          0.7950   31.9920   59.6910  C.ar      1 <0>        -0.1547
       8  C7          0.3530   31.1940   58.6440  C.ar      1 <0>         0.1830
       9  C8          0.0030   31.7720   57.4310  C.ar      1 <0>        -0.1580
      10  C9          0.0920   33.1410   57.2670  C.ar      1 <0>        -0.1027
      11  N1          0.2590   29.8080   58.8110  N.pl3     1 <0>        -0.7486
      12  C10        -1.0400   29.1420   58.7020  C.3       1 <0>         0.1328
      13  C11        -0.8940   27.8700   57.8650  C.3       1 <0>         0.0727
      14  C12        -0.6590   26.6750   58.7900  C.3       1 <0>        -0.1795
      15  O2          0.2160   28.0110   56.9760  O.3       1 <0>        -0.3059
      16  C13         0.0010   27.7080   55.6690  C.ar      1 <0>         0.1255
      17  C14        -0.6420   28.6160   54.8420  C.ar      1 <0>        -0.2079
      18  C15        -0.8580   28.3060   53.5120  C.ar      1 <0>        -0.0780
      19  C16        -0.4330   27.0920   53.0070  C.ar      1 <0>        -0.1124
      20  C17         0.2080   26.1840   53.8290  C.ar      1 <0>        -0.0746
      21  C18         0.4320   26.4920   55.1580  C.ar      1 <0>        -0.1486
      22  C19        -0.6700   26.7560   51.5570  C.3       1 <0>        -0.0538
      23  C20        -1.0180   25.2720   51.4270  C.3       1 <0>        -0.1454
      24  C21        -1.8290   27.6000   51.0210  C.3       1 <0>        -0.1455
@<TRIPOS>BOND
     1     1     2 1
     2     2     3 1
     3     3     4 1
     4     4     5 1
     5     5    10 ar
     6     5     6 ar
     7     6     7 ar
     8     7     8 ar
     9     8     9 ar
    10     8    11 1
    11     9    10 ar
    12    11    12 1
    13    12    13 1
    14    13    14 1
    15    13    15 1
    16    15    16 1
    17    16    21 ar
    18    16    17 ar
    19    17    18 ar
    20    18    19 ar
    21    19    20 ar
    22    19    22 1
    23    20    21 ar
    24    22    23 1
    25    22    24 1

@<TRIPOS>MOLECULE
ZINC19995190_replica-1.pdb
 21 22 0 0 0
SMALL
GASTEIGER

@<TRIPOS>ATOM
       1  C1         11.3720   36.4440   62.5160  C.3       1 <0>        -0.1662
       2  C2         11.2690   35.5120   61.3070  C.3       1 <0>         0.1923
       3  C3         10.1860   36.0060   60.3820  C.ar      1 <0>        -0.0571
       4  C4          9.6040   37.2420   60.5990  C.ar      1 <0>        -0.1364
       5  C5          8.6110   37.6990   59.7520  C.ar      1 <0>        -0.0745
       6  C6          8.1960   36.9200   58.6880  C.ar      1 <0>        -0.1880
       7  C7          8.7780   35.6800   58.4700  C.ar      1 <0>         0.1114
       8  C8          9.7750   35.2240   59.3200  C.ar      1 <0>        -0.1241
       9  O1          8.3760   34.9150   57.4210  O.3       1 <0>        -0.3187
      10  C9          7.8050   35.5970   56.3020  C.3       1 <0>         0.4093
      11  F1          8.8040   36.3150   55.6360  F         1 <0>        -0.1982
      12  F2          7.2390   34.6640   55.4270  F         1 <0>        -0.1983
      13  N1         10.9420   34.1570   61.7610  N.pl3     1 <0>        -0.7443
      14  C10        11.9240   33.3680   62.3660  C.ar      1 <0>         0.2281
      15  C11        13.2520   33.7760   62.3510  C.ar      1 <0>        -0.2210
      16  C12        14.2210   32.9930   62.9540  C.ar      1 <0>         0.1433
      17  C13        13.8690   31.8000   63.5640  C.ar      1 <0>        -0.1897
      18  C14        12.5490   31.3890   63.5750  C.ar      1 <0>        -0.0730
      19  C15        11.5750   32.1690   62.9780  C.ar      1 <0>         0.0066
      20  F3         10.2850   31.7660   62.9890  F         1 <0>        -0.1398
      21  F4         15.5110   33.3910   62.9450  F         1 <0>        -0.1340
@<TRIPOS>BOND
     1     1     2 1
     2     2     3 1
     3     2    13 1
     4     3     8 ar
     5     3     4 ar
     6     4     5 ar
     7     5     6 ar
     8     6     7 ar
     9     7     8 ar
    10     7     9 1
    11     9    10 1
    12    10    11 1
    13    10    12 1
    14    13    14 1
    15    14    19 ar
    16    14    15 ar
    17    15    16 ar
    18    16    17 ar
    19    16    21 1
    20    17    18 ar
    21    18    19 ar
    22    19    20 1

@<TRIPOS>MOLECULE
ZINC40734952_replica-1.pdb
 28 30 0 0 0
SMALL
GASTEIGER

@<TRIPOS>ATOM
       1  C1         11.7020   30.7450   63.6720  C.3       1 <0>        -0.1202
       2  C2         12.3550   32.0190   63.2000  C.ar      1 <0>        -0.0846
       3  C3         13.7330   32.1150   63.1540  C.ar      1 <0>        -0.1027
       4  C4         14.3320   33.2820   62.7200  C.ar      1 <0>        -0.1144
       5  C5         13.5510   34.3550   62.3310  C.ar      1 <0>        -0.0999
       6  C6         12.1730   34.2600   62.3750  C.ar      1 <0>        -0.1054
       7  C7         11.5750   33.0910   62.8050  C.ar      1 <0>        -0.0995
       8  C8         11.3230   35.4300   61.9510  C.3       1 <0>         0.1027
       9  O1         10.2180   34.9600   61.1770  O.3       1 <0>        -0.3154
      10  C9          9.6920   35.8200   60.2660  C.ar      1 <0>         0.1909
      11  C10         9.6400   37.1870   60.5580  C.ar      1 <0>        -0.2107
      12  C11         9.1200   38.0730   59.6660  C.ar      1 <0>        -0.0139
      13  C12         8.6260   37.6120   58.4340  C.ar      1 <0>        -0.0905
      14  C13         8.0820   38.5000   57.4900  C.ar      1 <0>        -0.0733
      15  C14         7.6120   38.0200   56.3060  C.ar      1 <0>        -0.1275
      16  C15         7.6630   36.6580   56.0130  C.ar      1 <0>        -0.0690
      17  C16         8.1830   35.7700   56.9030  C.ar      1 <0>        -0.1561
      18  C17         8.6770   36.2270   58.1360  C.ar      1 <0>         0.0097
      19  C18         9.2250   35.3400   59.0760  C.ar      1 <0>        -0.2161
      20  C19         9.2940   33.8650   58.7750  C.3       1 <0>         0.0579
      21  N1          8.3900   33.1390   59.6770  N.4       1 <0>        -0.5071
      22  C20         7.6560   32.1180   58.9160  C.3       1 <0>        -0.0065
      23  C21         6.4890   32.7750   58.1760  C.3       1 <0>        -0.1500
      24  C22         5.5000   33.3510   59.1910  C.3       1 <0>         0.0648
      25  O2          5.9510   34.6380   59.6170  O.3       1 <0>        -0.3812
      26  C23         4.9710   35.6700   59.4840  C.3       1 <0>         0.0845
      27  C24         5.5270   36.9780   60.0520  C.3       1 <0>        -0.1540
      28  C25         4.6290   35.8610   58.0050  C.3       1 <0>        -0.1784
@<TRIPOS>BOND
     1     1     2 1
     2     2     7 ar
     3     2     3 ar
     4     3     4 ar
     5     4     5 ar
     6     5     6 ar
     7     6     7 ar
     8     6     8 1
     9     8     9 1
    10     9    10 1
    11    10    19 ar
    12    10    11 ar
    13    11    12 ar
    14    12    13 ar
    15    13    18 ar
    16    13    14 ar
    17    14    15 ar
    18    15    16 ar
    19    16    17 ar
    20    17    18 ar
    21    18    19 ar
    22    19    20 1
    23    20    21 1
    24    21    22 1
    25    22    23 1
    26    23    24 1
    27    24    25 1
    28    25    26 1
    29    26    27 1
    30    26    28 1

@<TRIPOS>MOLECULE
ZINC05849090_replica-1.pdb
 29 31 0 0 0
SMALL
GASTEIGER

@<TRIPOS>ATOM
       1  C1         -0.4310   31.7470   63.0410  C.3       1 <0>        -0.1455
       2  C2          0.5440   31.2390   61.9760  C.3       1 <0>        -0.0545
       3  C3         -0.1770   30.2540   61.0530  C.3       1 <0>        -0.1455
       4  C4          1.0540   32.4030   61.1660  C.ar      1 <0>        -0.1098
       5  C5          0.2490   33.5110   60.9680  C.ar      1 <0>        -0.0768
       6  C6          0.7140   34.5790   60.2250  C.ar      1 <0>        -0.1416
       7  C7          1.9890   34.5410   59.6790  C.ar      1 <0>         0.1214
       8  C8          2.7910   33.4280   59.8760  C.ar      1 <0>        -0.2066
       9  C9          2.3250   32.3640   60.6230  C.ar      1 <0>        -0.0740
      10  O1          2.4470   35.5920   58.9490  O.3       1 <0>        -0.2895
      11  C10         1.6680   35.9850   57.8190  C.3       1 <0>         0.0541
      12  C11         1.4910   34.8080   56.8960  C.2       1 <0>         0.5179
      13  O2          2.4380   34.3810   56.2690  O.2       1 <0>        -0.5111
      14  N1          0.2820   34.2250   56.7690  N.am      1 <0>        -0.5187
      15  N2          0.1180   33.1300   55.9100  N.am      1 <0>        -0.5170
      16  C12        -0.1070   31.9030   56.4200  C.2       1 <0>         0.5651
      17  O3         -0.1690   31.7460   57.6230  O.2       1 <0>        -0.5325
      18  C13        -0.2790   30.7480   55.5140  C.ar      1 <0>        -0.1340
      19  C14        -1.1280   30.8480   54.4080  C.ar      1 <0>        -0.0787
      20  C15        -1.2840   29.7720   53.5630  C.ar      1 <0>        -0.1182
      21  C16        -0.6030   28.5810   53.8140  C.ar      1 <0>        -0.0075
      22  C17         0.2400   28.4800   54.9220  C.ar      1 <0>        -0.1197
      23  C18         0.4010   29.5550   55.7660  C.ar      1 <0>        -0.0465
      24  C19        -0.7760   27.4230   52.9060  C.ar      1 <0>        -0.0599
      25  C20        -0.1920   26.1960   53.2160  C.ar      1 <0>        -0.1041
      26  C21        -0.3600   25.1200   52.3690  C.ar      1 <0>        -0.1186
      27  C22        -1.0990   25.2600   51.2080  C.ar      1 <0>        -0.1114
      28  C23        -1.6780   26.4760   50.8920  C.ar      1 <0>        -0.1187
      29  C24        -1.5200   27.5580   51.7350  C.ar      1 <0>        -0.1044
@<TRIPOS>BOND
     1     1     2 1
     2     2     3 1
     3     2     4 1
     4     4     9 ar
     5     4     5 ar
     6     5     6 ar
     7     6     7 ar
     8     7     8 ar
     9     7    10 1
    10     8     9 ar
    11    10    11 1
    12    11    12 1
    13    12    13 2
    14    12    14 am
    15    14    15 1
    16    15    16 am
    17    16    17 2
    18    16    18 1
    19    18    23 ar
    20    18    19 ar
    21    19    20 ar
    22    20    21 ar
    23    21    22 ar
    24    21    24 1
    25    22    23 ar
    26    24    29 ar
    27    24    25 ar
    28    25    26 ar
    29    26    27 ar
    30    27    28 ar
    31    28    29 ar

@<TRIPOS>MOLECULE
ZINC41085526_replica-1.pdb
 20 21 0 0 0
SMALL
GASTEIGER

@<TRIPOS>ATOM
       1  C1         -2.5660   30.0390   54.0280  C.3       1 <0>        -0.1418
       2  C2         -1.1140   29.5650   53.9380  C.3       1 <0>        -0.0515
       3  C3         -1.0450   28.3130   53.1020  C.ar      1 <0>        -0.0722
       4  C4         -1.6920   28.2600   51.8820  C.ar      1 <0>        -0.1049
       5  C5         -1.6290   27.1120   51.1140  C.ar      1 <0>        -0.1147
       6  C6         -0.9180   26.0160   51.5680  C.ar      1 <0>        -0.1176
       7  C7         -0.2710   26.0700   52.7880  C.ar      1 <0>        -0.1164
       8  C8         -0.3300   27.2190   53.5530  C.ar      1 <0>        -0.1035
       9  C9         -0.5860   29.2690   55.3440  C.3       1 <0>         0.1738
      10  C10         0.2120   30.4480   55.8390  C.2       1 <0>         0.4348
      11  O1          0.4920   31.3480   55.0820  O.2       1 <0>        -0.4910
      12  O2          0.6110   30.4990   57.1190  O.3       1 <0>        -0.3391
      13  C11         0.3390   31.7040   57.8370  C.3       1 <0>         0.0328
      14  N1         -1.7130   29.0270   56.2480  N.pl3     1 <0>        -0.7233
      15  C12        -1.7670   27.8510   56.9990  C.ar      1 <0>         0.2177
      16  C13        -2.9120   27.5380   57.7210  C.ar      1 <0>        -0.1955
      17  C14        -2.9620   26.3740   58.4620  C.ar      1 <0>        -0.0725
      18  C15        -1.8740   25.5210   58.4880  C.ar      1 <0>        -0.1740
      19  C16        -0.7320   25.8310   57.7720  C.ar      1 <0>        -0.0727
      20  C17        -0.6780   26.9900   57.0230  C.ar      1 <0>        -0.1863
@<TRIPOS>BOND
     1     1     2 1
     2     2     3 1
     3     2     9 1
     4     3     8 ar
     5     3     4 ar
     6     4     5 ar
     7     5     6 ar
     8     6     7 ar
     9     7     8 ar
    10     9    10 1
    11     9    14 1
    12    10    11 2
    13    10    12 1
    14    12    13 1
    15    14    15 1
    16    15    20 ar
    17    15    16 ar
    18    16    17 ar
    19    17    18 ar
    20    18    19 ar
    21    19    20 ar

@<TRIPOS>MOLECULE
ZINC12621845_replica-1.pdb
 32 36 0 0 0
SMALL
GASTEIGER

@<TRIPOS>ATOM
       1  C1          6.8360   32.7660   57.0310  C.3       1 <0>        -0.1033
       2  C2          7.1040   34.2450   56.9160  C.2       1 <0>        -0.0045
       3  C3          8.1380   34.9530   57.5500  C.2       1 <0>        -0.2116
       4  C4          8.0140   36.3090   57.1540  C.2       1 <0>         0.1182
       5  C5          8.7630   37.4460   57.4710  C.2       1 <0>        -0.1006
       6  C6          8.4090   38.6530   56.9330  C.2       1 <0>        -0.0871
       7  C7          7.3030   38.7260   56.0780  C.2       1 <0>        -0.1290
       8  C8          6.5930   37.6130   55.7870  C.2       1 <0>         0.0527
       9  N1          6.9390   36.4070   56.3180  N.pl3     1 <0>        -0.2986
      10  C9          6.3760   35.1510   56.1700  C.2       1 <0>        -0.1251
      11  C10         5.2410   34.8440   55.3780  C.2       1 <0>         0.4794
      12  O1          5.3770   34.5790   54.1970  O.2       1 <0>        -0.4239
      13  C11         3.8940   34.8430   55.9850  C.ar      1 <0>        -0.1802
      14  C12         3.3550   36.0260   56.4950  C.ar      1 <0>        -0.0317
      15  C13         2.0960   36.0210   57.0550  C.ar      1 <0>        -0.1662
      16  C14         1.3690   34.8430   57.1240  C.ar      1 <0>         0.1375
      17  C15         1.9020   33.6640   56.6240  C.ar      1 <0>        -0.1660
      18  C16         3.1580   33.6580   56.0560  C.ar      1 <0>        -0.0279
      19  F1          0.1370   34.8430   57.6790  F         1 <0>        -0.1302
      20  C17         9.1190   34.4160   58.4140  C.2       1 <0>         0.0866
      21  C18         9.0120   34.5990   59.7800  C.2       1 <0>        -0.0186
      22  C19         7.9070   35.3320   60.3190  C.1       1 <0>         0.2639
      23  N2          7.0310   35.9150   60.7480  N.1       1 <0>        -0.3988
      24  C20        10.0340   34.0400   60.6800  C.2       1 <0>         0.2043
      25  N3         11.2110   34.5370   61.0050  N.2       1 <0>        -0.4958
      26  C21        12.0520   33.9100   61.8510  C.ar      1 <0>         0.0793
      27  C22        13.3340   34.3290   62.2800  C.ar      1 <0>        -0.0583
      28  C23        14.0600   33.5740   63.1450  C.ar      1 <0>        -0.1108
      29  C24        13.5820   32.3680   63.6400  C.ar      1 <0>        -0.0900
      30  C25        12.3370   31.9190   63.2410  C.ar      1 <0>        -0.0681
      31  C26        11.5920   32.6770   62.3720  C.ar      1 <0>        -0.1402
      32  S1          9.9950   32.5150   61.6110  S.3       1 <0>         0.0139
@<TRIPOS>BOND
     1     1     2 1
     2     2    10 2
     3     2     3 1
     4     3     4 2
     5     3    20 1
     6     4     9 1
     7     4     5 1
     8     5     6 2
     9     6     7 1
    10     7     8 2
    11     8     9 1
    12     9    10 1
    13    10    11 1
    14    11    12 2
    15    11    13 1
    16    13    18 ar
    17    13    14 ar
    18    14    15 ar
    19    15    16 ar
    20    16    17 ar
    21    16    19 1
    22    17    18 ar
    23    20    21 2
    24    21    22 1
    25    21    24 1
    26    22    23 3
    27    24    32 1
    28    24    25 2
    29    25    26 1
    30    26    31 ar
    31    26    27 ar
    32    27    28 ar
    33    28    29 ar
    34    29    30 ar
    35    30    31 ar
    36    31    32 1

@<TRIPOS>MOLECULE
ZINC13468983_replica-1.pdb
 25 26 0 0 0
SMALL
GASTEIGER

@<TRIPOS>ATOM
       1  C1          8.5640   38.8090   57.3750  C.3       1 <0>        -0.1464
       2  C2          8.4770   38.1650   58.7600  C.3       1 <0>        -0.0967
       3  C3          7.0850   38.4100   59.3490  C.3       1 <0>        -0.1396
       4  C4          8.7210   36.6590   58.6380  C.3       1 <0>         0.1926
       5  C5          9.6190   36.2040   59.7600  C.ar      1 <0>        -0.0864
       6  C6         10.2210   34.9610   59.7000  C.ar      1 <0>        -0.0864
       7  C7         11.0490   34.5450   60.7260  C.ar      1 <0>        -0.1504
       8  C8         11.2650   35.3690   61.8180  C.ar      1 <0>         0.0903
       9  C9         10.6560   36.6100   61.8780  C.ar      1 <0>        -0.1500
      10  C10         9.8330   37.0270   60.8490  C.ar      1 <0>        -0.0772
      11  F1         12.0680   34.9600   62.8240  F         1 <0>        -0.1433
      12  N1          7.4430   35.9490   58.7170  N.am      1 <0>        -0.7453
      13  C11         6.9700   35.2900   57.6400  C.2       1 <0>         0.4954
      14  O1          7.6040   35.2850   56.6060  O.2       1 <0>        -0.4451
      15  C12         5.6540   34.5590   57.7200  C.3       1 <0>        -0.1060
      16  C13         4.5070   35.5580   57.5600  C.3       1 <0>        -0.0881
      17  C14         3.3550   35.1440   58.4410  C.ar      1 <0>        -0.0377
      18  C15         2.1290   35.7690   58.3140  C.ar      1 <0>        -0.0822
      19  C16         1.0720   35.3880   59.1180  C.ar      1 <0>        -0.1271
      20  C17         1.2440   34.3880   60.0570  C.ar      1 <0>        -0.1386
      21  C18         2.4730   33.7670   60.1890  C.ar      1 <0>        -0.1285
      22  C19         3.5280   34.1450   59.3810  C.ar      1 <0>        -0.1246
      23  C20         4.0560   35.5800   56.1220  C.2       1 <0>         0.4633
      24  O2          4.0170   36.6250   55.5170  O.co2     1 <0>        -0.6414
      25  O3          3.7050   34.4370   55.5110  O.co2     1 <0>        -0.7283
@<TRIPOS>BOND
     1     1     2 1
     2     2     3 1
     3     2     4 1
     4     4     5 1
     5     4    12 1
     6     5    10 ar
     7     5     6 ar
     8     6     7 ar
     9     7     8 ar
    10     8     9 ar
    11     8    11 1
    12     9    10 ar
    13    12    13 am
    14    13    14 2
    15    13    15 1
    16    15    16 1
    17    16    17 1
    18    16    23 1
    19    17    22 ar
    20    17    18 ar
    21    18    19 ar
    22    19    20 ar
    23    20    21 ar
    24    21    22 ar
    25    23    24 2
    26    23    25 1

@<TRIPOS>MOLECULE
ZINC05559993_replica-1.pdb
 25 27 0 0 0
SMALL
GASTEIGER

@<TRIPOS>ATOM
       1  C1         -2.5760   27.3250   58.0630  C.ar      1 <0>        -0.1170
       2  C2         -2.9060   28.3520   57.1980  C.ar      1 <0>        -0.1168
       3  C3         -2.0500   28.6860   56.1640  C.ar      1 <0>        -0.1063
       4  C4         -0.8650   27.9930   55.9970  C.ar      1 <0>        -0.0752
       5  C5         -0.5390   26.9640   56.8590  C.ar      1 <0>        -0.1121
       6  C6         -1.3920   26.6330   57.8960  C.ar      1 <0>        -0.1164
       7  C7          0.0670   28.3570   54.8710  C.3       1 <0>         0.0500
       8  C8          0.1670   29.8580   54.7670  C.2       1 <0>         0.0943
       9  N1          0.9300   30.5060   55.5650  N.2       1 <0>        -0.2488
      10  N2          1.0220   31.9000   55.4670  N.pl3     1 <0>        -0.5725
      11  C9          1.0740   32.6790   56.6260  C.ar      1 <0>         0.2935
      12  C10        -0.0450   32.7880   57.4420  C.ar      1 <0>        -0.1689
      13  C11         0.0090   33.5590   58.5850  C.ar      1 <0>        -0.0261
      14  C12         1.1760   34.2230   58.9200  C.ar      1 <0>        -0.1646
      15  C13         2.2940   34.1110   58.1130  C.ar      1 <0>        -0.0176
      16  C14         2.2450   33.3470   56.9640  C.ar      1 <0>        -0.1180
      17  N3          3.4400   33.2330   56.0970  N.pl3     1 <0>         0.0497
      18  O1          3.5010   33.8670   55.0590  O.2       1 <0>        -0.1414
      19  O2          4.3630   32.5090   56.4250  O.3       1 <0>        -0.2133
      20  C15        -0.4660   27.7990   53.5760  C.ar      1 <0>        -0.0748
      21  C16        -1.2660   28.5800   52.7640  C.ar      1 <0>        -0.1123
      22  C17        -1.7510   28.0690   51.5740  C.ar      1 <0>        -0.1164
      23  C18        -1.4450   26.7730   51.2020  C.ar      1 <0>        -0.1171
      24  C19        -0.6490   25.9910   52.0170  C.ar      1 <0>        -0.1166
      25  C20        -0.1590   26.5030   53.2040  C.ar      1 <0>        -0.1063
@<TRIPOS>BOND
     1     1     6 ar
     2     1     2 ar
     3     2     3 ar
     4     3     4 ar
     5     4     5 ar
     6     4     7 1
     7     5     6 ar
     8     7     8 1
     9     7    20 1
    10     8     9 2
    11     9    10 1
    12    10    11 1
    13    11    16 ar
    14    11    12 ar
    15    12    13 ar
    16    13    14 ar
    17    14    15 ar
    18    15    16 ar
    19    16    17 1
    20    17    18 2
    21    17    19 1
    22    20    25 ar
    23    20    21 ar
    24    21    22 ar
    25    22    23 ar
    26    23    24 ar
    27    24    25 ar

@<TRIPOS>MOLECULE
ZINC34955876_replica-1.pdb
 21 22 0 0 0
SMALL
GASTEIGER

@<TRIPOS>ATOM
      1  S1         7.1320   35.7590   57.6150 S.O2    0  <0>0        0.0774
      2  O2         7.7070   34.9300   56.6140 O.2     0  <0>0       -0.1497
      3  O3         6.6990   37.0860   57.3490 O.2     0  <0>0       -0.1497
      4  N1         5.8180   34.9430   58.2070 N.pl3   0  <0>0       -0.1888
      5  C1         6.0070   33.8180   59.1260 C.3     0  <0>0        0.1392
      6  C2         4.5260   35.3270   57.8290 C.ar    0  <0>0        0.0691
      7  C7         3.6210   35.7630   58.7880 C.ar    0  <0>0        0.0192
      8  C6         2.3490   36.1470   58.4120 C.ar    0  <0>0        0.0379
      9  C5         1.9710   36.0860   57.0790 C.ar    0  <0>0        0.1338
     10  C4         2.8720   35.6460   56.1220 C.ar    0  <0>0        0.0379
     11  C3         4.1470   35.2680   56.4940 C.ar    0  <0>0        0.0192
     12  O1         0.7160   36.4590   56.7110 O.3     0  <0>0       -0.5055
     13  H8         0.6920   37.1970   56.0880 H       0  <0>0        0.2922
     14  C8         8.3100   35.8650   58.9210 C.ar    0  <0>0        0.1359
     15  C13        8.0700   36.6900   60.0050 C.ar    0  <0>0        0.0770
     16  C12        8.9930   36.7700   61.0320 C.ar    0  <0>0        0.0194
     17 Cl          6.6060   37.6210   60.0780 Cl      0  <0>0       -0.0808
     18  C11       10.1600   36.0310   60.9690 C.ar    0  <0>0        0.0355
     19  C10       10.4030   35.2110   59.8820 C.ar    0  <0>0        0.0081
     20 Br         11.4260   36.1440   62.3700 Br      0  <0>0       -0.0490
     21  C9         9.4790   35.1280   58.8590 C.ar    0  <0>0        0.0216
@<TRIPOS>BOND
     1    13    12    1
     2    10    11   ar
     3    10     9   ar
     4    11     6   ar
     5     2     1    2
     6    12     9    1
     7     9     8   ar
     8     3     1    2
     9     1     4    1
    10     1    14    1
    11     6     4    1
    12     6     7   ar
    13     4     5    1
    14     8     7   ar
    15    21    14   ar
    16    21    19   ar
    17    14    15   ar
    18    19    18   ar
    19    15    17    1
    20    15    16   ar
    21    18    16   ar
    22    18    20    1


@<TRIPOS>MOLECULE
ZINC25157940_replica-1.pdb
 27 28 0 0 0
SMALL
GASTEIGER

@<TRIPOS>ATOM
       1  C1          8.5740   36.9650   61.8330  C.3       1 <0>        -0.1653
       2  C2          9.2160   35.9360   60.9000  C.3       1 <0>         0.1596
       3  C3          9.5770   36.6060   59.5730  C.3       1 <0>        -0.1541
       4  C4          8.7260   36.0290   58.4720  C.2       1 <0>         0.5086
       5  O1          9.0750   35.0170   57.9010  O.2       1 <0>        -0.5163
       6  N1          7.5740   36.6350   58.1220  N.am      1 <0>        -0.7272
       7  C5          6.7460   36.0740   57.0520  C.3       1 <0>         0.1966
       8  C6          5.3120   36.0040   57.5110  C.ar      1 <0>        -0.1279
       9  C7          5.0210   35.9600   58.8610  C.ar      1 <0>        -0.0748
      10  C8          3.7070   35.8960   59.2840  C.ar      1 <0>        -0.1476
      11  C9          2.6790   35.8750   58.3520  C.ar      1 <0>         0.1300
      12  C10         2.9750   35.9190   56.9970  C.ar      1 <0>        -0.2037
      13  C11         4.2890   35.9890   56.5790  C.ar      1 <0>        -0.0637
      14  O2          1.3860   35.8110   58.7650  O.3       1 <0>        -0.3171
      15  C12         1.0300   34.7180   59.6140  C.3       1 <0>         0.0260
      16  C13         6.8410   36.9650   55.8120  C.3       1 <0>        -0.0985
      17  C14         7.3240   38.3580   56.2210  C.3       1 <0>        -0.1370
      18  C15         7.8300   36.3530   54.8180  C.3       1 <0>        -0.1469
      19  N2         10.4300   35.4020   61.5240  N.am      1 <0>        -0.7120
      20  C16        10.6650   34.0750   61.5110  C.2       1 <0>         0.5669
      21  O3          9.8720   33.3210   60.9830  O.2       1 <0>        -0.5351
      22  C17        11.8900   33.5360   62.1400  C.ar      1 <0>        -0.1322
      23  C18        11.8550   32.3090   62.8060  C.ar      1 <0>        -0.0857
      24  C19        13.0010   31.8120   63.3890  C.ar      1 <0>        -0.1279
      25  C20        14.1850   32.5250   63.3170  C.ar      1 <0>        -0.0951
      26  C21        14.2260   33.7420   62.6590  C.ar      1 <0>        -0.1271
      27  C22        13.0890   34.2490   62.0660  C.ar      1 <0>        -0.0607
@<TRIPOS>BOND
     1     1     2 1
     2     2     3 1
     3     2    19 1
     4     3     4 1
     5     4     5 2
     6     4     6 am
     7     6     7 1
     8     7     8 1
     9     7    16 1
    10     8    13 ar
    11     8     9 ar
    12     9    10 ar
    13    10    11 ar
    14    11    12 ar
    15    11    14 1
    16    12    13 ar
    17    14    15 1
    18    16    17 1
    19    16    18 1
    20    19    20 am
    21    20    21 2
    22    20    22 1
    23    22    27 ar
    24    22    23 ar
    25    23    24 ar
    26    24    25 ar
    27    25    26 ar
    28    26    27 ar

@<TRIPOS>MOLECULE
ZINC04955936_replica-1.pdb
 22 24 0 0 0
SMALL
GASTEIGER

@<TRIPOS>ATOM
       1  C1          0.4670   33.8860   57.7540  C.3       1 <0>        -0.1424
       2  C2          1.1340   32.5570   57.3940  C.3       1 <0>        -0.0182
       3  C3          2.0880   32.7680   56.2170  C.3       1 <0>        -0.1440
       4  C4          1.9190   32.0370   58.6000  C.3       1 <0>        -0.1440
       5  C5          0.0770   31.5520   57.0110  C.2       1 <0>         0.1254
       6  C6          0.2700   30.2500   57.0160  C.2       1 <0>        -0.2177
       7  C7         -1.0330   29.6190   56.5710  C.3       1 <0>         0.0208
       8  C8         -1.9400   30.8060   56.3240  C.2       1 <0>         0.5366
       9  O1         -3.0930   30.7830   55.9480  O.2       1 <0>        -0.4892
      10  N1         -1.2000   31.8960   56.6100  N.am      1 <0>        -0.6639
      11  C9         -1.5970   28.7370   57.6560  C.ar      1 <0>        -0.0550
      12  C10        -2.5810   27.8140   57.3560  C.ar      1 <0>        -0.0982
      13  C11        -3.0940   27.0030   58.3500  C.ar      1 <0>        -0.1175
      14  C12        -2.6300   27.1210   59.6470  C.ar      1 <0>        -0.1172
      15  C13        -1.6490   28.0470   59.9480  C.ar      1 <0>        -0.1153
      16  C14        -1.1320   28.8550   58.9530  C.ar      1 <0>        -0.1128
      17  C15        -0.8330   28.8310   55.3010  C.ar      1 <0>        -0.0670
      18  C16        -0.0070   27.7230   55.2980  C.ar      1 <0>        -0.1033
      19  C17         0.1720   26.9980   54.1350  C.ar      1 <0>        -0.1230
      20  C18        -0.4660   27.3890   52.9720  C.ar      1 <0>        -0.1148
      21  C19        -1.2870   28.5010   52.9740  C.ar      1 <0>        -0.1193
      22  C20        -1.4710   29.2220   54.1380  C.ar      1 <0>        -0.0983
@<TRIPOS>BOND
     1     1     2 1
     2     2     3 1
     3     2     4 1
     4     2     5 1
     5     5    10 1
     6     5     6 2
     7     6     7 1
     8     7     8 1
     9     7    11 1
    10     7    17 1
    11     8     9 2
    12     8    10 am
    13    11    16 ar
    14    11    12 ar
    15    12    13 ar
    16    13    14 ar
    17    14    15 ar
    18    15    16 ar
    19    17    22 ar
    20    17    18 ar
    21    18    19 ar
    22    19    20 ar
    23    20    21 ar
    24    21    22 ar

@<TRIPOS>MOLECULE
ZINC32132527_replica-1.pdb
 21 22 0 0 0
SMALL
GASTEIGER

@<TRIPOS>ATOM
       1  C1         -3.0940   28.8380   56.2810  C.3       1 <0>        -0.1484
       2  C2         -2.5200   30.1830   55.8320  C.3       1 <0>        -0.0933
       3  C3         -1.2720   30.5050   56.6580  C.3       1 <0>        -0.1489
       4  C4         -2.1450   30.1080   54.3500  C.3       1 <0>         0.0610
       5  O1         -1.0110   29.2530   54.1890  O.3       1 <0>        -0.3032
       6  C5         -1.0860   28.3040   53.2190  C.ar      1 <0>         0.1492
       7  C6         -1.7960   28.5570   52.0540  C.ar      1 <0>        -0.2134
       8  C7         -1.8710   27.5920   51.0690  C.ar      1 <0>        -0.0711
       9  C8         -1.2400   26.3740   51.2430  C.ar      1 <0>        -0.1606
      10  C9         -0.5270   26.1220   52.4010  C.ar      1 <0>        -0.0621
      11  C10        -0.4530   27.0830   53.3920  C.ar      1 <0>        -0.1409
      12  C11         0.3190   26.8060   54.6550  C.3       1 <0>         0.1831
      13  N1          0.8360   25.4350   54.6210  N.pl3     1 <0>        -0.7500
      14  C12         0.5030   24.5360   55.6420  C.ar      1 <0>         0.1945
      15  C13         0.0050   25.0090   56.8480  C.ar      1 <0>        -0.1594
      16  C14        -0.3230   24.1220   57.8540  C.ar      1 <0>        -0.1006
      17  C15        -0.1520   22.7590   57.6600  C.ar      1 <0>         0.0624
      18  C16         0.3460   22.2860   56.4550  C.ar      1 <0>        -0.1561
      19  C17         0.6740   23.1730   55.4480  C.ar      1 <0>        -0.1650
      20  O2         -0.4740   21.8860   58.6520  O.3       1 <0>        -0.3229
      21  C18         0.5460   20.9780   59.0730  C.3       1 <0>         0.0268
@<TRIPOS>BOND
     1     1     2 1
     2     2     3 1
     3     2     4 1
     4     4     5 1
     5     5     6 1
     6     6    11 ar
     7     6     7 ar
     8     7     8 ar
     9     8     9 ar
    10     9    10 ar
    11    10    11 ar
    12    11    12 1
    13    12    13 1
    14    13    14 1
    15    14    19 ar
    16    14    15 ar
    17    15    16 ar
    18    16    17 ar
    19    17    18 ar
    20    17    20 1
    21    18    19 ar
    22    20    21 1

@<TRIPOS>MOLECULE
ZINC05542742_replica-1.pdb
 28 29 0 0 0
SMALL
GASTEIGER

@<TRIPOS>ATOM
       1  C1         -0.9610   27.3260   51.2720  C.3       1 <0>        -0.1175
       2  C2         -0.7720   27.3900   52.7650  C.ar      1 <0>        -0.0505
       3  C3         -0.0690   26.3910   53.4160  C.ar      1 <0>        -0.1515
       4  C4          0.1050   26.4470   54.7860  C.ar      1 <0>        -0.0734
       5  C5         -0.4220   27.5000   55.5090  C.ar      1 <0>        -0.1034
       6  C6         -1.1260   28.5020   54.8590  C.ar      1 <0>         0.1301
       7  C7         -1.3060   28.4410   53.4840  C.ar      1 <0>        -0.2084
       8  O1         -1.6450   29.5380   55.5690  O.3       1 <0>        -0.2855
       9  C8         -1.4840   30.8470   55.0170  C.3       1 <0>         0.0533
      10  C9         -0.1880   31.4420   55.5050  C.2       1 <0>         0.5180
      11  O2          0.8210   30.7700   55.5170  O.2       1 <0>        -0.5109
      12  N1         -0.1520   32.7210   55.9290  N.am      1 <0>        -0.5189
      13  N2          1.0530   33.2750   56.3820  N.am      1 <0>        -0.5174
      14  C10         1.0880   33.9430   57.5520  C.2       1 <0>         0.5653
      15  O3          0.0760   34.0660   58.2130  O.2       1 <0>        -0.5338
      16  C11         2.3590   34.5320   58.0280  C.ar      1 <0>        -0.1379
      17  C12         3.0150   35.4960   57.2600  C.ar      1 <0>        -0.0807
      18  C13         4.1960   36.0460   57.7130  C.ar      1 <0>        -0.1270
      19  C14         4.7360   35.6360   58.9190  C.ar      1 <0>        -0.0355
      20  C15         4.0930   34.6770   59.6830  C.ar      1 <0>        -0.1228
      21  C16         2.9090   34.1230   59.2440  C.ar      1 <0>        -0.0489
      22  C17         6.0320   36.2370   59.4050  C.3       1 <0>        -0.0356
      23  C18         5.7390   37.5230   60.1800  C.3       1 <0>        -0.1406
      24  C19         6.7440   35.2390   60.3210  C.3       1 <0>        -0.1477
      25  C20         6.9260   36.5560   58.2040  C.3       1 <0>        -0.1407
      26  C21        -0.2310   27.5590   57.0020  C.3       1 <0>        -0.0547
      27  C22        -0.7350   26.2600   57.6340  C.3       1 <0>        -0.1422
      28  C23         1.2560   27.7360   57.3210  C.3       1 <0>        -0.1423
@<TRIPOS>BOND
     1     1     2 1
     2     2     7 ar
     3     2     3 ar
     4     3     4 ar
     5     4     5 ar
     6     5     6 ar
     7     5    26 1
     8     6     7 ar
     9     6     8 1
    10     8     9 1
    11     9    10 1
    12    10    11 2
    13    10    12 am
    14    12    13 1
    15    13    14 am
    16    14    15 2
    17    14    16 1
    18    16    21 ar
    19    16    17 ar
    20    17    18 ar
    21    18    19 ar
    22    19    20 ar
    23    19    22 1
    24    20    21 ar
    25    22    23 1
    26    22    24 1
    27    22    25 1
    28    26    27 1
    29    26    28 1

@<TRIPOS>MOLECULE
ZINC20881568_replica-1.pdb
 35 39 0 0 0
SMALL
GASTEIGER

@<TRIPOS>ATOM
       1  C1         15.2610   33.9180   64.1380  C.3       1 <0>        -0.1491
       2  C2         14.1880   33.4060   63.1770  C.3       1 <0>        -0.0949
       3  C3         13.8980   31.9330   63.4730  C.3       1 <0>        -0.1498
       4  C4         12.9070   34.2230   63.3600  C.3       1 <0>         0.0612
       5  O1         12.5180   34.7880   62.1050  O.3       1 <0>        -0.3125
       6  C5         11.3990   34.2850   61.5220  C.ar      1 <0>         0.1322
       7  C6         10.8930   33.0600   61.9300  C.ar      1 <0>        -0.1500
       8  C7          9.7550   32.5510   61.3360  C.ar      1 <0>        -0.0711
       9  C8          9.1190   33.2620   60.3350  C.ar      1 <0>        -0.1205
      10  C9          9.6240   34.4810   59.9220  C.ar      1 <0>        -0.0725
      11  C10        10.7590   34.9970   60.5170  C.ar      1 <0>        -0.2063
      12  C11         7.8770   32.7050   59.6870  C.3       1 <0>        -0.0319
      13  C12         6.9900   33.8470   59.1980  C.3       1 <0>        -0.1006
      14  C13         5.7310   33.2860   58.5570  C.2       1 <0>         0.2696
      15  C14         5.1910   32.1410   59.0070  C.2       1 <0>        -0.3038
      16  C15         3.9360   31.4860   58.4810  C.3       1 <0>         0.2871
      17  N1          3.4470   32.0410   57.2360  N.pl3     1 <0>        -0.7823
      18  C16         2.9930   33.3560   57.1630  C.ar      1 <0>         0.1731
      19  C17         1.6560   33.6470   56.9410  C.ar      1 <0>        -0.1247
      20  C18         1.2300   34.9630   56.9860  C.ar      1 <0>        -0.1092
      21  C19         2.1290   35.9810   57.2480  C.ar      1 <0>        -0.1245
      22  C20         3.4690   35.6960   57.4480  C.ar      1 <0>        -0.1172
      23  C21         3.8990   34.3820   57.3870  C.ar      1 <0>         0.1135
      24  N2          5.2360   34.0300   57.5350  N.pl3     1 <0>        -0.6973
      25  C22         2.8540   31.6210   59.5210  C.ar      1 <0>        -0.0820
      26  C23         2.8130   32.7390   60.3330  C.ar      1 <0>        -0.0841
      27  C24         1.8210   32.8680   61.2840  C.ar      1 <0>        -0.1366
      28  C25         0.8680   31.8680   61.4320  C.ar      1 <0>        -0.0818
      29  C26         0.9150   30.7420   60.6170  C.ar      1 <0>        -0.1032
      30  C27         1.9070   30.6230   59.6650  C.ar      1 <0>        -0.0704
      31  S1         -0.3980   32.0260   62.6480  S.3       1 <0>        -0.1257
      32  C28        -0.3730   30.4330   63.5160  C.3       1 <0>        -0.1446
      33  C29         5.8030   31.4340   60.0680  C.2       1 <0>         0.3998
      34  O2          5.2800   30.4120   60.4690  O.2       1 <0>        -0.4712
      35  C30         7.0740   31.8960   60.7130  C.3       1 <0>        -0.1598
@<TRIPOS>BOND
     1     1     2 1
     2     2     3 1
     3     2     4 1
     4     4     5 1
     5     5     6 1
     6     6    11 ar
     7     6     7 ar
     8     7     8 ar
     9     8     9 ar
    10     9    10 ar
    11     9    12 1
    12    10    11 ar
    13    12    35 1
    14    12    13 1
    15    13    14 1
    16    14    24 1
    17    14    15 2
    18    15    16 1
    19    15    33 1
    20    16    17 1
    21    16    25 1
    22    17    18 1
    23    18    23 ar
    24    18    19 ar
    25    19    20 ar
    26    20    21 ar
    27    21    22 ar
    28    22    23 ar
    29    23    24 1
    30    25    30 ar
    31    25    26 ar
    32    26    27 ar
    33    27    28 ar
    34    28    29 ar
    35    28    31 1
    36    29    30 ar
    37    31    32 1
    38    33    34 2
    39    33    35 1

@<TRIPOS>MOLECULE
ZINC39970475_replica-1.pdb
 24 25 0 0 0
SMALL
GASTEIGER

@<TRIPOS>ATOM
       1  C1         -0.4580   25.0300   51.4510  C.3       1 <0>        -0.1176
       2  C2         -0.5250   26.1920   52.4080  C.ar      1 <0>        -0.0788
       3  C3         -1.1600   27.3610   52.0300  C.ar      1 <0>        -0.1213
       4  C4         -1.2220   28.4270   52.9070  C.ar      1 <0>        -0.1126
       5  C5         -0.6500   28.3250   54.1620  C.ar      1 <0>        -0.1025
       6  C6         -0.0150   27.1560   54.5390  C.ar      1 <0>        -0.0622
       7  C7          0.0430   26.0880   53.6640  C.ar      1 <0>        -0.1150
       8  C8          0.6090   27.0450   55.9050  C.3       1 <0>        -0.1267
       9  C9         -0.7150   29.4880   55.1170  C.3       1 <0>         0.1808
      10  C10        -2.0070   30.2720   54.8780  C.3       1 <0>        -0.1563
      11  N1          0.4360   30.3670   54.8960  N.pl3     1 <0>        -0.6822
      12  C11         0.9420   31.0840   55.9200  C.2       1 <0>         0.5632
      13  S1          0.6920   30.5680   57.5330  S.2       1 <0>        -0.6358
      14  N2          1.6440   32.2070   55.6730  N.pl3     1 <0>        -0.6865
      15  C12         2.1950   32.9870   56.7840  C.3       1 <0>         0.1285
      16  C13         2.1610   34.4750   56.4300  C.3       1 <0>        -0.0870
      17  C14         3.5300   34.9160   55.9790  C.ar      1 <0>        -0.1229
      18  C15         4.0790   34.3910   54.8250  C.ar      1 <0>        -0.0701
      19  C16         5.3340   34.7930   54.4090  C.ar      1 <0>        -0.1494
      20  C17         6.0430   35.7250   55.1530  C.ar      1 <0>         0.1296
      21  C18         5.4900   36.2520   56.3110  C.ar      1 <0>        -0.2062
      22  C19         4.2320   35.8500   56.7190  C.ar      1 <0>        -0.0696
      23  O1          7.2780   36.1210   54.7480  O.3       1 <0>        -0.3173
      24  C20         8.2140   36.4740   55.7690  C.3       1 <0>         0.0262
@<TRIPOS>BOND
     1     1     2 1
     2     2     7 ar
     3     2     3 ar
     4     3     4 ar
     5     4     5 ar
     6     5     6 ar
     7     5     9 1
     8     6     7 ar
     9     6     8 1
    10     9    10 1
    11     9    11 1
    12    11    12 1
    13    12    13 2
    14    12    14 1
    15    14    15 1
    16    15    16 1
    17    16    17 1
    18    17    22 ar
    19    17    18 ar
    20    18    19 ar
    21    19    20 ar
    22    20    21 ar
    23    20    23 1
    24    21    22 ar
    25    23    24 1

@<TRIPOS>MOLECULE
ZINC05370640_replica-1.pdb
 30 32 0 0 0
SMALL
GASTEIGER

@<TRIPOS>ATOM
       1  C1          7.4940   36.6180   55.0530  C.3       1 <0>        -0.1471
       2  C2          8.4360   36.6920   56.2570  C.3       1 <0>        -0.0875
       3  C3          8.5060   38.1350   56.7610  C.3       1 <0>        -0.1487
       4  C4          7.9090   35.7860   57.3720  C.3       1 <0>         0.0964
       5  C5          6.3960   35.9740   57.5100  C.3       1 <0>        -0.1416
       6  C6          5.8660   35.0210   58.5860  C.3       1 <0>         0.0102
       7  C7          6.2430   33.5850   58.2100  C.3       1 <0>        -0.1582
       8  C8          7.7620   33.4890   58.0450  C.3       1 <0>         0.0603
       9  O1          8.1920   34.4230   57.0520  O.3       1 <0>        -0.3652
      10  C9          6.4900   35.3760   59.9380  C.3       1 <0>        -0.1467
      11  C10         6.5190   36.8970   60.1010  C.3       1 <0>        -0.0114
      12  C11         8.8520   37.4800   60.3810  C.3       1 <0>         0.0600
      13  C12         9.8690   36.4970   60.9010  C.ar      1 <0>        -0.2373
      14  C13        10.0370   35.2790   60.2690  C.ar      1 <0>        -0.0385
      15  C14        10.9720   34.3780   60.7400  C.ar      1 <0>        -0.1978
      16  C15        11.7360   34.6920   61.8560  C.ar      1 <0>         0.2507
      17  C16        11.5620   35.9140   62.4920  C.ar      1 <0>        -0.2001
      18  C17        10.6280   36.8130   62.0130  C.ar      1 <0>        -0.0391
      19  N1         12.6790   33.7810   62.3380  N.pl3     1 <0>        -0.6232
      20  C18        14.1090   34.0750   62.2200  C.3       1 <0>         0.0814
      21  C19        12.2370   32.5310   62.9600  C.3       1 <0>         0.0843
      22  C20         4.3670   35.1430   58.6740  C.ar      1 <0>        -0.1237
      23  C21         3.6850   35.9400   57.7740  C.ar      1 <0>        -0.0836
      24  C22         2.3090   36.0480   57.8510  C.ar      1 <0>        -0.1496
      25  C23         1.6130   35.3700   58.8330  C.ar      1 <0>        -0.0740
      26  C24         2.2910   34.5760   59.7390  C.ar      1 <0>        -0.2035
      27  C25         3.6720   34.4610   59.6610  C.ar      1 <0>         0.1303
      28  O2          4.3400   33.6810   60.5500  O.3       1 <0>        -0.3153
      29  C26         3.7800   32.3980   60.8370  C.3       1 <0>         0.0206
      30  N2          7.5680   37.2580   61.0730  N.4       1 <0>        -0.5179
@<TRIPOS>BOND
     1     1     2 1
     2     2     3 1
     3     2     4 1
     4     4     9 1
     5     4     5 1
     6     5     6 1
     7     6     7 1
     8     6    10 1
     9     6    22 1
    10     7     8 1
    11     8     9 1
    12    10    11 1
    13    11    30 1
    14    12    13 1
    15    12    30 1
    16    13    18 ar
    17    13    14 ar
    18    14    15 ar
    19    15    16 ar
    20    16    17 ar
    21    16    19 1
    22    17    18 ar
    23    19    20 1
    24    19    21 1
    25    22    27 ar
    26    22    23 ar
    27    23    24 ar
    28    24    25 ar
    29    25    26 ar
    30    26    27 ar
    31    27    28 1
    32    28    29 1

@<TRIPOS>MOLECULE
ZINC27909869_replica-1.pdb
 26 28 0 0 0
SMALL
GASTEIGER

@<TRIPOS>ATOM
       1  C1          2.8620   35.4620   58.8490  C.3       1 <0>        -0.1533
       2  C2          3.8080   34.4350   59.4740  C.3       1 <0>        -0.0928
       3  C3          4.0480   33.2940   58.4840  C.3       1 <0>        -0.1597
       4  C4          5.1410   35.1080   59.8110  C.3       1 <0>        -0.1426
       5  C5          6.2930   34.2450   59.2910  C.3       1 <0>         0.0863
       6  N1          7.2870   35.1020   58.6390  N.pl3     1 <0>        -0.4510
       7  C6          7.2380   35.5840   57.3430  C.2       1 <0>         0.1003
       8  C7          8.3610   36.3270   57.1620  C.2       1 <0>         0.0028
       9  N2          9.0630   36.3090   58.3030  N.pl3     1 <0>        -0.5393
      10  C8          8.4350   35.5770   59.1950  C.cat     1 <0>         0.5915
      11  N3          8.8680   35.3330   60.4850  N.pl3     1 <0>        -0.6983
      12  C9         10.1290   35.9100   60.9560  C.3       1 <0>         0.1623
      13  C10        10.9530   34.8390   61.6250  C.ar      1 <0>        -0.1427
      14  C11        10.5350   33.5220   61.5840  C.ar      1 <0>        -0.0684
      15  C12        11.2890   32.5370   62.1900  C.ar      1 <0>        -0.1387
      16  C13        12.4640   32.8730   62.8510  C.ar      1 <0>        -0.0588
      17  C14        12.8790   34.1990   62.8940  C.ar      1 <0>        -0.1032
      18  C15        12.1220   35.1770   62.2810  C.ar      1 <0>        -0.0694
      19  S1         13.4270   31.6200   63.6330  S.3       1 <0>        -0.0936
      20  C16        12.2100   30.3590   64.1000  C.3       1 <0>        -0.1531
      21  C17         6.1750   35.3320   56.3480  C.ar      1 <0>        -0.0508
      22  C18         5.1180   36.2340   56.2080  C.ar      1 <0>        -0.0862
      23  C19         4.1290   35.9930   55.2760  C.ar      1 <0>        -0.1090
      24  C20         4.1840   34.8620   54.4810  C.ar      1 <0>        -0.0926
      25  C21         5.2270   33.9650   54.6150  C.ar      1 <0>        -0.1101
      26  C22         6.2230   34.1930   55.5420  C.ar      1 <0>        -0.1168
@<TRIPOS>BOND
     1     1     2 1
     2     2     3 1
     3     2     4 1
     4     4     5 1
     5     5     6 1
     6     6    10 1
     7     6     7 1
     8     7     8 2
     9     7    21 1
    10     8     9 1
    11     9    10 2
    12    10    11 1
    13    11    12 1
    14    12    13 1
    15    13    18 ar
    16    13    14 ar
    17    14    15 ar
    18    15    16 ar
    19    16    17 ar
    20    16    19 1
    21    17    18 ar
    22    19    20 1
    23    21    26 ar
    24    21    22 ar
    25    22    23 ar
    26    23    24 ar
    27    24    25 ar
    28    25    26 ar

@<TRIPOS>MOLECULE
ZINC49903066_replica-1.pdb
 22 23 0 0 0
SMALL
GASTEIGER

@<TRIPOS>ATOM
       1  C1          0.2070   26.2870   55.9210  C.3       1 <0>        -0.1481
       2  C2          0.5220   27.4520   54.9810  C.3       1 <0>        -0.0779
       3  C3         -0.1870   27.2430   53.6670  C.ar      1 <0>        -0.1570
       4  C4         -0.1540   26.0070   53.0520  C.ar      1 <0>        -0.0716
       5  C5         -0.8020   25.8150   51.8470  C.ar      1 <0>        -0.1763
       6  C6         -1.4900   26.8580   51.2530  C.ar      1 <0>        -0.0768
       7  C7         -1.5280   28.0960   51.8640  C.ar      1 <0>        -0.1976
       8  C8         -0.8810   28.2920   53.0770  C.ar      1 <0>         0.2186
       9  N1         -0.9210   29.5420   53.6990  N.pl3     1 <0>        -0.7429
      10  C9         -2.1910   30.0640   54.2110  C.3       1 <0>         0.0999
      11  C10        -1.9760   30.6480   55.6090  C.3       1 <0>         0.1412
      12  C11        -2.0480   29.5450   56.6310  C.ar      1 <0>        -0.1235
      13  C12        -3.0270   28.5740   56.5330  C.ar      1 <0>        -0.1059
      14  C13        -3.0940   27.5620   57.4710  C.ar      1 <0>        -0.1138
      15  C14        -2.1810   27.5190   58.5080  C.ar      1 <0>        -0.0690
      16  C15        -1.1990   28.4880   58.6060  C.ar      1 <0>        -0.1112
      17  C16        -1.1310   29.4990   57.6650  C.ar      1 <0>        -0.1030
      18  C17        -2.2530   26.4150   59.5320  C.3       1 <0>        -0.0552
      19  C18        -0.8590   26.1640   60.1100  C.3       1 <0>        -0.1466
      20  C19        -2.7680   25.1360   58.8690  C.3       1 <0>        -0.1158
      21  C20        -1.5830   24.2430   58.4960  C.3       1 <0>        -0.1556
      22  O1         -2.9910   31.6170   55.8800  O.3       1 <0>        -0.5499
@<TRIPOS>BOND
     1     1     2 1
     2     2     3 1
     3     3     8 ar
     4     3     4 ar
     5     4     5 ar
     6     5     6 ar
     7     6     7 ar
     8     7     8 ar
     9     8     9 1
    10     9    10 1
    11    10    11 1
    12    11    12 1
    13    11    22 1
    14    12    17 ar
    15    12    13 ar
    16    13    14 ar
    17    14    15 ar
    18    15    16 ar
    19    15    18 1
    20    16    17 ar
    21    18    19 1
    22    18    20 1
    23    20    21 1

@<TRIPOS>MOLECULE
ZINC37121477_replica-1.pdb
 20 21 0 0 0
SMALL
GASTEIGER

@<TRIPOS>ATOM
      1  C7        10.6270   33.5330   61.6830 C.3     0  <0>0        0.1144
      2  C3        11.8070   32.9510   62.4190 C.ar    0  <0>0       -0.0010
      3  C2        13.0200   33.6120   62.4120 C.ar    0  <0>0       -0.0025
      4  C1        14.1020   33.0790   63.0880 C.ar    0  <0>0        0.0014
      5  C6        13.9690   31.8850   63.7710 C.ar    0  <0>0        0.0241
      6  C5        12.7550   31.2230   63.7780 C.ar    0  <0>0        0.1426
      7  C4        11.6740   31.7560   63.1030 C.ar    0  <0>0        0.0215
      8  N1        12.6130   29.9450   64.5100 N.pl3   0  <0>0        0.0577
      9  O1        12.9870   29.8600   65.6560 O.2     0  <0>0       -0.1261
     10  O2        12.1240   28.9840   63.9610 O.2     0  <0>0       -0.1261
     11  N2        11.1040   34.3520   60.5660 N.pl3   0  <0>0       -0.3287
     12  H7        11.9910   34.2050   60.2010 H       0  <0>0        0.1471
     13  C8        10.2820   35.3450   60.0270 C.ar    0  <0>0        0.0516
     14  C13       10.0660   36.5250   60.7260 C.ar    0  <0>0        0.0477
     15  C12        9.2570   37.5080   60.1870 C.ar    0  <0>0        0.0084
     16 Br         10.8840   36.7920   62.4110 Br      0  <0>0       -0.0477
     17  C11        8.6540   37.3130   58.9590 C.ar    0  <0>0        0.0073
     18  C10        8.8620   36.1350   58.2630 C.ar    0  <0>0        0.0358
     19  C9         9.6750   35.1510   58.7930 C.ar    0  <0>0        0.0215
     20 Br          8.0350   35.8730   56.5820 Br      0  <0>0       -0.0490
@<TRIPOS>BOND
     1    20    18    1
     2    18    19   ar
     3    18    17   ar
     4    19    13   ar
     5    17    15   ar
     6    13    11    1
     7    13    14   ar
     8    15    14   ar
     9    12    11    1
    10    11     1    1
    11    14    16    1
    12     1     2    1
    13     3     2   ar
    14     3     4   ar
    15     2     7   ar
    16     4     5   ar
    17     7     6   ar
    18     5     6   ar
    19     6     8    1
    20    10     8    2
    21     8     9    2


@<TRIPOS>MOLECULE
ZINC21258957_replica-1.pdb
 35 39 0 0 0
SMALL
GASTEIGER

@<TRIPOS>ATOM
       1  C1          7.4650   38.5750   56.1090  C.3       1 <0>        -0.1557
       2  C2          8.5710   38.0420   57.0230  C.3       1 <0>        -0.1188
       3  C3          7.9930   36.9760   57.9550  C.3       1 <0>         0.0806
       4  C4          9.1350   36.2050   58.6190  C.3       1 <0>        -0.1813
       5  O1          7.1830   36.0710   57.2000  O.3       1 <0>        -0.3149
       6  C5          6.0850   35.5630   57.8180  C.ar      1 <0>         0.1337
       7  C6          5.6540   34.2770   57.5230  C.ar      1 <0>        -0.1588
       8  C7          4.5380   33.7630   58.1530  C.ar      1 <0>        -0.0646
       9  C8          3.8500   34.5280   59.0760  C.ar      1 <0>        -0.1173
      10  C9          4.2740   35.8100   59.3690  C.ar      1 <0>        -0.0485
      11  C10         5.3940   36.3280   58.7460  C.ar      1 <0>        -0.2152
      12  C11         2.6310   33.9640   59.7620  C.3       1 <0>         0.2903
      13  C12         1.9370   33.0230   58.8060  C.2       1 <0>        -0.3021
      14  C13         1.8810   31.6860   58.9170  C.2       1 <0>         0.2698
      15  C14         1.1630   30.8570   57.8630  C.3       1 <0>        -0.0996
      16  C15        -0.0230   31.6400   57.3060  C.3       1 <0>        -0.0315
      17  C16         0.5190   32.9320   56.6830  C.3       1 <0>        -0.1587
      18  C17         1.2970   33.6770   57.7260  C.2       1 <0>         0.4020
      19  O2          1.3830   34.8860   57.6400  O.2       1 <0>        -0.4738
      20  C18        -0.7270   30.8230   56.2550  C.ar      1 <0>        -0.1127
      21  C19        -0.5900   31.1490   54.9190  C.ar      1 <0>        -0.0776
      22  C20        -1.2310   30.3950   53.9530  C.ar      1 <0>        -0.1536
      23  C21        -2.0140   29.3170   54.3210  C.ar      1 <0>        -0.0801
      24  C22        -2.1590   28.9900   55.6540  C.ar      1 <0>        -0.2062
      25  C23        -1.5170   29.7450   56.6270  C.ar      1 <0>         0.1335
      26  O3         -1.6570   29.4240   57.9390  O.3       1 <0>        -0.3144
      27  C24        -1.9710   28.0650   58.2450  C.3       1 <0>         0.0232
      28  N1          2.4320   30.9660   59.9260  N.pl3     1 <0>        -0.6969
      29  C25         3.7240   31.1400   60.4110  C.ar      1 <0>         0.1126
      30  C26         4.6770   30.1390   60.3500  C.ar      1 <0>        -0.1172
      31  C27         5.9100   30.3380   60.9480  C.ar      1 <0>        -0.1249
      32  C28         6.1860   31.5280   61.5970  C.ar      1 <0>        -0.1081
      33  C29         5.2420   32.5380   61.6400  C.ar      1 <0>        -0.1276
      34  C30         4.0120   32.3480   61.0290  C.ar      1 <0>         0.1753
      35  N2          3.0470   33.3520   61.0070  N.pl3     1 <0>        -0.7816
@<TRIPOS>BOND
     1     1     2 1
     2     2     3 1
     3     3     4 1
     4     3     5 1
     5     5     6 1
     6     6    11 ar
     7     6     7 ar
     8     7     8 ar
     9     8     9 ar
    10     9    10 ar
    11     9    12 1
    12    10    11 ar
    13    12    35 1
    14    12    13 1
    15    13    18 1
    16    13    14 2
    17    14    15 1
    18    14    28 1
    19    15    16 1
    20    16    17 1
    21    16    20 1
    22    17    18 1
    23    18    19 2
    24    20    25 ar
    25    20    21 ar
    26    21    22 ar
    27    22    23 ar
    28    23    24 ar
    29    24    25 ar
    30    25    26 1
    31    26    27 1
    32    28    29 1
    33    29    34 ar
    34    29    30 ar
    35    30    31 ar
    36    31    32 ar
    37    32    33 ar
    38    33    34 ar
    39    34    35 1

@<TRIPOS>MOLECULE
ZINC35380351_replica-1.pdb
 23 24 0 0 0
SMALL
GASTEIGER

@<TRIPOS>ATOM
       1  C1         10.4020   36.2370   61.0950  C.ar      1 <0>        -0.0710
       2  C2         10.6970   35.0680   60.4060  C.ar      1 <0>        -0.1652
       3  C3          9.9730   34.7450   59.2730  C.ar      1 <0>         0.1037
       4  N1          9.0080   35.5320   58.8390  N.ar      1 <0>        -0.4545
       5  C4          8.6940   36.6600   59.4700  C.ar      1 <0>         0.1236
       6  C5          9.3860   37.0450   60.6210  C.ar      1 <0>        -0.1595
       7  C6          7.6090   37.5100   58.9500  C.2       1 <0>         0.1566
       8  N2          6.3710   37.1330   59.0760  N.2       1 <0>        -0.2256
       9  N3          6.0740   35.8690   59.6020  N.pl3     1 <0>        -0.5872
      10  C7          4.7660   35.3830   59.5570  C.ar      1 <0>         0.2128
      11  C8          4.4170   34.2550   60.2910  C.ar      1 <0>        -0.1322
      12  C9          3.1240   33.7760   60.2450  C.ar      1 <0>        -0.1114
      13  C10         2.1730   34.4180   59.4690  C.ar      1 <0>         0.0447
      14  C11         2.5170   35.5410   58.7360  C.ar      1 <0>        -0.1098
      15  C12         3.8090   36.0280   58.7830  C.ar      1 <0>        -0.1614
      16  F1          0.9080   33.9460   59.4260  F         1 <0>        -0.1460
      17  C13         7.9330   38.8160   58.2720  C.3       1 <0>        -0.0547
      18  C14         8.5230   38.5380   56.8880  C.3       1 <0>        -0.1111
      19  C15         7.3920   38.2360   55.9020  C.3       1 <0>        -0.0911
      20  C16         7.5690   36.8240   55.3390  C.3       1 <0>        -0.1830
      21  C17         6.4380   35.9490   55.8140  C.2       1 <0>         0.4880
      22  O1          6.6750   34.9550   56.4800  O.co2     1 <0>        -0.6987
      23  O2          5.2880   36.2330   55.5320  O.co2     1 <0>        -0.7097
@<TRIPOS>BOND
     1     1     6 ar
     2     1     2 ar
     3     2     3 ar
     4     3     4 ar
     5     4     5 ar
     6     5     6 ar
     7     5     7 1
     8     7     8 2
     9     7    17 1
    10     8     9 1
    11     9    10 1
    12    10    15 ar
    13    10    11 ar
    14    11    12 ar
    15    12    13 ar
    16    13    14 ar
    17    13    16 1
    18    14    15 ar
    19    17    18 1
    20    18    19 1
    21    19    20 1
    22    20    21 1
    23    21    22 2
    24    21    23 1

@<TRIPOS>MOLECULE
ZINC37775902_replica-1.pdb
 21 22 0 0 0
SMALL
GASTEIGER

@<TRIPOS>ATOM
       1  C1          0.7100   31.0730   56.5760  C.3       1 <0>        -0.1826
       2  C2          0.1100   29.6780   56.3910  C.3       1 <0>         0.0890
       3  C3          0.7150   28.7220   57.4210  C.3       1 <0>        -0.0694
       4  C4         -0.3550   27.7970   57.9390  C.ar      1 <0>        -0.1387
       5  C5         -0.3870   26.4760   57.5290  C.ar      1 <0>         0.1237
       6  C6         -1.3710   25.6260   58.0060  C.ar      1 <0>        -0.1679
       7  C7         -2.3210   26.0970   58.8920  C.ar      1 <0>        -0.0664
       8  C8         -2.2910   27.4180   59.3020  C.ar      1 <0>        -0.1693
       9  C9         -1.3040   28.2660   58.8310  C.ar      1 <0>         0.1569
      10  F1         -1.2710   29.5550   59.2360  F         1 <0>        -0.1219
      11  F2          0.5420   26.0140   56.6630  F         1 <0>        -0.1325
      12  N1          0.4070   29.1910   55.0370  N.3       1 <0>        -0.6746
      13  C10        -0.7680   29.3090   54.1660  C.3       1 <0>         0.1280
      14  C11        -2.0340   29.3720   55.0240  C.3       1 <0>        -0.1338
      15  C12        -0.8400   28.1120   53.2530  C.ar      1 <0>        -0.1002
      16  C13        -0.2150   26.9320   53.6120  C.ar      1 <0>        -0.0821
      17  C14        -0.2780   25.8340   52.7770  C.ar      1 <0>        -0.1461
      18  C15        -0.9700   25.9150   51.5770  C.ar      1 <0>         0.1045
      19  C16        -1.5970   27.1000   51.2190  C.ar      1 <0>        -0.1460
      20  C17        -1.5350   28.1940   52.0610  C.ar      1 <0>        -0.0969
      21  O1         -1.0330   24.8350   50.7540  O.3       1 <0>        -0.5008
@<TRIPOS>BOND
     1     1     2 1
     2     2     3 1
     3     2    12 1
     4     3     4 1
     5     4     9 ar
     6     4     5 ar
     7     5     6 ar
     8     5    11 1
     9     6     7 ar
    10     7     8 ar
    11     8     9 ar
    12     9    10 1
    13    12    13 1
    14    13    14 1
    15    13    15 1
    16    15    20 ar
    17    15    16 ar
    18    16    17 ar
    19    17    18 ar
    20    18    19 ar
    21    18    21 1
    22    19    20 ar

@<TRIPOS>MOLECULE
ZINC59146511_replica-1.pdb
 30 33 0 0 0
SMALL
GASTEIGER

@<TRIPOS>ATOM
       1  C1         -0.5240   25.4460   52.0350  C.ar      1 <0>        -0.1142
       2  C2         -0.0230   25.8900   53.2460  C.ar      1 <0>        -0.1198
       3  C3         -0.2720   27.1810   53.6670  C.ar      1 <0>        -0.1042
       4  C4         -1.0290   28.0380   52.8670  C.ar      1 <0>        -0.0663
       5  C5         -1.5310   27.5830   51.6480  C.ar      1 <0>        -0.1101
       6  C6         -1.2760   26.2900   51.2390  C.ar      1 <0>        -0.1186
       7  C7         -1.2990   29.4210   53.3120  C.2       1 <0>        -0.0847
       8  C8         -2.4740   29.7290   53.8440  C.2       1 <0>        -0.1782
       9  C9         -2.5680   30.8130   54.8860  C.3       1 <0>         0.1432
      10  N1         -1.7510   30.4480   56.0450  N.am      1 <0>        -0.5329
      11  C10        -2.0130   29.3670   56.8800  C.ar      1 <0>         0.1715
      12  C11        -3.0230   28.4110   56.8640  C.ar      1 <0>        -0.1333
      13  C12        -3.0570   27.4230   57.8270  C.ar      1 <0>        -0.0573
      14  C13        -2.0900   27.3690   58.8170  C.ar      1 <0>        -0.1417
      15  C14        -1.0790   28.3090   58.8490  C.ar      1 <0>        -0.0289
      16  C15        -1.0370   29.3090   57.8830  C.ar      1 <0>        -0.1120
      17  C16        -0.1150   30.4420   57.6360  C.2       1 <0>         0.1162
      18  N2          0.9470   30.7740   58.3290  N.2       1 <0>        -0.1863
      19  N3          2.2130   30.7480   57.7300  N.pl3     1 <0>        -0.5248
      20  C17         2.8660   31.9010   57.4830  C.2       1 <0>         0.5754
      21  S1          3.7470   32.6700   58.7330  S.2       1 <0>        -0.5603
      22  N4          2.8240   32.4490   56.2520  N.pl3     1 <0>        -0.6084
      23  C18         3.4260   33.6890   56.0180  C.ar      1 <0>         0.1084
      24  C19         4.7180   33.7530   55.5120  C.ar      1 <0>        -0.0690
      25  C20         5.3090   34.9790   55.2840  C.ar      1 <0>        -0.1132
      26  C21         4.6170   36.1440   55.5570  C.ar      1 <0>        -0.1081
      27  C22         3.3300   36.0860   56.0600  C.ar      1 <0>        -0.1169
      28  C23         2.7300   34.8610   56.2860  C.ar      1 <0>        -0.1164
      29  C24        -0.6480   31.1120   56.4340  C.2       1 <0>         0.5372
      30  O1         -0.1760   32.0940   55.8930  O.2       1 <0>        -0.4827
@<TRIPOS>BOND
     1     1     6 ar
     2     1     2 ar
     3     2     3 ar
     4     3     4 ar
     5     4     5 ar
     6     4     7 1
     7     5     6 ar
     8     7     8 2
     9     8     9 1
    10     9    10 1
    11    10    29 am
    12    10    11 1
    13    11    16 ar
    14    11    12 ar
    15    12    13 ar
    16    13    14 ar
    17    14    15 ar
    18    15    16 ar
    19    16    17 1
    20    17    18 2
    21    17    29 1
    22    18    19 1
    23    19    20 1
    24    20    21 2
    25    20    22 1
    26    22    23 1
    27    23    28 ar
    28    23    24 ar
    29    24    25 ar
    30    25    26 ar
    31    26    27 ar
    32    27    28 ar
    33    29    30 2

@<TRIPOS>MOLECULE
ZINC57692604_replica-1.pdb
 23 24 0 0 0
SMALL
GASTEIGER

@<TRIPOS>ATOM
       1  C1          7.3150   32.3140   58.8590  C.3       1 <0>        -0.1112
       2  C2          6.4600   33.5260   59.1270  C.ar      1 <0>        -0.0984
       3  C3          6.4330   34.0870   60.3890  C.ar      1 <0>        -0.1156
       4  C4          5.6490   35.1980   60.6360  C.ar      1 <0>        -0.1157
       5  C5          4.8920   35.7530   59.6200  C.ar      1 <0>        -0.1155
       6  C6          4.9150   35.1950   58.3570  C.ar      1 <0>        -0.0984
       7  C7          5.7050   34.0830   58.1050  C.ar      1 <0>         0.0909
       8  O1          5.7350   33.5360   56.8610  O.3       1 <0>        -0.3296
       9  C8          6.9520   33.6620   56.1260  C.3       1 <0>         0.0649
      10  C9          7.2620   35.1430   55.9010  C.3       1 <0>        -0.1247
      11  C10         8.5550   35.5110   56.6320  C.3       1 <0>        -0.1081
      12  C11         8.2390   36.4930   57.7620  C.3       1 <0>         0.0515
      13  C12         8.4860   37.8680   57.3010  C.1       1 <0>         0.2041
      14  N1          8.6760   38.9310   56.9440  N.1       1 <0>        -0.4145
      15  C13         9.1220   36.1960   58.9470  C.ar      1 <0>        -0.0604
      16  C14         9.8420   35.0140   58.9900  C.ar      1 <0>        -0.1062
      17  C15        10.6510   34.7350   60.0710  C.ar      1 <0>        -0.0665
      18  C16        10.7450   35.6480   61.1240  C.ar      1 <0>        -0.0196
      19  C17        10.0170   36.8380   61.0730  C.ar      1 <0>        -0.0671
      20  C18         9.2140   37.1070   59.9840  C.ar      1 <0>        -0.1022
      21  C19        11.5830   35.3650   62.2490  C.1       1 <0>         0.2474
      22  N2         12.2490   35.1400   63.1420  N.1       1 <0>        -0.4070
      23  C20         4.0890   35.7990   57.2510  C.3       1 <0>        -0.1118
@<TRIPOS>BOND
     1     1     2 1
     2     2     7 ar
     3     2     3 ar
     4     3     4 ar
     5     4     5 ar
     6     5     6 ar
     7     6     7 ar
     8     6    23 1
     9     7     8 1
    10     8     9 1
    11     9    10 1
    12    10    11 1
    13    11    12 1
    14    12    13 1
    15    12    15 1
    16    13    14 3
    17    15    20 ar
    18    15    16 ar
    19    16    17 ar
    20    17    18 ar
    21    18    19 ar
    22    18    21 1
    23    19    20 ar
    24    21    22 3

@<TRIPOS>MOLECULE
ZINC13457850_replica-1.pdb
 26 27 0 0 0
SMALL
GASTEIGER

@<TRIPOS>ATOM
       1  C1          4.0830   36.3610   55.6110  C.3       1 <0>        -0.0988
       2  C2          3.5740   35.6810   56.8560  C.ar      1 <0>        -0.1174
       3  C3          2.4130   36.1290   57.4590  C.ar      1 <0>        -0.1036
       4  C4          1.9440   35.5140   58.6010  C.ar      1 <0>        -0.1064
       5  C5          2.6390   34.4340   59.1480  C.ar      1 <0>        -0.0817
       6  C6          3.8080   33.9810   58.5360  C.ar      1 <0>        -0.1692
       7  C7          4.2690   34.6050   57.3890  C.ar      1 <0>         0.1015
       8  O1          5.4070   34.1660   56.7880  O.3       1 <0>        -0.2911
       9  C8          6.4370   33.6590   57.6400  C.3       1 <0>         0.0386
      10  C9          7.5820   34.6370   57.6790  C.2       1 <0>         0.5231
      11  O2          8.3830   34.6700   56.7680  O.2       1 <0>        -0.5089
      12  N1          7.7210   35.4710   58.7290  N.am      1 <0>        -0.7264
      13  C10         8.8380   36.4180   58.7690  C.3       1 <0>         0.1946
      14  C11         9.7490   36.0710   59.9190  C.ar      1 <0>        -0.0985
      15  C12         9.9090   36.9600   60.9650  C.ar      1 <0>        -0.0845
      16  C13        10.7390   36.6420   62.0230  C.ar      1 <0>        -0.1471
      17  C14        11.4200   35.4360   62.0290  C.ar      1 <0>         0.0983
      18  C15        11.2630   34.5490   60.9770  C.ar      1 <0>        -0.1501
      19  C16        10.4280   34.8670   59.9230  C.ar      1 <0>        -0.0760
      20  F1         12.2380   35.1260   63.0590  F         1 <0>        -0.1396
      21  C17         8.2980   37.8360   58.9570  C.3       1 <0>        -0.1010
      22  C18         8.4800   38.6270   57.6590  C.3       1 <0>        -0.1464
      23  C19         6.8120   37.7740   59.3120  C.3       1 <0>        -0.1411
      24  C20         2.1400   33.7740   60.3720  C.2       1 <0>         0.4893
      25  O3          1.0090   33.9920   60.7620  O.co2     1 <0>        -0.6323
      26  O4          2.9360   32.9320   61.0560  O.co2     1 <0>        -0.7502
@<TRIPOS>BOND
     1     1     2 1
     2     2     7 ar
     3     2     3 ar
     4     3     4 ar
     5     4     5 ar
     6     5     6 ar
     7     5    24 1
     8     6     7 ar
     9     7     8 1
    10     8     9 1
    11     9    10 1
    12    10    11 2
    13    10    12 am
    14    12    13 1
    15    13    14 1
    16    13    21 1
    17    14    19 ar
    18    14    15 ar
    19    15    16 ar
    20    16    17 ar
    21    17    18 ar
    22    17    20 1
    23    18    19 ar
    24    21    22 1
    25    21    23 1
    26    24    25 2
    27    24    26 1

@<TRIPOS>MOLECULE
ZINC49924551_replica-1.pdb
 23 24 0 0 0
SMALL
GASTEIGER

@<TRIPOS>ATOM
       1  C1         15.3230   33.7360   63.3910  C.3       1 <0>        -0.1166
       2  C2         13.9680   33.1050   63.2040  C.ar      1 <0>        -0.0360
       3  C3         13.7390   31.8160   63.6500  C.ar      1 <0>        -0.1801
       4  C4         12.4970   31.2320   63.4810  C.ar      1 <0>        -0.0363
       5  C5         11.4800   31.9360   62.8660  C.ar      1 <0>        -0.2034
       6  C6         11.7060   33.2310   62.4180  C.ar      1 <0>         0.2217
       7  C7         12.9530   33.8170   62.5940  C.ar      1 <0>        -0.2033
       8  N1         10.6800   33.9460   61.7960  N.pl3     1 <0>        -0.7509
       9  C8         11.0020   35.0300   60.8650  C.3       1 <0>         0.1291
      10  C9         10.4410   36.3480   61.4030  C.3       1 <0>        -0.1575
      11  C10         8.9120   36.2960   61.3860  C.3       1 <0>         0.1541
      12  C11         8.4180   36.5120   59.9800  C.ar      1 <0>        -0.1231
      13  C12         7.3790   35.7440   59.4870  C.ar      1 <0>        -0.1088
      14  C13         6.9260   35.9410   58.1960  C.ar      1 <0>        -0.1117
      15  C14         7.5100   36.9060   57.3980  C.ar      1 <0>        -0.0656
      16  C15         8.5480   37.6750   57.8900  C.ar      1 <0>        -0.1182
      17  C16         8.9990   37.4810   59.1830  C.ar      1 <0>        -0.1063
      18  C17         7.0150   37.1200   55.9900  C.3       1 <0>        -0.0317
      19  C18         5.5660   36.6450   55.8810  C.3       1 <0>        -0.1392
      20  C19         7.0910   38.6100   55.6440  C.3       1 <0>        -0.1458
      21  C20         7.8880   36.3260   55.0170  C.3       1 <0>        -0.1396
      22  O1          8.3910   37.3200   62.2370  O.3       1 <0>        -0.5518
      23  C21        12.2530   29.8270   63.9670  C.3       1 <0>        -0.1161
@<TRIPOS>BOND
     1     1     2 1
     2     2     7 ar
     3     2     3 ar
     4     3     4 ar
     5     4     5 ar
     6     4    23 1
     7     5     6 ar
     8     6     7 ar
     9     6     8 1
    10     8     9 1
    11     9    10 1
    12    10    11 1
    13    11    12 1
    14    11    22 1
    15    12    17 ar
    16    12    13 ar
    17    13    14 ar
    18    14    15 ar
    19    15    16 ar
    20    15    18 1
    21    16    17 ar
    22    18    19 1
    23    18    20 1
    24    18    21 1

@<TRIPOS>MOLECULE
ZINC04995038_replica-1.pdb
 26 28 0 0 0
SMALL
GASTEIGER

@<TRIPOS>ATOM
       1  C1          5.0190   34.9240   55.0070  C.ar      1 <0>        -0.1149
       2  C2          3.8510   35.6610   55.0950  C.ar      1 <0>        -0.1228
       3  C3          3.2780   35.9080   56.3250  C.ar      1 <0>        -0.1103
       4  C4          3.8800   35.4120   57.4850  C.ar      1 <0>        -0.0683
       5  C5          5.0620   34.6730   57.3880  C.ar      1 <0>        -0.0946
       6  C6          5.6210   34.4300   56.1510  C.ar      1 <0>        -0.1201
       7  C7          3.2740   35.6720   58.8030  C.2       1 <0>        -0.0974
       8  C8          2.4320   34.7760   59.3430  C.2       1 <0>        -0.1152
       9  C9          1.9120   33.6670   58.5240  C.ar      1 <0>        -0.0470
      10  C10         0.7810   33.8540   57.7250  C.ar      1 <0>        -0.0836
      11  C11         0.2980   32.8140   56.9620  C.ar      1 <0>        -0.1185
      12  C12         0.9360   31.5780   56.9850  C.ar      1 <0>         0.1099
      13  C13         2.0600   31.3860   57.7820  C.ar      1 <0>        -0.0941
      14  C14         2.5510   32.4230   58.5450  C.ar      1 <0>        -0.0987
      15  N1          0.4440   30.5250   56.2090  N.am      1 <0>        -0.4246
      16  C15        -0.4380   29.6540   56.7370  C.2       1 <0>         0.5473
      17  O1         -0.7500   29.7390   57.9060  O.2       1 <0>        -0.4825
      18  C16        -1.0390   28.5740   55.8750  C.3       1 <0>         0.0544
      19  O2          0.0010   27.9020   55.1600  O.3       1 <0>        -0.2947
      20  C17        -0.3280   27.3570   53.9600  C.ar      1 <0>         0.1273
      21  C18         0.0660   26.0640   53.6520  C.ar      1 <0>        -0.2104
      22  C19        -0.2740   25.5100   52.4330  C.ar      1 <0>        -0.0797
      23  C20        -0.9970   26.2500   51.5150  C.ar      1 <0>        -0.1565
      24  C21        -1.3850   27.5410   51.8160  C.ar      1 <0>        -0.0795
      25  C22        -1.0530   28.0970   53.0370  C.ar      1 <0>        -0.1473
      26  O3          0.8730   30.3730   54.8690  O.3       1 <0>        -0.3237
@<TRIPOS>BOND
     1     1     6 ar
     2     1     2 ar
     3     2     3 ar
     4     3     4 ar
     5     4     5 ar
     6     4     7 1
     7     5     6 ar
     8     7     8 2
     9     8     9 1
    10     9    14 ar
    11     9    10 ar
    12    10    11 ar
    13    11    12 ar
    14    12    13 ar
    15    12    15 1
    16    13    14 ar
    17    15    16 am
    18    15    26 1
    19    16    17 2
    20    16    18 1
    21    18    19 1
    22    19    20 1
    23    20    25 ar
    24    20    21 ar
    25    21    22 ar
    26    22    23 ar
    27    23    24 ar
    28    24    25 ar

@<TRIPOS>MOLECULE
ZINC59250224_replica-1.pdb
 26 27 0 0 0
SMALL
GASTEIGER

@<TRIPOS>ATOM
       1  C1         17.3500   34.5380   64.6670  C.3       1 <0>        -0.1520
       2  C2         16.2640   34.2130   63.6400  C.3       1 <0>         0.0518
       3  O1         14.9820   34.2580   64.2720  O.3       1 <0>        -0.3050
       4  C3         13.9820   33.5450   63.6890  C.ar      1 <0>         0.1005
       5  C4         12.9720   34.2000   63.0100  C.ar      1 <0>        -0.1497
       6  C5         11.9450   33.4630   62.4110  C.ar      1 <0>        -0.0490
       7  C6         11.9460   32.0670   62.5030  C.ar      1 <0>        -0.1005
       8  C7         12.9560   31.4220   63.1830  C.ar      1 <0>        -0.0719
       9  C8         13.9780   32.1540   63.7730  C.ar      1 <0>         0.1002
      10  O2         14.9740   31.5130   64.4370  O.3       1 <0>        -0.4805
      11  C9         12.9540   29.9190   63.2820  C.3       1 <0>        -0.0522
      12  C10        11.9900   29.4870   64.3570  C.2       1 <0>        -0.1509
      13  C11        12.4300   29.2090   65.5590  C.2       1 <0>        -0.1868
      14  C12        10.8680   34.1540   61.6860  C.2       1 <0>         0.2100
      15  N1         11.1020   34.6760   60.5140  N.2       1 <0>        -0.4740
      16  C13        10.1320   35.4100   59.8870  C.ar      1 <0>         0.0709
      17  C14         9.5520   34.9430   58.7080  C.ar      1 <0>        -0.0805
      18  C15         8.5660   35.6980   58.0770  C.ar      1 <0>        -0.1178
      19  C16         8.1630   36.9160   58.6290  C.ar      1 <0>        -0.0627
      20  C17         8.7410   37.3740   59.7970  C.ar      1 <0>        -0.1211
      21  C18         9.7150   36.6290   60.4310  C.ar      1 <0>        -0.0347
      22  C19        10.3340   37.1330   61.7090  C.3       1 <0>        -0.1176
      23  C20         7.9470   35.2100   56.8270  C.2       1 <0>         0.5081
      24  O3          8.1980   34.0930   56.4200  O.2       1 <0>        -0.5024
      25  O4          7.1050   36.0040   56.1380  O.3       1 <0>        -0.3485
      26  C21         7.5930   36.5640   54.9180  C.3       1 <0>         0.0339
@<TRIPOS>BOND
     1     1     2 1
     2     2     3 1
     3     3     4 1
     4     4     9 ar
     5     4     5 ar
     6     5     6 ar
     7     6     7 ar
     8     6    14 1
     9     7     8 ar
    10     8     9 ar
    11     8    11 1
    12     9    10 1
    13    11    12 1
    14    12    13 2
    15    14    15 2
    16    15    16 1
    17    16    21 ar
    18    16    17 ar
    19    17    18 ar
    20    18    19 ar
    21    18    23 1
    22    19    20 ar
    23    20    21 ar
    24    21    22 1
    25    23    24 2
    26    23    25 1
    27    25    26 1

@<TRIPOS>MOLECULE
ZINC49927972_replica-1.pdb
 23 24 0 0 0
SMALL
GASTEIGER

@<TRIPOS>ATOM
       1  C1         11.6910   32.3120   62.9320  C.3       1 <0>        -0.1556
       2  C2         10.8480   33.1070   61.9330  C.3       1 <0>        -0.1156
       3  C3         11.6230   34.3480   61.4870  C.3       1 <0>        -0.0548
       4  C4         12.2270   35.0400   62.7110  C.3       1 <0>        -0.1466
       5  C5         10.6880   35.2990   60.7830  C.ar      1 <0>        -0.0722
       6  C6         10.1750   34.9710   59.5420  C.ar      1 <0>        -0.1112
       7  C7          9.3180   35.8420   58.8960  C.ar      1 <0>        -0.1070
       8  C8          8.9750   37.0420   59.4910  C.ar      1 <0>        -0.1226
       9  C9          9.4870   37.3690   60.7320  C.ar      1 <0>        -0.1084
      10  C10        10.3410   36.4960   61.3800  C.ar      1 <0>        -0.1141
      11  C11         8.0410   37.9920   58.7870  C.3       1 <0>         0.1538
      12  C12         8.6960   38.4860   57.4960  C.3       1 <0>        -0.1570
      13  C13         7.6160   38.7390   56.4410  C.3       1 <0>         0.1293
      14  N1          7.6100   37.6400   55.4730  N.pl3     1 <0>        -0.7529
      15  C14         7.0890   36.3930   55.8340  C.ar      1 <0>         0.1820
      16  C15         5.7420   36.2680   56.1510  C.ar      1 <0>        -0.1568
      17  C16         5.2270   35.0370   56.5070  C.ar      1 <0>        -0.1023
      18  C17         6.0540   33.9240   56.5460  C.ar      1 <0>         0.0688
      19  C18         7.3990   34.0470   56.2280  C.ar      1 <0>        -0.1586
      20  C19         7.9140   35.2770   55.8680  C.ar      1 <0>        -0.1574
      21  O1          5.5470   32.7120   56.8950  O.3       1 <0>        -0.3219
      22  C20         6.4610   31.6160   56.9460  C.3       1 <0>         0.0292
      23  O2          7.7650   39.1070   59.6380  O.3       1 <0>        -0.5519
@<TRIPOS>BOND
     1     1     2 1
     2     2     3 1
     3     3     4 1
     4     3     5 1
     5     5    10 ar
     6     5     6 ar
     7     6     7 ar
     8     7     8 ar
     9     8     9 ar
    10     8    11 1
    11     9    10 ar
    12    11    12 1
    13    11    23 1
    14    12    13 1
    15    13    14 1
    16    14    15 1
    17    15    20 ar
    18    15    16 ar
    19    16    17 ar
    20    17    18 ar
    21    18    19 ar
    22    18    21 1
    23    19    20 ar
    24    21    22 1

@<TRIPOS>MOLECULE
ZINC23329183_replica-1.pdb
 26 28 0 0 0
SMALL
GASTEIGER

@<TRIPOS>ATOM
       1  C1          0.4670   26.5700   55.8820  C.3       1 <0>        -0.1472
       2  C2          0.1370   27.7360   54.9470  C.3       1 <0>        -0.0354
       3  C3         -0.3560   27.1990   53.6280  C.ar      1 <0>        -0.0747
       4  C4         -1.0920   28.0100   52.7840  C.ar      1 <0>        -0.1035
       5  C5         -1.5440   27.5180   51.5740  C.ar      1 <0>        -0.1176
       6  C6         -1.2600   26.2150   51.2080  C.ar      1 <0>        -0.1117
       7  C7         -0.5220   25.4050   52.0520  C.ar      1 <0>        -0.1175
       8  C8         -0.0670   25.8990   53.2600  C.ar      1 <0>        -0.0987
       9  S1         -1.1520   28.7680   55.7000  S.3       1 <0>         0.0359
      10  C9         -0.2510   29.9910   56.5940  C.2       1 <0>         0.1967
      11  N1          0.0140   29.9800   57.8800  N.2       1 <0>        -0.2862
      12  N2          0.6910   31.0260   58.1950  N.2       1 <0>        -0.2381
      13  C10         0.8960   31.7600   57.1380  C.2       1 <0>         0.1395
      14  N3          0.3090   31.1240   56.0800  N.pl3     1 <0>        -0.2971
      15  N4          0.2860   31.5380   54.7780  N.3       1 <0>        -0.5830
      16  C11         1.6470   33.0660   57.0900  C.3       1 <0>         0.1534
      17  O1          2.5080   33.0790   55.9480  O.3       1 <0>        -0.3098
      18  C12         3.4880   34.0200   55.9250  C.ar      1 <0>         0.1210
      19  C13         4.8210   33.6340   55.9600  C.ar      1 <0>        -0.2051
      20  C14         5.8170   34.5910   55.9360  C.ar      1 <0>        -0.0766
      21  C15         5.4860   35.9330   55.8790  C.ar      1 <0>        -0.1077
      22  C16         4.1590   36.3190   55.8460  C.ar      1 <0>        -0.0734
      23  C17         3.1600   35.3650   55.8630  C.ar      1 <0>        -0.1418
      24  C18         6.5740   36.9750   55.8540  C.3       1 <0>        -0.0544
      25  C19         7.1010   37.1950   57.2740  C.3       1 <0>        -0.1462
      26  C20         7.7150   36.5000   54.9530  C.3       1 <0>        -0.1457
@<TRIPOS>BOND
     1     1     2 1
     2     2     3 1
     3     2     9 1
     4     3     8 ar
     5     3     4 ar
     6     4     5 ar
     7     5     6 ar
     8     6     7 ar
     9     7     8 ar
    10     9    10 1
    11    10    14 1
    12    10    11 2
    13    11    12 1
    14    12    13 2
    15    13    14 1
    16    13    16 1
    17    14    15 1
    18    16    17 1
    19    17    18 1
    20    18    23 ar
    21    18    19 ar
    22    19    20 ar
    23    20    21 ar
    24    21    22 ar
    25    21    24 1
    26    22    23 ar
    27    24    25 1
    28    24    26 1

@<TRIPOS>MOLECULE
ZINC13645386_replica-1.pdb
 31 35 0 0 0
SMALL
GASTEIGER

@<TRIPOS>ATOM
       1  C1         -0.5020   24.8890   51.8350  C.3       1 <0>        -0.1196
       2  C2         -0.5110   26.2090   52.5630  C.ar      1 <0>        -0.0769
       3  C3          0.1910   26.3500   53.7460  C.ar      1 <0>        -0.1113
       4  C4          0.1840   27.5580   54.4140  C.ar      1 <0>        -0.1109
       5  C5         -0.5300   28.6320   53.8980  C.ar      1 <0>         0.1209
       6  C6         -1.2340   28.4870   52.7090  C.ar      1 <0>        -0.1016
       7  C7         -1.2270   27.2750   52.0490  C.ar      1 <0>        -0.0781
       8  C8         -1.9960   27.1140   50.7620  C.3       1 <0>        -0.1198
       9  N1         -0.5380   29.8560   54.5710  N.pl3     1 <0>        -1.0645
      10  S1         -1.5670   30.0920   55.8470  S.o2      1 <0>         2.6897
      11  O1         -2.5370   31.0380   55.4170  O.2       1 <0>        -0.9585
      12  O2         -1.9220   28.8020   56.3260  O.2       1 <0>        -0.9514
      13  C9         -0.6400   30.8680   57.1280  C.ar      1 <0>        -0.7172
      14  C10        -0.2430   30.1350   58.2310  C.ar      1 <0>         0.0194
      15  C11         0.4850   30.7450   59.2330  C.ar      1 <0>        -0.1995
      16  C12         0.8140   32.0910   59.1310  C.ar      1 <0>         0.2688
      17  C13         0.4150   32.8320   58.0290  C.ar      1 <0>        -0.1511
      18  C14        -0.3110   32.2040   57.0250  C.ar      1 <0>         0.0328
      19  C15         0.7240   34.2740   57.8900  C.3       1 <0>        -0.0139
      20  C16         1.8350   34.5000   56.8610  C.2       1 <0>        -0.1468
      21  C17         2.6150   35.4840   57.2360  C.2       1 <0>        -0.1710
      22  C18         2.1420   36.0640   58.5550  C.3       1 <0>        -0.0904
      23  C19         1.2940   34.9130   59.1710  C.3       1 <0>        -0.0987
      24  C20         2.2650   33.9440   59.8500  C.3       1 <0>         0.2449
      25  N2          1.5560   32.6950   60.1520  N.pl3     1 <0>        -0.7377
      26  C21         3.4230   33.6570   58.9300  C.2       1 <0>        -0.1596
      27  C22         4.6600   34.2090   58.9180  C.2       1 <0>        -0.1098
      28  C23         5.5740   33.7860   57.9710  C.2       1 <0>        -0.1569
      29  C24         5.2050   32.8320   57.0810  C.2       1 <0>        -0.1914
      30  S2          3.5230   32.4960   57.5780  S.3       1 <0>         0.0837
      31  C25         5.0360   35.2670   59.9230  C.3       1 <0>        -0.1022
@<TRIPOS>BOND
     1     1     2 1
     2     2     7 ar
     3     2     3 ar
     4     3     4 ar
     5     4     5 ar
     6     5     6 ar
     7     5     9 1
     8     6     7 ar
     9     7     8 1
    10     9    10 1
    11    10    11 2
    12    10    12 2
    13    10    13 1
    14    13    18 ar
    15    13    14 ar
    16    14    15 ar
    17    15    16 ar
    18    16    25 1
    19    16    17 ar
    20    17    18 ar
    21    17    19 1
    22    19    23 1
    23    19    20 1
    24    20    21 2
    25    21    22 1
    26    22    23 1
    27    23    24 1
    28    24    25 1
    29    24    26 1
    30    26    30 1
    31    26    27 2
    32    27    28 1
    33    27    31 1
    34    28    29 2
    35    29    30 1

@<TRIPOS>MOLECULE
ZINC13456848_replica-1.pdb
 25 26 0 0 0
SMALL
GASTEIGER

@<TRIPOS>ATOM
       1  C1          8.5680   38.8240   57.3640  C.3       1 <0>        -0.1543
       2  C2          8.4840   38.1780   58.7480  C.3       1 <0>        -0.1038
       3  C3          7.0970   38.4260   59.3440  C.3       1 <0>        -0.1469
       4  C4          8.7240   36.6720   58.6240  C.3       1 <0>         0.1944
       5  C5          9.6140   36.2100   59.7480  C.ar      1 <0>        -0.0972
       6  C6          9.8240   37.0290   60.8430  C.ar      1 <0>        -0.0833
       7  C7         10.6360   36.6050   61.8770  C.ar      1 <0>        -0.1505
       8  C8         11.2480   35.3640   61.8140  C.ar      1 <0>         0.0995
       9  C9         11.0410   34.5480   60.7140  C.ar      1 <0>        -0.1502
      10  C10        10.2250   34.9720   59.6830  C.ar      1 <0>        -0.0754
      11  F1         12.0470   34.9520   62.8210  F         1 <0>        -0.1393
      12  N1          7.4430   35.9650   58.6930  N.am      1 <0>        -0.7255
      13  C11         6.9470   35.3590   57.5960  C.2       1 <0>         0.5206
      14  O1          7.5610   35.3980   56.5520  O.2       1 <0>        -0.5106
      15  C12         5.6290   34.6320   57.6680  C.3       1 <0>         0.0417
      16  O2          4.5860   35.5630   57.9640  O.3       1 <0>        -0.2932
      17  C13         3.5520   35.1120   58.7180  C.ar      1 <0>         0.1148
      18  C14         2.2820   35.6480   58.5420  C.ar      1 <0>        -0.2261
      19  C15         1.2280   35.1890   59.3010  C.ar      1 <0>        -0.0394
      20  C16         1.4410   34.1910   60.2580  C.ar      1 <0>        -0.1464
      21  C17         2.7220   33.6600   60.4350  C.ar      1 <0>        -0.0475
      22  C18         3.7680   34.1210   59.6680  C.ar      1 <0>        -0.1614
      23  C19         0.3170   33.7010   61.0770  C.2       1 <0>         0.4912
      24  O3         -0.4660   34.4890   61.5680  O.co2     1 <0>        -0.6328
      25  O4          0.1590   32.3780   61.2810  O.co2     1 <0>        -0.7577
@<TRIPOS>BOND
     1     1     2 1
     2     2     3 1
     3     2     4 1
     4     4     5 1
     5     4    12 1
     6     5    10 ar
     7     5     6 ar
     8     6     7 ar
     9     7     8 ar
    10     8     9 ar
    11     8    11 1
    12     9    10 ar
    13    12    13 am
    14    13    14 2
    15    13    15 1
    16    15    16 1
    17    16    17 1
    18    17    22 ar
    19    17    18 ar
    20    18    19 ar
    21    19    20 ar
    22    20    21 ar
    23    20    23 1
    24    21    22 ar
    25    23    24 2
    26    23    25 1

@<TRIPOS>MOLECULE
ZINC14479811_replica-1.pdb
 23 26 0 0 0
SMALL
GASTEIGER

@<TRIPOS>ATOM
       1  C1          0.8490   35.3290   57.5440  C.3       1 <0>        -0.1530
       2  C2          2.1800   35.9850   57.9170  C.3       1 <0>         0.0565
       3  O1          2.8700   36.3700   56.7260  O.3       1 <0>        -0.3197
       4  C3          4.1810   36.0180   56.6310  C.ar      1 <0>         0.0836
       5  C4          4.9670   36.5450   55.6180  C.ar      1 <0>        -0.1656
       6  C5          6.2970   36.1850   55.5280  C.ar      1 <0>        -0.1485
       7  C6          6.8420   35.2990   56.4480  C.ar      1 <0>         0.1853
       8  C7          6.0620   34.7650   57.4610  C.ar      1 <0>        -0.0970
       9  C8          4.7250   35.1340   57.5460  C.ar      1 <0>        -0.1120
      10  C9          6.6050   33.8030   58.4690  C.3       1 <0>        -0.0136
      11  C10         6.8220   34.4690   59.8070  C.2       1 <0>        -0.1474
      12  C11         7.8950   33.9860   60.3850  C.2       1 <0>        -0.1594
      13  C12         8.5380   32.9260   59.5110  C.3       1 <0>        -0.0926
      14  C13         7.9960   33.2530   58.0890  C.3       1 <0>        -0.0969
      15  C14         8.8620   34.3810   57.5190  C.3       1 <0>         0.2029
      16  N1          8.1950   34.9460   56.3410  N.pl3     1 <0>        -0.7475
      17  C15         9.0420   35.4550   58.5600  C.ar      1 <0>        -0.0823
      18  C16         8.3270   36.6350   58.4670  C.ar      1 <0>        -0.1018
      19  C17         8.4880   37.6190   59.4250  C.ar      1 <0>        -0.1232
      20  C18         9.3710   37.4260   60.4700  C.ar      1 <0>        -0.1212
      21  C19        10.0890   36.2490   60.5610  C.ar      1 <0>        -0.0886
      22  C20         9.9240   35.2630   59.6060  C.ar      1 <0>        -0.1123
      23  C21        11.0530   36.0400   61.7020  C.3       1 <0>        -0.1144
@<TRIPOS>BOND
     1     1     2 1
     2     2     3 1
     3     3     4 1
     4     4     9 ar
     5     4     5 ar
     6     5     6 ar
     7     6     7 ar
     8     7    16 1
     9     7     8 ar
    10     8     9 ar
    11     8    10 1
    12    10    14 1
    13    10    11 1
    14    11    12 2
    15    12    13 1
    16    13    14 1
    17    14    15 1
    18    15    16 1
    19    15    17 1
    20    17    22 ar
    21    17    18 ar
    22    18    19 ar
    23    19    20 ar
    24    20    21 ar
    25    21    22 ar
    26    21    23 1

@<TRIPOS>MOLECULE
ZINC40267959_replica-1.pdb
 26 29 0 0 0
SMALL
GASTEIGER

@<TRIPOS>ATOM
       1  C1         10.1730   34.9790   59.5690  C.ar      1 <0>        -0.0831
       2  C2         10.9650   34.3630   60.5200  C.ar      1 <0>        -0.1220
       3  C3         11.2700   35.0200   61.6990  C.ar      1 <0>         0.0695
       4  C4         10.7770   36.2970   61.9260  C.ar      1 <0>         0.0719
       5  C5          9.9850   36.9110   60.9730  C.ar      1 <0>        -0.1205
       6  C6          9.6820   36.2510   59.7960  C.ar      1 <0>        -0.0636
       7  C7          8.8180   36.9200   58.7580  C.3       1 <0>         0.0487
       8  C8          8.8770   36.1320   57.4460  C.3       1 <0>        -0.1040
       9  C9          8.0230   34.8990   57.5040  C.2       1 <0>         0.3862
      10  N1          6.9170   34.8290   58.1850  N.2       1 <0>        -0.5467
      11  C10         6.5210   35.9110   58.9150  C.2       1 <0>         0.2012
      12  C11         7.3830   36.9360   59.2220  C.2       1 <0>        -0.0326
      13  N2          6.7200   37.8340   59.9400  N.2       1 <0>        -0.4451
      14  C12         5.4830   37.4370   60.1010  C.2       1 <0>         0.1950
      15  N3          5.3170   36.2330   59.4690  N.pl3     1 <0>        -0.3986
      16  C13         4.1370   35.4770   59.4050  C.ar      1 <0>         0.1095
      17  C14         3.0900   35.8900   58.5940  C.ar      1 <0>        -0.1151
      18  C15         1.9280   35.1420   58.5310  C.ar      1 <0>         0.1053
      19  C16         1.8090   33.9820   59.2780  C.ar      1 <0>        -0.1088
      20  C17         2.8510   33.5680   60.0870  C.ar      1 <0>        -0.1138
      21  C18         4.0170   34.3090   60.1490  C.ar      1 <0>         0.1171
      22  F1          5.0370   33.9010   60.9350  F         1 <0>        -0.1170
      23  F2          0.9080   35.5440   57.7410  F         1 <0>        -0.1244
      24  O1          8.4210   33.8100   56.8150  O.3       1 <0>        -0.4534
      25  F3         11.0720   36.9410   63.0770  F         1 <0>        -0.1267
      26  F4         12.0440   34.4190   62.6290  F         1 <0>        -0.1268
@<TRIPOS>BOND
     1     1     6 ar
     2     1     2 ar
     3     2     3 ar
     4     3     4 ar
     5     3    26 1
     6     4     5 ar
     7     4    25 1
     8     5     6 ar
     9     6     7 1
    10     7    12 1
    11     7     8 1
    12     8     9 1
    13     9    10 2
    14     9    24 1
    15    10    11 1
    16    11    15 1
    17    11    12 2
    18    12    13 1
    19    13    14 2
    20    14    15 1
    21    15    16 1
    22    16    21 ar
    23    16    17 ar
    24    17    18 ar
    25    18    19 ar
    26    18    23 1
    27    19    20 ar
    28    20    21 ar
    29    21    22 1

@<TRIPOS>MOLECULE
ZINC37216217_replica-1.pdb
 21 23 0 0 0
SMALL
GASTEIGER

@<TRIPOS>ATOM
       1  C1         11.7770   33.8750   62.1890  C.3       1 <0>         0.0268
       2  O1         11.6660   35.2690   61.8950  O.3       1 <0>        -0.3185
       3  C2         10.6930   35.6390   61.0200  C.ar      1 <0>         0.1282
       4  C3          9.9860   36.8160   61.2220  C.ar      1 <0>        -0.2065
       5  C4          8.9990   37.1890   60.3310  C.ar      1 <0>        -0.0693
       6  C5          8.7150   36.3910   59.2380  C.ar      1 <0>        -0.1336
       7  C6          9.4180   35.2170   59.0350  C.ar      1 <0>        -0.0580
       8  C7         10.4100   34.8420   59.9200  C.ar      1 <0>        -0.1528
       9  C8          7.6370   36.7990   58.2680  C.3       1 <0>         0.2319
      10  C9          8.2780   37.3930   57.0120  C.3       1 <0>        -0.1636
      11  C10         8.7150   38.8580   57.0660  C.3       1 <0>        -0.1671
      12  C11         7.4860   38.4550   56.2480  C.3       1 <0>        -0.1704
      13  N1          6.8390   35.6270   57.9010  N.pl3     1 <0>        -0.7395
      14  C12         5.4660   35.7610   57.6640  C.ar      1 <0>         0.1879
      15  C13         4.5800   35.8320   58.7300  C.ar      1 <0>        -0.1545
      16  C14         3.2260   35.9650   58.4950  C.ar      1 <0>        -0.1031
      17  C15         2.7510   36.0270   57.1930  C.ar      1 <0>         0.0690
      18  C16         3.6350   35.9560   56.1270  C.ar      1 <0>        -0.1586
      19  C17         4.9900   35.8290   56.3610  C.ar      1 <0>        -0.1558
      20  O2          1.4170   36.1580   56.9620  O.3       1 <0>        -0.3225
      21  C18         0.5630   35.1440   57.4970  C.3       1 <0>         0.0295
@<TRIPOS>BOND
     1     1     2 1
     2     2     3 1
     3     3     8 ar
     4     3     4 ar
     5     4     5 ar
     6     5     6 ar
     7     6     7 ar
     8     6     9 1
     9     7     8 ar
    10     9    10 1
    11     9    13 1
    12    10    12 1
    13    10    11 1
    14    11    12 1
    15    13    14 1
    16    14    19 ar
    17    14    15 ar
    18    15    16 ar
    19    16    17 ar
    20    17    18 ar
    21    17    20 1
    22    18    19 ar
    23    20    21 1

@<TRIPOS>MOLECULE
ZINC02281619_replica-1.pdb
 26 29 0 0 0
SMALL
GASTEIGER

@<TRIPOS>ATOM
       1  C1          0.2600   25.8150   55.9950  C.3       1 <0>        -0.1479
       2  C2          0.3390   27.1950   55.3400  C.3       1 <0>        -0.0781
       3  C3         -0.2380   27.1260   53.9500  C.ar      1 <0>        -0.1553
       4  C4          0.0030   26.0210   53.1560  C.ar      1 <0>        -0.0713
       5  C5         -0.5270   25.9570   51.8810  C.ar      1 <0>        -0.1749
       6  C6         -1.2990   26.9960   51.3950  C.ar      1 <0>        -0.0769
       7  C7         -1.5470   28.1020   52.1850  C.ar      1 <0>        -0.1977
       8  C8         -1.0120   28.1710   53.4660  C.ar      1 <0>         0.2176
       9  N1         -1.2580   29.2900   54.2660  N.pl3     1 <0>        -0.7415
      10  C9         -0.4380   30.4940   54.1140  C.3       1 <0>         0.0970
      11  C10         0.1860   30.8610   55.4620  C.3       1 <0>         0.0798
      12  C11        -0.9200   31.2260   56.4530  C.3       1 <0>         0.0867
      13  N2         -0.7870   30.4020   57.6570  N.pl3     1 <0>        -0.4992
      14  C12         0.0750   30.6690   58.7060  C.ar      1 <0>         0.1534
      15  C13         0.9940   31.6900   58.9280  C.ar      1 <0>        -0.1369
      16  C14         1.7350   31.7120   60.0900  C.ar      1 <0>        -0.0833
      17  C15         1.5810   30.7180   61.0430  C.ar      1 <0>        -0.1514
      18  C16         0.6790   29.6950   60.8400  C.ar      1 <0>        -0.0610
      19  C17        -0.0800   29.6640   59.6730  C.ar      1 <0>        -0.1065
      20  C18        -1.1060   28.7400   59.1550  C.ar      1 <0>        -0.1025
      21  C19        -1.5050   29.2460   57.9090  C.ar      1 <0>         0.1417
      22  C20        -2.4770   28.5700   57.1790  C.ar      1 <0>        -0.1456
      23  C21        -3.0370   27.4150   57.6790  C.ar      1 <0>        -0.0828
      24  C22        -2.6420   26.9160   58.9110  C.ar      1 <0>        -0.1506
      25  C23        -1.6810   27.5720   59.6500  C.ar      1 <0>        -0.0608
      26  O1          1.0620   31.9770   55.2930  O.3       1 <0>        -0.5430
@<TRIPOS>BOND
     1     1     2 1
     2     2     3 1
     3     3     8 ar
     4     3     4 ar
     5     4     5 ar
     6     5     6 ar
     7     6     7 ar
     8     7     8 ar
     9     8     9 1
    10     9    10 1
    11    10    11 1
    12    11    12 1
    13    11    26 1
    14    12    13 1
    15    13    21 1
    16    13    14 1
    17    14    19 ar
    18    14    15 ar
    19    15    16 ar
    20    16    17 ar
    21    17    18 ar
    22    18    19 ar
    23    19    20 1
    24    20    25 ar
    25    20    21 ar
    26    21    22 ar
    27    22    23 ar
    28    23    24 ar
    29    24    25 ar

@<TRIPOS>MOLECULE
ZINC05615761_replica-1.pdb
 32 36 0 0 0
SMALL
GASTEIGER

@<TRIPOS>ATOM
       1  C1         10.7310   36.5250   61.8340  C.ar      1 <0>        -0.1091
       2  C2          9.8130   37.1310   60.9970  C.ar      1 <0>        -0.1192
       3  C3          9.3530   36.4640   59.8770  C.ar      1 <0>        -0.1019
       4  C4          9.8100   35.1890   59.5960  C.ar      1 <0>        -0.1185
       5  C5         10.7330   34.5860   60.4310  C.ar      1 <0>        -0.1023
       6  C6         11.1920   35.2520   61.5510  C.ar      1 <0>        -0.1190
       7  C7          9.3050   34.4590   58.3790  C.3       1 <0>         0.1358
       8  N1          7.8430   34.5440   58.3300  N.pl3     1 <0>        -0.5162
       9  C8          7.2570   35.4010   57.4180  C.ar      1 <0>         0.2214
      10  C9          8.0530   36.1550   56.5600  C.ar      1 <0>        -0.1876
      11  C10         7.4700   37.0070   55.6460  C.ar      1 <0>        -0.0488
      12  C11         6.0910   37.1190   55.5640  C.ar      1 <0>        -0.1651
      13  C12         5.2830   36.3790   56.4010  C.ar      1 <0>        -0.0232
      14  C13         5.8600   35.5140   57.3300  C.ar      1 <0>        -0.1276
      15  C14         5.0160   34.7090   58.2370  C.2       1 <0>         0.3211
      16  N2          3.7020   34.7860   58.1940  N.2       1 <0>        -0.5327
      17  C15         2.9410   33.7990   58.7530  C.ar      1 <0>         0.2004
      18  C16         2.2790   34.0240   59.9640  C.ar      1 <0>        -0.1824
      19  C17         1.5060   33.0250   60.5190  C.ar      1 <0>         0.0096
      20  C18         1.3950   31.8000   59.8870  C.ar      1 <0>        -0.7086
      21  C19         2.0520   31.5680   58.6910  C.ar      1 <0>         0.0082
      22  C20         2.8230   32.5590   58.1200  C.ar      1 <0>        -0.1761
      23  S1          0.4120   30.5280   60.6070  S.o2      1 <0>         2.7031
      24  O1         -0.2400   31.1050   61.7310  O.2       1 <0>        -0.9650
      25  O2         -0.3040   29.9160   59.5430  O.2       1 <0>        -0.9650
      26  N3          1.4510   29.3820   61.2000  N.pl3     1 <0>        -1.2508
      27  C21         5.7000   33.8150   59.1940  C.ar      1 <0>        -0.1742
      28  C22         7.1030   33.7680   59.2030  C.ar      1 <0>         0.2264
      29  C23         7.7480   32.9270   60.1040  C.ar      1 <0>        -0.1868
      30  C24         7.0110   32.1520   60.9740  C.ar      1 <0>        -0.0472
      31  C25         5.6260   32.2000   60.9640  C.ar      1 <0>        -0.1574
      32  C26         4.9670   33.0270   60.0790  C.ar      1 <0>        -0.0733
@<TRIPOS>BOND
     1     1     6 ar
     2     1     2 ar
     3     2     3 ar
     4     3     4 ar
     5     4     5 ar
     6     4     7 1
     7     5     6 ar
     8     7     8 1
     9     8    28 1
    10     8     9 1
    11     9    14 ar
    12     9    10 ar
    13    10    11 ar
    14    11    12 ar
    15    12    13 ar
    16    13    14 ar
    17    14    15 1
    18    15    16 2
    19    15    27 1
    20    16    17 1
    21    17    22 ar
    22    17    18 ar
    23    18    19 ar
    24    19    20 ar
    25    20    21 ar
    26    20    23 1
    27    21    22 ar
    28    23    24 2
    29    23    25 2
    30    23    26 1
    31    27    32 ar
    32    27    28 ar
    33    28    29 ar
    34    29    30 ar
    35    30    31 ar
    36    31    32 ar

@<TRIPOS>MOLECULE
ZINC41587209_replica-1.pdb
 31 35 0 0 0
SMALL
GASTEIGER

@<TRIPOS>ATOM
       1  C1          4.9650   32.8650   60.4830  C.3       1 <0>        -0.1018
       2  C2          4.5590   33.6630   59.2710  C.ar      1 <0>        -0.1349
       3  C3          3.2930   33.4950   58.7250  C.ar      1 <0>         0.2098
       4  C4          2.9060   34.2280   57.6070  C.ar      1 <0>        -0.1935
       5  C5          3.7750   35.1170   57.0360  C.ar      1 <0>         0.0277
       6  C6          5.0480   35.2940   57.5740  C.ar      1 <0>        -0.2889
       7  C7          5.4480   34.5680   58.7080  C.ar      1 <0>         0.1693
       8  O1          6.7090   34.9120   59.0500  O.3       1 <0>        -0.2033
       9  C8          7.2190   35.8480   58.2150  C.2       1 <0>        -0.0440
      10  C9          8.4560   36.3980   58.2880  C.2       1 <0>        -0.0135
      11  C10         9.3410   36.0700   59.4160  C.ar      1 <0>        -0.0895
      12  C11        10.0720   34.8770   59.4120  C.ar      1 <0>        -0.0863
      13  C12        10.8990   34.5760   60.4730  C.ar      1 <0>        -0.1247
      14  C13        11.0050   35.4500   61.5410  C.ar      1 <0>        -0.0572
      15  C14        10.2850   36.6320   61.5530  C.ar      1 <0>        -0.1202
      16  C15         9.4590   36.9500   60.4970  C.ar      1 <0>        -0.0905
      17  C16        11.9120   35.1130   62.6970  C.3       1 <0>        -0.0612
      18  C17        13.2180   34.5210   62.1660  C.3       1 <0>        -0.1455
      19  C18        12.2150   36.3840   63.4950  C.3       1 <0>        -0.1456
      20  C19         6.1910   36.1510   57.2060  C.2       1 <0>         0.4197
      21  O2          6.2620   36.9420   56.2820  O.2       1 <0>        -0.4225
      22  C20         1.5320   34.0570   57.0120  C.3       1 <0>         0.0993
      23  N1          0.9380   32.8030   57.4950  N.3       1 <0>        -0.5546
      24  C21         1.0570   32.7160   58.9600  C.3       1 <0>         0.2228
      25  O3          2.4420   32.6050   59.2990  O.3       1 <0>        -0.2902
      26  C22        -0.4650   32.6880   57.0740  C.3       1 <0>         0.1436
      27  C23        -0.6120   31.5260   56.1260  C.2       1 <0>        -0.1491
      28  C24         0.2920   31.0170   55.2530  C.2       1 <0>        -0.1531
      29  C25        -0.0670   29.9330   54.4730  C.2       1 <0>        -0.1600
      30  C26        -1.3110   29.4100   54.6060  C.2       1 <0>        -0.1708
      31  S1         -2.0180   30.4570   55.8680  S.3       1 <0>         0.0664
@<TRIPOS>BOND
     1     1     2 1
     2     2     7 ar
     3     2     3 ar
     4     3    25 1
     5     3     4 ar
     6     4     5 ar
     7     4    22 1
     8     5     6 ar
     9     6    20 1
    10     6     7 ar
    11     7     8 1
    12     8     9 1
    13     9    10 2
    14     9    20 1
    15    10    11 1
    16    11    16 ar
    17    11    12 ar
    18    12    13 ar
    19    13    14 ar
    20    14    15 ar
    21    14    17 1
    22    15    16 ar
    23    17    18 1
    24    17    19 1
    25    20    21 2
    26    22    23 1
    27    23    24 1
    28    23    26 1
    29    24    25 1
    30    26    27 1
    31    27    31 1
    32    27    28 2
    33    28    29 1
    34    29    30 2
    35    30    31 1

@<TRIPOS>MOLECULE
ZINC05673093_replica-1.pdb
 26 28 0 0 0
SMALL
GASTEIGER

@<TRIPOS>ATOM
       1  C1          1.1780   35.1580   59.1240  C.3       1 <0>        -0.1538
       2  C2          0.7850   35.3540   57.6590  C.3       1 <0>         0.0628
       3  O1          1.8310   36.0900   56.9720  O.3       1 <0>        -0.3535
       4  C3          2.8970   35.3830   56.5450  C.2       1 <0>         0.5110
       5  O2          2.7330   34.3400   55.9450  O.2       1 <0>        -0.5017
       6  C4          4.2630   35.8760   56.8070  C.ar      1 <0>        -0.1243
       7  C5          4.7650   35.8870   58.1100  C.ar      1 <0>        -0.0374
       8  C6          6.0400   36.3470   58.3510  C.ar      1 <0>        -0.1294
       9  C7          6.8280   36.8000   57.2980  C.ar      1 <0>         0.1205
      10  C8          6.3290   36.7950   56.0000  C.ar      1 <0>        -0.1303
      11  C9          5.0580   36.3320   55.7510  C.ar      1 <0>        -0.0457
      12  O3          8.0850   37.2530   57.5380  O.3       1 <0>        -0.2907
      13  C10         8.3920   37.5540   58.8160  C.2       1 <0>         0.5100
      14  O4          7.9470   38.5620   59.3280  O.2       1 <0>        -0.4819
      15  C11         9.2700   36.6580   59.5930  C.ar      1 <0>        -0.1309
      16  C12         9.6250   35.4080   59.0790  C.ar      1 <0>        -0.0448
      17  C13        10.4430   34.5720   59.8060  C.ar      1 <0>        -0.1248
      18  C14        10.9190   34.9740   61.0540  C.ar      1 <0>         0.0006
      19  C15        10.5620   36.2200   61.5700  C.ar      1 <0>        -0.1266
      20  C16         9.7480   37.0590   60.8430  C.ar      1 <0>        -0.0541
      21  C17        11.8000   34.0730   61.8350  C.ar      1 <0>        -0.0623
      22  C18        13.1380   34.4070   62.0380  C.ar      1 <0>        -0.1028
      23  C19        13.9550   33.5610   62.7620  C.ar      1 <0>        -0.1191
      24  C20        13.4450   32.3910   63.2950  C.ar      1 <0>        -0.1101
      25  C21        12.1180   32.0550   63.0970  C.ar      1 <0>        -0.1189
      26  C22        11.2930   32.8900   62.3700  C.ar      1 <0>        -0.1029
@<TRIPOS>BOND
     1     1     2 1
     2     2     3 1
     3     3     4 1
     4     4     5 2
     5     4     6 1
     6     6    11 ar
     7     6     7 ar
     8     7     8 ar
     9     8     9 ar
    10     9    10 ar
    11     9    12 1
    12    10    11 ar
    13    12    13 1
    14    13    14 2
    15    13    15 1
    16    15    20 ar
    17    15    16 ar
    18    16    17 ar
    19    17    18 ar
    20    18    19 ar
    21    18    21 1
    22    19    20 ar
    23    21    26 ar
    24    21    22 ar
    25    22    23 ar
    26    23    24 ar
    27    24    25 ar
    28    25    26 ar

@<TRIPOS>MOLECULE
ZINC20526310_replica-1.pdb
 19 20 0 0 0
SMALL
GASTEIGER

@<TRIPOS>ATOM
       1  C1          8.4950   38.6430   57.7040  C.3       1 <0>        -0.1570
       2  C2          8.4700   37.3000   58.4340  C.3       1 <0>         0.1726
       3  C3          7.0930   36.6950   58.3250  C.ar      1 <0>        -0.0202
       4  C4          6.1400   36.9690   59.2880  C.ar      1 <0>        -0.1197
       5  C5          4.8760   36.4170   59.1860  C.ar      1 <0>        -0.0574
       6  C6          4.5690   35.5860   58.1250  C.ar      1 <0>        -0.1191
       7  C7          5.5230   35.3090   57.1650  C.ar      1 <0>        -0.0477
       8  C8          6.7860   35.8630   57.2650  C.ar      1 <0>        -0.0409
       9  N1          7.8080   35.5670   56.2360  N.pl3     1 <0>         0.0295
      10  O1          8.5850   34.6430   56.3980  O.2       1 <0>        -0.1534
      11  O2          7.8740   36.2480   55.2280  O.3       1 <0>        -0.1589
      12  N2          8.8020   37.5050   59.8460  N.pl3     1 <0>        -0.7539
      13  C9          9.7060   36.6510   60.4820  C.ar      1 <0>         0.2399
      14  C10        10.2870   37.0240   61.6870  C.ar      1 <0>        -0.1965
      15  C11        11.1760   36.1730   62.3160  C.ar      1 <0>        -0.0341
      16  C12        11.4970   34.9580   61.7400  C.ar      1 <0>        -0.1560
      17  C13        10.9250   34.5860   60.5370  C.ar      1 <0>        -0.0365
      18  C14        10.0310   35.4280   59.9060  C.ar      1 <0>        -0.1931
      19  I1         12.8520   33.6760   62.6930  I         1 <0>        -0.0548
@<TRIPOS>BOND
     1     1     2 1
     2     2     3 1
     3     2    12 1
     4     3     8 ar
     5     3     4 ar
     6     4     5 ar
     7     5     6 ar
     8     6     7 ar
     9     7     8 ar
    10     8     9 1
    11     9    10 2
    12     9    11 1
    13    12    13 1
    14    13    18 ar
    15    13    14 ar
    16    14    15 ar
    17    15    16 ar
    18    16    17 ar
    19    16    19 1
    20    17    18 ar

@<TRIPOS>MOLECULE
ZINC01617201_replica-1.pdb
 22 23 0 0 0
SMALL
GASTEIGER

@<TRIPOS>ATOM
      1  C9         9.9330   34.7060   60.5510 C.2     0  <0>0        0.0528
      2  C10        9.0710   34.0740   59.6800 C.2     0  <0>0        0.0608
      3 Cl          8.9040   32.3460   59.7220 Cl      0  <0>0       -0.0821
      4  C6        10.8150   33.9040   61.4320 C.ar    0  <0>0        0.0042
      5  C5        10.3500   32.7140   61.9900 C.ar    0  <0>0        0.0032
      6  C4        11.1730   31.9700   62.8090 C.ar    0  <0>0        0.0369
      7  C3        12.4650   32.4050   63.0770 C.ar    0  <0>0        0.1386
      8  C8        12.9310   33.5890   62.5230 C.ar    0  <0>0        0.0369
      9  C7        12.1140   34.3350   61.7010 C.ar    0  <0>0        0.0032
     10  O1        13.2730   31.6690   63.8850 O.3     0  <0>0       -0.4755
     11  C2        13.0910   30.2520   63.8660 C.3     0  <0>0        0.2055
     12  C1        12.6980   29.7690   65.2630 C.3     0  <0>0        0.0512
     13  C18        9.9760   36.1190   60.6040 C.2     0  <0>0        0.2350
     14  O3         9.3940   36.7120   61.4910 O.2     0  <0>0       -0.2831
     15  C11        8.2930   34.8620   58.7180 C.ar    0  <0>0        0.0109
     16  C16        6.9600   35.1950   58.9980 C.ar    0  <0>0        0.0040
     17  C15        6.2370   35.9400   58.0950 C.ar    0  <0>0        0.0369
     18  C14        6.8220   36.3540   56.9030 C.ar    0  <0>0        0.1387
     19  C13        8.1440   36.0280   56.6210 C.ar    0  <0>0        0.0369
     20  C12        8.8790   35.2870   57.5190 C.ar    0  <0>0        0.0040
     21  O2         6.1010   37.0840   56.0140 O.3     0  <0>0       -0.4714
     22  C17        4.8330   36.5570   55.6190 C.3     0  <0>0        0.2525
@<TRIPOS>BOND
     1    22    21    1
     2    21    18    1
     3    19    18   ar
     4    19    20   ar
     5    18    17   ar
     6    20    15   ar
     7    17    16   ar
     8    15    16   ar
     9    15     2    1
    10     2     3    1
    11     2     1    2
    12     1    13    1
    13     1     4    1
    14    13    14    2
    15     4     9   ar
    16     4     5   ar
    17     9     8   ar
    18     5     6   ar
    19     8     7   ar
    20     6     7   ar
    21     7    10    1
    22    11    10    1
    23    11    12    1


@<TRIPOS>MOLECULE
ZINC20606382_replica-1.pdb
 28 31 0 0 0
SMALL
GASTEIGER

@<TRIPOS>ATOM
       1  C1         12.4450   34.7470   63.2140  C.3       1 <0>        -0.1218
       2  C2         11.5610   35.2060   62.0830  C.ar      1 <0>        -0.0688
       3  C3         10.9870   36.4630   62.1220  C.ar      1 <0>        -0.1147
       4  C4         10.1750   36.8850   61.0850  C.ar      1 <0>        -0.0946
       5  C5          9.9400   36.0500   60.0090  C.ar      1 <0>        -0.1132
       6  C6         10.5110   34.7920   59.9720  C.ar      1 <0>        -0.0849
       7  C7         11.3250   34.3720   61.0070  C.ar      1 <0>        -0.1127
       8  C8          9.0550   36.5100   58.8780  C.3       1 <0>         0.2591
       9  N1          7.7660   35.7730   58.9020  N.pl3     1 <0>        -0.5719
      10  C9          6.7840   36.4480   59.7760  C.3       1 <0>         0.0173
      11  C10         6.7180   37.9500   59.3850  C.3       1 <0>        -0.0687
      12  S1          8.5230   38.2570   59.1310  S.3       1 <0>        -0.1745
      13  C11         5.4800   35.7650   59.4390  C.2       1 <0>         0.5277
      14  O1          4.3700   36.0740   59.8180  O.2       1 <0>        -0.4253
      15  N2          5.8100   34.7400   58.6260  N.am      1 <0>        -0.4836
      16  C12         7.1230   34.7190   58.3670  C.2       1 <0>         0.5645
      17  S2          7.8970   33.4940   57.4550  S.2       1 <0>        -0.4971
      18  C13         4.8910   33.8080   58.1200  C.ar      1 <0>         0.1020
      19  C14         4.5800   32.6710   58.8520  C.ar      1 <0>        -0.0546
      20  C15         3.6780   31.7520   58.3500  C.ar      1 <0>        -0.0960
      21  C16         3.0790   31.9650   57.1220  C.ar      1 <0>        -0.0563
      22  C17         3.3810   33.0980   56.3890  C.ar      1 <0>        -0.1783
      23  C18         4.2840   34.0240   56.8860  C.ar      1 <0>         0.1380
      24  O2          4.5830   35.1390   56.1660  O.3       1 <0>        -0.3182
      25  C19         3.5170   36.0620   55.9290  C.3       1 <0>         0.4107
      26  F1          2.8650   36.3420   57.1340  F         1 <0>        -0.1959
      27  F2          4.0370   37.2460   55.3950  F         1 <0>        -0.1917
      28  C20         3.3460   30.5140   59.1430  C.3       1 <0>        -0.1156
@<TRIPOS>BOND
     1     1     2 1
     2     2     7 ar
     3     2     3 ar
     4     3     4 ar
     5     4     5 ar
     6     5     6 ar
     7     5     8 1
     8     6     7 ar
     9     8    12 1
    10     8     9 1
    11     9    16 1
    12     9    10 1
    13    10    11 1
    14    10    13 1
    15    11    12 1
    16    13    14 2
    17    13    15 am
    18    15    16 1
    19    15    18 1
    20    16    17 2
    21    18    23 ar
    22    18    19 ar
    23    19    20 ar
    24    20    21 ar
    25    20    28 1
    26    21    22 ar
    27    22    23 ar
    28    23    24 1
    29    24    25 1
    30    25    26 1
    31    25    27 1

@<TRIPOS>MOLECULE
ZINC44053933_replica-1.pdb
 20 21 0 0 0
SMALL
GASTEIGER

@<TRIPOS>ATOM
       1  C1          8.2250   38.9200   57.0670  C.3       1 <0>        -0.1319
       2  C2          8.5640   37.7600   57.9680  C.ar      1 <0>        -0.0455
       3  C3          8.8470   37.9810   59.3020  C.ar      1 <0>        -0.1091
       4  C4          9.1580   36.9170   60.1280  C.ar      1 <0>        -0.0765
       5  C5          9.1840   35.6330   59.6200  C.ar      1 <0>        -0.1561
       6  C6          8.9010   35.4110   58.2850  C.ar      1 <0>        -0.1140
       7  C7          8.5860   36.4740   57.4600  C.ar      1 <0>        -0.1076
       8  C8          9.5250   34.4730   60.5210  C.3       1 <0>         0.0934
       9  C9         11.0070   34.5360   60.8980  C.3       1 <0>         0.0366
      10  O1         11.1440   34.4050   62.3130  O.3       1 <0>        -0.3304
      11  C10        12.1520   33.6130   62.7640  C.ar      1 <0>         0.1215
      12  C11        13.3930   34.1630   63.0490  C.ar      1 <0>        -0.2120
      13  C12        14.4170   33.3560   63.5080  C.ar      1 <0>        -0.0367
      14  C13        14.2050   32.0010   63.6810  C.ar      1 <0>        -0.1451
      15  C14        12.9680   31.4490   63.3980  C.ar      1 <0>        -0.0358
      16  C15        11.9400   32.2540   62.9440  C.ar      1 <0>        -0.1519
      17  C16        12.7410   29.9720   63.5870  C.3       1 <0>        -0.1222
      18  C17        15.7650   33.9530   63.8180  C.3       1 <0>        -0.1229
      19  N1          9.2520   33.2110   59.8180  N.4       1 <0>        -0.5070
      20  C18         8.2790   32.4230   60.5870  C.3       1 <0>        -0.0475
@<TRIPOS>BOND
     1     1     2 1
     2     2     7 ar
     3     2     3 ar
     4     3     4 ar
     5     4     5 ar
     6     5     6 ar
     7     5     8 1
     8     6     7 ar
     9     8     9 1
    10     8    19 1
    11     9    10 1
    12    10    11 1
    13    11    16 ar
    14    11    12 ar
    15    12    13 ar
    16    13    14 ar
    17    13    18 1
    18    14    15 ar
    19    15    16 ar
    20    15    17 1
    21    19    20 1

@<TRIPOS>MOLECULE
ZINC39478958_replica-1.pdb
 29 32 0 0 0
SMALL
GASTEIGER

@<TRIPOS>ATOM
       1  C1          2.3690   34.3070   56.5670  C.3       1 <0>        -0.1493
       2  C2          1.2840   34.8110   57.5200  C.3       1 <0>        -0.0233
       3  C3          0.4840   35.9250   56.8410  C.3       1 <0>        -0.1547
       4  C4          0.3460   33.6570   57.8800  C.3       1 <0>        -0.1508
       5  C5          1.9360   35.3540   58.7930  C.3       1 <0>        -0.0419
       6  C6          3.3940   35.7000   58.5440  C.2       1 <0>        -0.0603
       7  C7          4.0610   34.8940   59.3730  C.2       1 <0>        -0.1328
       8  N1          3.2090   34.1200   60.0810  N.2       1 <0>        -0.1775
       9  N2          2.0120   34.3070   59.8270  N.2       1 <0>        -0.1110
      10  C8          5.5620   34.8550   59.5050  C.3       1 <0>         0.0817
      11  N3          6.1180   36.1740   59.1750  N.4       1 <0>        -0.5093
      12  C9          6.4490   36.8900   60.4150  C.3       1 <0>         0.0170
      13  C10         7.4490   38.0060   60.1080  C.3       1 <0>        -0.1586
      14  C11         6.9430   38.8820   58.9790  C.2       1 <0>         0.0389
      15  N4          7.8080   38.7750   58.0240  N.2       1 <0>        -0.2599
      16  N5          8.8620   37.9280   58.3530  N.2       1 <0>        -0.2929
      17  C12         8.7400   37.4300   59.5580  C.2       1 <0>         0.1719
      18  C13         9.6580   36.5050   60.2370  C.ar      1 <0>        -0.0733
      19  C14         9.8980   35.2350   59.7000  C.ar      1 <0>        -0.0867
      20  C15        10.7550   34.3740   60.3350  C.ar      1 <0>        -0.1173
      21  C16        11.3880   34.7630   61.5160  C.ar      1 <0>         0.0077
      22  C17        11.1520   36.0290   62.0530  C.ar      1 <0>        -0.1144
      23  C18        10.2990   36.8950   61.4190  C.ar      1 <0>        -0.0519
      24  C19        12.3140   33.8300   62.2020  C.ar      1 <0>        -0.0732
      25  C20        11.8310   32.6430   62.7520  C.ar      1 <0>        -0.1017
      26  C21        12.6980   31.7770   63.3880  C.ar      1 <0>        -0.1189
      27  C22        14.0430   32.0870   63.4820  C.ar      1 <0>        -0.1029
      28  C23        14.5280   33.2630   62.9390  C.ar      1 <0>        -0.1170
      29  C24        13.6710   34.1330   62.2950  C.ar      1 <0>        -0.0999
@<TRIPOS>BOND
     1     1     2 1
     2     2     3 1
     3     2     4 1
     4     2     5 1
     5     5     9 1
     6     5     6 1
     7     6     7 2
     8     7     8 1
     9     7    10 1
    10     8     9 2
    11    10    11 1
    12    11    12 1
    13    12    13 1
    14    13    17 1
    15    13    14 1
    16    14    15 2
    17    15    16 1
    18    16    17 2
    19    17    18 1
    20    18    23 ar
    21    18    19 ar
    22    19    20 ar
    23    20    21 ar
    24    21    22 ar
    25    21    24 1
    26    22    23 ar
    27    24    29 ar
    28    24    25 ar
    29    25    26 ar
    30    26    27 ar
    31    27    28 ar
    32    28    29 ar

@<TRIPOS>MOLECULE
ZINC40845792_replica-1.pdb
 25 26 0 0 0
SMALL
GASTEIGER

@<TRIPOS>ATOM
       1  C1          0.7400   25.4350   54.7310  C.3       1 <0>        -0.1173
       2  C2          0.0920   26.6030   54.0350  C.ar      1 <0>        -0.0402
       3  C3         -0.5600   26.4150   52.8300  C.ar      1 <0>        -0.1572
       4  C4         -1.1560   27.4860   52.1890  C.ar      1 <0>        -0.0420
       5  C5         -1.1020   28.7470   52.7510  C.ar      1 <0>        -0.2199
       6  C6         -0.4490   28.9380   53.9610  C.ar      1 <0>         0.1358
       7  C7          0.1430   27.8610   54.6040  C.ar      1 <0>        -0.1538
       8  O1         -0.3950   30.1770   54.5150  O.3       1 <0>        -0.2834
       9  C8         -0.7350   30.2840   55.8990  C.3       1 <0>         0.0763
      10  C9         -2.1020   30.9580   56.0370  C.3       1 <0>        -0.1783
      11  C10         0.3060   31.1090   56.6100  C.2       1 <0>         0.5348
      12  O2          0.1300   31.4480   57.7610  O.2       1 <0>        -0.4738
      13  N1          1.4340   31.4700   55.9650  N.am      1 <0>        -0.5817
      14  N2          2.4030   32.2370   56.6260  N.2       1 <0>        -0.2277
      15  C11         2.5980   33.4730   56.2820  C.2       1 <0>         0.1164
      16  C12         3.6170   34.2800   56.9780  C.ar      1 <0>        -0.0659
      17  C13         3.2500   35.1130   58.0380  C.ar      1 <0>        -0.0730
      18  C14         4.2090   35.8640   58.6840  C.ar      1 <0>        -0.1233
      19  C15         5.5320   35.7950   58.2860  C.ar      1 <0>        -0.0561
      20  C16         5.9030   34.9720   57.2370  C.ar      1 <0>        -0.1206
      21  C17         4.9550   34.2100   56.5850  C.ar      1 <0>        -0.0850
      22  C18         6.5740   36.6190   58.9960  C.3       1 <0>        -0.0619
      23  C19         7.2940   37.5140   57.9860  C.3       1 <0>        -0.1453
      24  C20         5.8990   37.4890   60.0590  C.3       1 <0>        -0.1453
      25  C21        -1.8640   27.2770   50.8750  C.3       1 <0>        -0.1175
@<TRIPOS>BOND
     1     1     2 1
     2     2     7 ar
     3     2     3 ar
     4     3     4 ar
     5     4     5 ar
     6     4    25 1
     7     5     6 ar
     8     6     7 ar
     9     6     8 1
    10     8     9 1
    11     9    10 1
    12     9    11 1
    13    11    12 2
    14    11    13 am
    15    13    14 1
    16    14    15 2
    17    15    16 1
    18    16    21 ar
    19    16    17 ar
    20    17    18 ar
    21    18    19 ar
    22    19    20 ar
    23    19    22 1
    24    20    21 ar
    25    22    23 1
    26    22    24 1

@<TRIPOS>MOLECULE
ZINC00924051_replica-1.pdb
 28 32 0 0 0
SMALL
GASTEIGER

@<TRIPOS>ATOM
       1  C1          0.2120   33.4660   57.8640  C.3       1 <0>        -0.1531
       2  C2          0.6480   34.6000   58.7940  C.3       1 <0>         0.0545
       3  O1          1.0830   35.7150   58.0140  O.3       1 <0>        -0.3161
       4  C3          2.3980   35.7540   57.6730  C.ar      1 <0>         0.1355
       5  C4          2.7730   36.1040   56.3840  C.ar      1 <0>        -0.1553
       6  C5          4.1100   36.1420   56.0410  C.ar      1 <0>        -0.0502
       7  C6          5.0760   35.8310   56.9800  C.ar      1 <0>        -0.1489
       8  C7          4.7050   35.4810   58.2660  C.ar      1 <0>        -0.0562
       9  C8          3.3690   35.4420   58.6140  C.ar      1 <0>        -0.2137
      10  C9          6.5400   35.8670   56.6000  C.3       1 <0>         0.2620
      11  C10         7.1900   34.5690   57.0020  C.2       1 <0>        -0.2590
      12  C11         8.0570   34.4880   58.0460  C.2       1 <0>         0.0775
      13  C12         8.5750   33.1450   58.4920  C.3       1 <0>        -0.1110
      14  C13         7.5830   32.0390   58.1140  C.3       1 <0>        -0.1199
      15  C14         7.4010   32.0720   56.5940  C.3       1 <0>        -0.1567
      16  C15         6.8820   33.4350   56.2250  C.2       1 <0>         0.3975
      17  O2          6.1970   33.5590   55.2270  O.2       1 <0>        -0.4697
      18  C16         8.5060   35.6560   58.7130  C.ar      1 <0>        -0.1762
      19  C17         9.5170   35.6370   59.7690  C.ar      1 <0>        -0.0190
      20  C18        10.3330   34.5350   60.0520  C.ar      1 <0>        -0.0985
      21  C19        11.1850   34.5970   61.1210  C.ar      1 <0>        -0.1540
      22  C20        11.2370   35.7410   61.9100  C.ar      1 <0>         0.1045
      23  N1         10.5330   36.8020   61.6010  N.ar      1 <0>        -0.4554
      24  C21         9.7530   36.8220   60.5160  C.ar      1 <0>         0.0813
      25  C22         9.1630   38.0350   60.1040  C.ar      1 <0>        -0.0189
      26  C23         8.3410   38.0690   59.0260  C.ar      1 <0>        -0.1646
      27  C24         8.0030   36.9060   58.3230  C.ar      1 <0>         0.2716
      28  N2          7.1640   37.0230   57.2290  N.pl3     1 <0>        -0.7054
@<TRIPOS>BOND
     1     1     2 1
     2     2     3 1
     3     3     4 1
     4     4     9 ar
     5     4     5 ar
     6     5     6 ar
     7     6     7 ar
     8     7     8 ar
     9     7    10 1
    10     8     9 ar
    11    10    28 1
    12    10    11 1
    13    11    16 1
    14    11    12 2
    15    12    13 1
    16    12    18 1
    17    13    14 1
    18    14    15 1
    19    15    16 1
    20    16    17 2
    21    18    27 ar
    22    18    19 ar
    23    19    24 ar
    24    19    20 ar
    25    20    21 ar
    26    21    22 ar
    27    22    23 ar
    28    23    24 ar
    29    24    25 ar
    30    25    26 ar
    31    26    27 ar
    32    27    28 1

@<TRIPOS>MOLECULE
ZINC38590657_replica-1.pdb
 32 36 0 0 0
SMALL
GASTEIGER

@<TRIPOS>ATOM
       1  C1          2.1780   35.5770   56.7960  C.3       1 <0>        -0.1187
       2  C2          1.5170   34.2440   57.0320  C.ar      1 <0>        -0.0736
       3  C3          0.2950   34.1820   57.6770  C.ar      1 <0>        -0.1180
       4  C4         -0.3110   32.9590   57.8920  C.ar      1 <0>        -0.0810
       5  C5          0.3040   31.7980   57.4640  C.ar      1 <0>        -0.1049
       6  C6          1.5240   31.8590   56.8190  C.ar      1 <0>        -0.0944
       7  C7          2.1280   33.0820   56.5990  C.ar      1 <0>        -0.1204
       8  C8         -0.3570   30.4640   57.7010  C.3       1 <0>         0.2298
       9  C9         -0.2910   29.6300   56.4640  C.2       1 <0>        -0.2443
      10  C10        -0.8400   29.8470   55.1210  C.2       1 <0>         0.4552
      11  O1         -1.3280   30.9040   54.7640  O.2       1 <0>        -0.4279
      12  C11        -0.7430   28.6560   54.2390  C.ar      1 <0>        -0.2237
      13  C12        -1.3930   28.6360   53.0060  C.ar      1 <0>         0.0117
      14  C13        -1.2980   27.5300   52.2080  C.ar      1 <0>        -0.1505
      15  C14        -0.5580   26.4310   52.6210  C.ar      1 <0>        -0.0126
      16  C15         0.0920   26.4350   53.8350  C.ar      1 <0>        -0.1486
      17  C16         0.0120   27.5520   54.6670  C.ar      1 <0>         0.1518
      18  O2          0.6670   27.5390   55.8510  O.3       1 <0>        -0.1818
      19  C17         0.4190   28.5010   56.7600  C.2       1 <0>         0.0863
      20  C18         0.8230   28.5680   58.1760  C.2       1 <0>         0.5721
      21  O3          1.4660   27.7160   58.7570  O.2       1 <0>        -0.4845
      22  N1          0.3730   29.7120   58.7340  N.am      1 <0>        -0.5888
      23  C19         0.5750   30.1310   60.1220  C.3       1 <0>         0.1827
      24  C20         1.7590   31.0620   60.1990  C.ar      1 <0>        -0.1321
      25  C21         1.6010   32.3390   60.7030  C.ar      1 <0>        -0.0708
      26  C22         2.6850   33.1930   60.7740  C.ar      1 <0>        -0.1566
      27  C23         3.9300   32.7680   60.3410  C.ar      1 <0>         0.1090
      28  C24         4.0860   31.4890   59.8360  C.ar      1 <0>        -0.1553
      29  C25         3.0020   30.6350   59.7700  C.ar      1 <0>        -0.0642
      30  F1          4.9900   33.6020   60.4100  F         1 <0>        -0.1370
      31  C26        -0.4650   25.2190   51.7320  C.3       1 <0>        -0.1230
      32  C27        -2.1980   29.8280   52.5550  C.3       1 <0>        -0.1308
@<TRIPOS>BOND
     1     1     2 1
     2     2     7 ar
     3     2     3 ar
     4     3     4 ar
     5     4     5 ar
     6     5     6 ar
     7     5     8 1
     8     6     7 ar
     9     8    22 1
    10     8     9 1
    11     9    19 2
    12     9    10 1
    13    10    11 2
    14    10    12 1
    15    12    17 ar
    16    12    13 ar
    17    13    14 ar
    18    13    32 1
    19    14    15 ar
    20    15    16 ar
    21    15    31 1
    22    16    17 ar
    23    17    18 1
    24    18    19 1
    25    19    20 1
    26    20    21 2
    27    20    22 am
    28    22    23 1
    29    23    24 1
    30    24    29 ar
    31    24    25 ar
    32    25    26 ar
    33    26    27 ar
    34    27    28 ar
    35    27    30 1
    36    28    29 ar

@<TRIPOS>MOLECULE
ZINC32230362_replica-1.pdb
 23 24 0 0 0
SMALL
GASTEIGER

@<TRIPOS>ATOM
       1  C1          7.7000   38.5690   56.2390  C.3       1 <0>        -0.1193
       2  C2          7.2750   37.1240   56.1820  C.ar      1 <0>        -0.0456
       3  C3          8.2260   36.1220   56.2310  C.ar      1 <0>        -0.1591
       4  C4          7.8390   34.7950   56.1860  C.ar      1 <0>        -0.0755
       5  C5          6.5000   34.4680   56.0860  C.ar      1 <0>        -0.2171
       6  C6          5.5440   35.4720   56.0300  C.ar      1 <0>         0.1339
       7  C7          5.9350   36.8030   56.0750  C.ar      1 <0>        -0.1541
       8  O1          4.2270   35.1530   55.9320  O.3       1 <0>        -0.3050
       9  C8          3.2860   36.1970   56.1970  C.3       1 <0>         0.0682
      10  C9          2.1830   35.6670   57.1150  C.3       1 <0>         0.1116
      11  C10         2.5010   36.0410   58.5630  C.3       1 <0>         0.1011
      12  N1          3.4700   35.0900   59.1130  N.pl3     1 <0>        -0.7589
      13  C11         4.7750   35.5020   59.3910  C.ar      1 <0>         0.2153
      14  C12         5.7830   34.5590   59.5520  C.ar      1 <0>        -0.1976
      15  C13         7.0740   34.9710   59.8210  C.ar      1 <0>        -0.0725
      16  C14         7.3610   36.3180   59.9420  C.ar      1 <0>        -0.1264
      17  C15         6.3580   37.2590   59.7880  C.ar      1 <0>        -0.0667
      18  C16         5.0670   36.8540   59.5120  C.ar      1 <0>        -0.1922
      19  C17         8.7690   36.7630   60.2420  C.3       1 <0>        -0.0229
      20  C18         8.9570   36.8730   61.7560  C.3       1 <0>        -0.1401
      21  C19         9.7570   35.7400   59.6790  C.3       1 <0>        -0.1460
      22  C20         9.0220   38.1260   59.5960  C.3       1 <0>        -0.1401
      23  O2          0.9300   36.2430   56.7370  O.3       1 <0>        -0.5843
@<TRIPOS>BOND
     1     1     2 1
     2     2     7 ar
     3     2     3 ar
     4     3     4 ar
     5     4     5 ar
     6     5     6 ar
     7     6     7 ar
     8     6     8 1
     9     8     9 1
    10     9    10 1
    11    10    11 1
    12    10    23 1
    13    11    12 1
    14    12    13 1
    15    13    18 ar
    16    13    14 ar
    17    14    15 ar
    18    15    16 ar
    19    16    17 ar
    20    16    19 1
    21    17    18 ar
    22    19    20 1
    23    19    21 1
    24    19    22 1

@<TRIPOS>MOLECULE
ZINC02562034_replica-1.pdb
 28 30 0 0 0
SMALL
GASTEIGER

@<TRIPOS>ATOM
       1  C1          6.0640   29.2260   58.5740  C.3       1 <0>        -0.1452
       2  C2          7.3030   29.9460   59.1110  C.3       1 <0>        -0.0787
       3  C3          6.9750   31.3960   59.3560  C.ar      1 <0>        -0.1001
       4  C4          6.4110   31.7860   60.5520  C.ar      1 <0>        -0.1084
       5  C5          6.1050   33.1180   60.7900  C.ar      1 <0>        -0.1545
       6  C6          6.3580   34.0690   59.8410  C.ar      1 <0>        -0.0696
       7  C7          6.9300   33.6970   58.6230  C.ar      1 <0>        -0.0958
       8  C8          7.2420   32.3470   58.3770  C.ar      1 <0>         0.1009
       9  N1          7.7800   32.2790   57.1110  N.pl3     1 <0>        -0.5969
      10  C9          7.8270   33.5290   56.5580  C.2       1 <0>         0.0661
      11  C10         7.3250   34.4300   57.4180  C.2       1 <0>        -0.1229
      12  C11         7.1930   35.9140   57.1870  C.3       1 <0>        -0.0572
      13  C12         8.5420   36.5910   57.4400  C.3       1 <0>        -0.1209
      14  C13         8.6200   37.0310   58.8800  C.2       1 <0>         0.3572
      15  O1          7.9240   37.9420   59.2740  O.2       1 <0>        -0.3639
      16  C14         9.5410   36.3530   59.8060  C.ar      1 <0>        -0.1440
      17  C15        10.0550   35.0930   59.4900  C.ar      1 <0>        -0.0812
      18  C16        10.9220   34.4670   60.3600  C.ar      1 <0>        -0.1352
      19  C17        11.2750   35.0790   61.5500  C.ar      1 <0>        -0.0595
      20  C18        10.7660   36.3260   61.8730  C.ar      1 <0>        -0.1279
      21  C19         9.9030   36.9660   61.0100  C.ar      1 <0>        -0.0668
      22  C20        12.2180   34.3860   62.5000  C.3       1 <0>        -0.0311
      23  C21        12.3680   35.2220   63.7720  C.3       1 <0>        -0.1379
      24  C22        11.6600   33.0080   62.8580  C.3       1 <0>        -0.1438
      25  C23        13.5860   34.2240   61.8330  C.3       1 <0>        -0.1389
      26  C24         6.7640   36.1640   55.7640  C.2       1 <0>         0.4641
      27  O2          5.6050   36.0340   55.4510  O.co2     1 <0>        -0.6401
      28  O3          7.6710   36.5300   54.8450  O.co2     1 <0>        -0.7402
@<TRIPOS>BOND
     1     1     2 1
     2     2     3 1
     3     3     8 ar
     4     3     4 ar
     5     4     5 ar
     6     5     6 ar
     7     6     7 ar
     8     7    11 1
     9     7     8 ar
    10     8     9 1
    11     9    10 1
    12    10    11 2
    13    11    12 1
    14    12    13 1
    15    12    26 1
    16    13    14 1
    17    14    15 2
    18    14    16 1
    19    16    21 ar
    20    16    17 ar
    21    17    18 ar
    22    18    19 ar
    23    19    20 ar
    24    19    22 1
    25    20    21 ar
    26    22    23 1
    27    22    24 1
    28    22    25 1
    29    26    27 2
    30    26    28 1

@<TRIPOS>MOLECULE
ZINC40315898_replica-1.pdb
 29 31 0 0 0
SMALL
GASTEIGER

@<TRIPOS>ATOM
       1  C1         -0.4790   25.0590   51.5730  C.3       1 <0>        -0.1317
       2  C2         -0.7600   26.4170   52.1650  C.ar      1 <0>        -0.0429
       3  C3         -0.2790   26.7360   53.4210  C.ar      1 <0>        -0.1153
       4  C4         -0.5360   27.9810   53.9630  C.ar      1 <0>        -0.0873
       5  C5         -1.2740   28.9080   53.2500  C.ar      1 <0>        -0.1691
       6  C6         -1.7550   28.5880   51.9940  C.ar      1 <0>        -0.0915
       7  C7         -1.4940   27.3440   51.4500  C.ar      1 <0>        -0.1177
       8  C8         -1.5560   30.2640   53.8420  C.3       1 <0>         0.0436
       9  N1         -0.9100   30.3670   55.1580  N.4       1 <0>        -0.3794
      10  C9         -1.9360   30.5580   56.1930  C.3       1 <0>         0.0829
      11  C10        -2.0210   29.3210   57.0490  C.2       1 <0>        -0.1099
      12  C11        -2.9650   28.3660   56.9610  C.2       1 <0>        -0.1364
      13  C12        -2.6600   27.3990   57.9460  C.2       1 <0>        -0.2183
      14  C13        -1.5500   27.8190   58.5770  C.2       1 <0>         0.0148
      15  O1         -1.1630   28.9810   58.0250  O.3       1 <0>        -0.1683
      16  C14         0.0100   31.5120   55.1630  C.3       1 <0>        -0.0484
      17  C15         0.5580   31.7190   56.5770  C.3       1 <0>         0.0866
      18  C16         1.3630   33.0200   56.6270  C.3       1 <0>         0.0311
      19  O2          2.4850   32.9210   55.7500  O.3       1 <0>        -0.3025
      20  C17         3.4600   33.8570   55.8860  C.ar      1 <0>         0.1126
      21  C18         3.3850   34.7950   56.9070  C.ar      1 <0>        -0.2048
      22  C19         4.3770   35.7460   57.0440  C.ar      1 <0>        -0.0787
      23  C20         5.4440   35.7650   56.1650  C.ar      1 <0>        -0.1001
      24  C21         5.5210   34.8330   55.1470  C.ar      1 <0>        -0.0726
      25  C22         4.5350   33.8750   55.0090  C.ar      1 <0>        -0.1404
      26  C23         6.5250   36.8050   56.3160  C.3       1 <0>        -0.0568
      27  C24         7.2720   36.5760   57.6320  C.3       1 <0>        -0.1468
      28  C25         7.5060   36.6950   55.1480  C.3       1 <0>        -0.1469
      29  O3          1.4050   30.6220   56.9240  O.3       1 <0>        -0.5409
@<TRIPOS>BOND
     1     1     2 1
     2     2     7 ar
     3     2     3 ar
     4     3     4 ar
     5     4     5 ar
     6     5     6 ar
     7     5     8 1
     8     6     7 ar
     9     8     9 1
    10     9    10 1
    11     9    16 1
    12    10    11 1
    13    11    15 1
    14    11    12 2
    15    12    13 1
    16    13    14 2
    17    14    15 1
    18    16    17 1
    19    17    18 1
    20    17    29 1
    21    18    19 1
    22    19    20 1
    23    20    25 ar
    24    20    21 ar
    25    21    22 ar
    26    22    23 ar
    27    23    24 ar
    28    23    26 1
    29    24    25 ar
    30    26    27 1
    31    26    28 1

@<TRIPOS>MOLECULE
ZINC58946671_replica-1.pdb
 20 21 0 0 0
SMALL
GASTEIGER

@<TRIPOS>ATOM
       1  C1          6.9700   36.0390   54.9720  C.3       1 <0>         0.0295
       2  O1          8.0470   36.6340   55.6990  O.3       1 <0>        -0.3844
       3  C2          7.6310   37.3880   56.8390  C.3       1 <0>         0.0951
       4  C3          8.4470   36.9790   58.0370  C.ar      1 <0>        -0.0548
       5  C4          8.5850   37.8470   59.1060  C.ar      1 <0>        -0.1096
       6  C5          9.3310   37.4780   60.2070  C.ar      1 <0>        -0.0552
       7  C6          9.9470   36.2260   60.2410  C.ar      1 <0>        -0.1214
       8  C7          9.8040   35.3550   59.1590  C.ar      1 <0>        -0.0623
       9  C8          9.0510   35.7340   58.0670  C.ar      1 <0>        -0.1116
      10  C9         10.7480   35.8250   61.4160  C.2       1 <0>         0.5101
      11  O2         10.8090   36.5520   62.3870  O.2       1 <0>        -0.5008
      12  O3         11.4090   34.6510   61.4110  O.3       1 <0>        -0.3423
      13  C10        12.5800   34.5630   62.2270  C.3       1 <0>         0.1099
      14  C11        12.6570   33.1920   62.8460  C.ar      1 <0>        -0.1108
      15  C12        13.8620   32.7230   63.3370  C.ar      1 <0>        -0.0639
      16  C13        13.9340   31.4650   63.9040  C.ar      1 <0>        -0.1563
      17  C14        12.8000   30.6740   63.9810  C.ar      1 <0>         0.1115
      18  C15        11.5950   31.1450   63.4900  C.ar      1 <0>        -0.1564
      19  C16        11.5230   32.4050   62.9270  C.ar      1 <0>        -0.0641
      20  F1         12.8690   29.4440   64.5350  F         1 <0>        -0.1360
@<TRIPOS>BOND
     1     1     2 1
     2     2     3 1
     3     3     4 1
     4     4     9 ar
     5     4     5 ar
     6     5     6 ar
     7     6     7 ar
     8     7     8 ar
     9     7    10 1
    10     8     9 ar
    11    10    11 2
    12    10    12 1
    13    12    13 1
    14    13    14 1
    15    14    19 ar
    16    14    15 ar
    17    15    16 ar
    18    16    17 ar
    19    17    18 ar
    20    17    20 1
    21    18    19 ar

@<TRIPOS>MOLECULE
ZINC37317034_replica-1.pdb
 21 22 0 0 0
SMALL
GASTEIGER

@<TRIPOS>ATOM
       1  C1          4.9640   36.0940   55.9970  C.3       1 <0>        -0.1713
       2  C2          6.1000   35.6060   56.8970  C.3       1 <0>         0.1444
       3  C3          6.6810   36.7900   57.6720  C.3       1 <0>        -0.1198
       4  C4          8.1820   36.8930   57.3970  C.3       1 <0>        -0.0189
       5  C5          8.5570   35.9510   56.2510  C.3       1 <0>        -0.1536
       6  C6          8.5330   38.3310   57.0110  C.3       1 <0>        -0.1425
       7  C7          8.9480   36.5040   58.6360  C.ar      1 <0>        -0.0696
       8  C8          9.6710   35.3260   58.6620  C.ar      1 <0>        -0.1243
       9  C9         10.3720   34.9700   59.7980  C.ar      1 <0>        -0.1179
      10  C10        10.3500   35.7910   60.9090  C.ar      1 <0>        -0.1258
      11  C11         9.6280   36.9690   60.8850  C.ar      1 <0>        -0.1175
      12  C12         8.9300   37.3280   59.7470  C.ar      1 <0>        -0.1157
      13  N1          5.5850   34.6100   57.8400  N.pl3     1 <0>        -0.7391
      14  C13         6.4580   33.7050   58.4470  C.ar      1 <0>         0.2243
      15  C14         7.1680   32.7970   57.6720  C.ar      1 <0>        -0.1991
      16  C15         8.0320   31.9030   58.2740  C.ar      1 <0>        -0.0717
      17  C16         8.1890   31.9120   59.6480  C.ar      1 <0>        -0.1816
      18  C17         7.4840   32.8140   60.4220  C.ar      1 <0>        -0.0487
      19  C18         6.6240   33.7150   59.8260  C.ar      1 <0>        -0.1729
      20  C19         5.8600   34.7020   60.6700  C.3       1 <0>         0.1265
      21  O1          4.5270   34.2280   60.8680  O.3       1 <0>        -0.5664
@<TRIPOS>BOND
     1     1     2 1
     2     2     3 1
     3     2    13 1
     4     3     4 1
     5     4     5 1
     6     4     6 1
     7     4     7 1
     8     7    12 ar
     9     7     8 ar
    10     8     9 ar
    11     9    10 ar
    12    10    11 ar
    13    11    12 ar
    14    13    14 1
    15    14    19 ar
    16    14    15 ar
    17    15    16 ar
    18    16    17 ar
    19    17    18 ar
    20    18    19 ar
    21    19    20 1
    22    20    21 1

@<TRIPOS>MOLECULE
ZINC37936841_replica-1.pdb
 20 21 0 0 0
SMALL
GASTEIGER

@<TRIPOS>ATOM
      1  C8        -0.3480   28.9310   56.6420 C.3     0  <0>0        0.1866
      2  C9        -1.8070   28.8070   56.4880 C.1     0  <0>0        0.0970
      3  N2        -2.9330   28.7110   56.3690 N.1     0  <0>0       -0.1938
      4  N1         0.2820   28.9590   55.3210 N.pl3   0  <0>0       -0.3190
      5  H9         0.8550   29.7020   55.0710 H       0  <0>0        0.1480
      6  C6         0.0600   27.9160   54.4180 C.ar    0  <0>0        0.0452
      7  C5         0.5430   26.6440   54.6930 C.ar    0  <0>0        0.0143
      8  C4         0.3220   25.6140   53.8000 C.ar    0  <0>0        0.0009
      9  C3        -0.3800   25.8500   52.6320 C.ar    0  <0>0       -0.0042
     10  C2        -0.8620   27.1160   52.3540 C.ar    0  <0>0       -0.0206
     11  C1        -1.6270   27.3670   51.0810 C.3     0  <0>0        0.0311
     12  C7        -0.6400   28.1500   53.2410 C.ar    0  <0>0        0.0101
     13  C10       -0.0280   30.2080   57.3780 C.ar    0  <0>0        0.0311
     14  C15        0.4340   30.1580   58.6810 C.ar    0  <0>0        0.0571
     15  C14        0.7330   31.3300   59.3530 C.ar    0  <0>0        0.0112
     16 Cl          0.6440   28.6270   59.4710 Cl      0  <0>0       -0.0825
     17  C13        0.5590   32.5500   58.7270 C.ar    0  <0>0        0.0017
     18  C12        0.0930   32.6000   57.4270 C.ar    0  <0>0        0.0112
     19  C11       -0.2000   31.4290   56.7510 C.ar    0  <0>0        0.0571
     20 Cl         -0.7860   31.4920   55.1180 Cl      0  <0>0       -0.0825
@<TRIPOS>BOND
     1    11    10    1
     2    10     9   ar
     3    10    12   ar
     4     9     8   ar
     5    12     6   ar
     6     8     7   ar
     7     6     7   ar
     8     6     4    1
     9     5     4    1
    10    20    19    1
    11     4     1    1
    12     3     2    3
    13     2     1    1
    14     1    13    1
    15    19    13   ar
    16    19    18   ar
    17    13    14   ar
    18    18    17   ar
    19    14    15   ar
    20    14    16    1
    21    17    15   ar


@<TRIPOS>MOLECULE
ZINC19738328_replica-1.pdb
 24 25 0 0 0
SMALL
GASTEIGER

@<TRIPOS>ATOM
       1  C1          7.1380   38.7340   59.1440  C.3       1 <0>        -0.1789
       2  C2          7.6690   37.5910   60.0110  C.3       1 <0>         0.0725
       3  C3          6.5590   36.5600   60.2300  C.3       1 <0>         0.1314
       4  N1          6.5210   35.6370   59.0930  N.pl3     1 <0>        -0.7467
       5  C4          5.5350   35.7750   58.1140  C.ar      1 <0>         0.2184
       6  C5          4.1950   35.8350   58.4790  C.ar      1 <0>        -0.1960
       7  C6          3.2220   35.9710   57.5080  C.ar      1 <0>        -0.0766
       8  C7          3.5790   36.0480   56.1750  C.ar      1 <0>        -0.1759
       9  C8          4.9110   35.9880   55.8080  C.ar      1 <0>        -0.0688
      10  C9          5.8900   35.8580   56.7740  C.ar      1 <0>        -0.1502
      11  C10         7.3420   35.7990   56.3740  C.3       1 <0>        -0.0464
      12  C11         7.8030   34.3400   56.3390  C.3       1 <0>        -0.1435
      13  C12         7.5150   36.4220   54.9870  C.3       1 <0>        -0.1433
      14  O1          8.7750   36.9680   59.3550  O.3       1 <0>        -0.3061
      15  C13         9.6700   36.3140   60.1400  C.ar      1 <0>         0.1249
      16  C14        10.1350   36.9060   61.3060  C.ar      1 <0>        -0.2079
      17  C15        11.0440   36.2380   62.1030  C.ar      1 <0>        -0.0750
      18  C16        11.4900   34.9810   61.7410  C.ar      1 <0>        -0.1056
      19  C17        11.0290   34.3890   60.5800  C.ar      1 <0>        -0.0809
      20  C18        10.1150   35.0500   59.7820  C.ar      1 <0>        -0.1489
      21  C19        12.4830   34.2550   62.6130  C.3       1 <0>        -0.0263
      22  C20        13.8250   34.1570   61.8840  C.3       1 <0>        -0.1393
      23  C21        12.6690   35.0260   63.9220  C.3       1 <0>        -0.1460
      24  C22        11.9630   32.8490   62.9170  C.3       1 <0>        -0.1394
@<TRIPOS>BOND
     1     1     2 1
     2     2     3 1
     3     2    14 1
     4     3     4 1
     5     4     5 1
     6     5    10 ar
     7     5     6 ar
     8     6     7 ar
     9     7     8 ar
    10     8     9 ar
    11     9    10 ar
    12    10    11 1
    13    11    12 1
    14    11    13 1
    15    14    15 1
    16    15    20 ar
    17    15    16 ar
    18    16    17 ar
    19    17    18 ar
    20    18    19 ar
    21    18    21 1
    22    19    20 ar
    23    21    22 1
    24    21    23 1
    25    21    24 1

@<TRIPOS>MOLECULE
ZINC16880635_replica-1.pdb
 27 29 0 0 0
SMALL
GASTEIGER

@<TRIPOS>ATOM
       1  C1          0.6250   22.7850   54.7820  C.3       1 <0>        -0.1146
       2  C2          0.2410   22.9470   56.2310  C.ar      1 <0>        -0.0894
       3  C3         -0.1190   21.8410   56.9790  C.ar      1 <0>        -0.1223
       4  C4         -0.4710   21.9900   58.3070  C.ar      1 <0>        -0.1135
       5  C5         -0.4560   23.2430   58.8900  C.ar      1 <0>        -0.0910
       6  C6         -0.1000   24.3500   58.1420  C.ar      1 <0>        -0.0679
       7  C7          0.2520   24.2010   56.8120  C.ar      1 <0>        -0.1031
       8  C8         -0.0880   25.7180   58.7750  C.3       1 <0>        -0.0082
       9  C9         -0.8890   26.6710   57.9270  C.2       1 <0>        -0.2896
      10  C10        -2.2140   26.8790   58.1780  C.2       1 <0>         0.2173
      11  N1         -2.9120   27.7240   57.4210  N.2       1 <0>        -0.5875
      12  C11        -2.3510   28.3770   56.4270  C.2       1 <0>         0.5918
      13  N2         -1.0370   28.2070   56.1250  N.am      1 <0>        -0.5120
      14  C12        -0.2840   27.3610   56.8610  C.2       1 <0>         0.5433
      15  O1          0.8980   27.2000   56.6070  O.2       1 <0>        -0.5128
      16  C13        -0.4380   28.9410   55.0080  C.3       1 <0>         0.1335
      17  C14        -0.8240   28.2830   53.7090  C.ar      1 <0>        -0.0946
      18  C15        -0.4260   26.9860   53.4450  C.ar      1 <0>        -0.1063
      19  C16        -0.7750   26.3860   52.2500  C.ar      1 <0>        -0.0827
      20  C17        -1.5320   27.0780   51.3230  C.ar      1 <0>        -0.1147
      21  C18        -1.9340   28.3730   51.5890  C.ar      1 <0>        -0.1093
      22  C19        -1.5800   28.9760   52.7820  C.ar      1 <0>        -0.0791
      23  C20        -2.0190   30.3890   53.0710  C.3       1 <0>        -0.1205
      24  C21        -0.3370   24.9720   51.9610  C.3       1 <0>        -0.1176
      25  O2         -3.0940   29.2270   55.6890  O.3       1 <0>        -0.4543
      26  C22        -2.8870   26.1530   59.3130  C.3       1 <0>        -0.1121
      27  C23        -0.8330   23.4050   60.3410  C.3       1 <0>        -0.1173
@<TRIPOS>BOND
     1     1     2 1
     2     2     7 ar
     3     2     3 ar
     4     3     4 ar
     5     4     5 ar
     6     5     6 ar
     7     5    27 1
     8     6     7 ar
     9     6     8 1
    10     8     9 1
    11     9    14 1
    12     9    10 2
    13    10    11 1
    14    10    26 1
    15    11    12 2
    16    12    13 1
    17    12    25 1
    18    13    14 am
    19    13    16 1
    20    14    15 2
    21    16    17 1
    22    17    22 ar
    23    17    18 ar
    24    18    19 ar
    25    19    20 ar
    26    19    24 1
    27    20    21 ar
    28    21    22 ar
    29    22    23 1

@<TRIPOS>MOLECULE
ZINC63654870_replica-1.pdb
 30 33 0 0 0
SMALL
GASTEIGER

@<TRIPOS>ATOM
       1  C1         -1.6040   28.5430   61.2090  C.3       1 <0>         0.0206
       2  O1         -2.1630   27.7530   60.1580  O.3       1 <0>        -0.3073
       3  C2         -1.5570   27.8240   58.9430  C.ar      1 <0>         0.1652
       4  C3         -2.3210   27.9500   57.7920  C.ar      1 <0>        -0.2025
       5  C4         -1.7020   28.0230   56.5580  C.ar      1 <0>        -0.0446
       6  C5         -0.3230   27.9700   56.4720  C.ar      1 <0>        -0.1791
       7  C6          0.4400   27.8440   57.6180  C.ar      1 <0>        -0.0531
       8  C7         -0.1740   27.7770   58.8540  C.ar      1 <0>        -0.1464
       9  C8          0.3490   28.0490   55.1250  C.3       1 <0>         0.2065
      10  C9         -0.4950   28.8610   54.1680  C.2       1 <0>        -0.0639
      11  C10        -0.8190   27.9970   53.1270  C.ar      1 <0>        -0.1965
      12  C11        -1.5770   28.1690   51.9480  C.ar      1 <0>        -0.0449
      13  C12        -1.7310   27.1280   51.0890  C.ar      1 <0>        -0.1495
      14  C13        -1.1570   25.8810   51.3410  C.ar      1 <0>         0.0341
      15  C14        -0.4170   25.6460   52.4530  C.ar      1 <0>        -0.1961
      16  C15        -0.2110   26.6850   53.3970  C.ar      1 <0>         0.3194
      17  N1          0.4570   26.7100   54.5360  N.pl3     1 <0>        -0.6134
      18  S1         -0.9430   30.4510   54.3290  S.3       1 <0>         0.3031
      19  C16         0.4160   31.1960   55.2710  C.3       1 <0>        -0.2101
      20  C17        -0.1560   32.0260   56.4210  C.3       1 <0>         0.1325
      21  N2          0.2600   33.4230   56.2710  N.am      1 <0>        -0.7365
      22  C18         0.3430   34.2220   57.3530  C.2       1 <0>         0.5185
      23  O2          0.0730   33.7850   58.4510  O.2       1 <0>        -0.5126
      24  C19         0.7700   35.6590   57.1970  C.3       1 <0>        -0.0975
      25  C20         2.2610   35.7620   57.3790  C.ar      1 <0>        -0.0795
      26  C21         2.7970   35.8750   58.6490  C.ar      1 <0>        -0.1048
      27  C22         4.1660   35.9700   58.8160  C.ar      1 <0>        -0.1177
      28  C23         5.0000   35.9510   57.7130  C.ar      1 <0>        -0.1137
      29  C24         4.4650   35.8380   56.4430  C.ar      1 <0>        -0.1177
      30  C25         3.0960   35.7400   56.2770  C.ar      1 <0>        -0.1050
@<TRIPOS>BOND
     1     1     2 1
     2     2     3 1
     3     3     8 ar
     4     3     4 ar
     5     4     5 ar
     6     5     6 ar
     7     6     7 ar
     8     6     9 1
     9     7     8 ar
    10     9    17 1
    11     9    10 1
    12    10    11 2
    13    10    18 1
    14    11    16 ar
    15    11    12 ar
    16    12    13 ar
    17    13    14 ar
    18    14    15 ar
    19    15    16 ar
    20    16    17 2
    21    18    19 1
    22    19    20 1
    23    20    21 1
    24    21    22 am
    25    22    23 2
    26    22    24 1
    27    24    25 1
    28    25    30 ar
    29    25    26 ar
    30    26    27 ar
    31    27    28 ar
    32    28    29 ar
    33    29    30 ar

@<TRIPOS>MOLECULE
ZINC29080870_replica-1.pdb
 22 23 0 0 0
SMALL
GASTEIGER

@<TRIPOS>ATOM
       1  C1          7.4690   37.6960   60.0280  C.3       1 <0>        -0.1576
       2  C2          8.7400   37.3390   59.2550  C.3       1 <0>         0.1847
       3  C3          9.6460   36.5120   60.1310  C.ar      1 <0>        -0.0978
       4  C4         10.0830   37.0140   61.3430  C.ar      1 <0>        -0.1116
       5  C5         10.9130   36.2560   62.1470  C.ar      1 <0>        -0.1137
       6  C6         11.3050   34.9930   61.7390  C.ar      1 <0>        -0.0725
       7  C7         10.8680   34.4910   60.5280  C.ar      1 <0>        -0.1095
       8  C8         10.0340   35.2490   59.7260  C.ar      1 <0>        -0.1039
       9  C9         12.2110   34.1670   62.6140  C.3       1 <0>        -0.0590
      10  C10        11.6640   32.7410   62.7120  C.3       1 <0>        -0.1454
      11  C11        13.6160   34.1340   62.0070  C.3       1 <0>        -0.1453
      12  N1          8.3850   36.5740   58.0580  N.am      1 <0>        -0.7265
      13  C12         8.4350   37.1580   56.8440  C.2       1 <0>         0.5178
      14  O1          8.7730   38.3170   56.7440  O.2       1 <0>        -0.5269
      15  C13         8.0680   36.3700   55.6130  C.3       1 <0>        -0.1029
      16  C14         6.6960   35.7720   55.7900  C.ar      1 <0>        -0.1033
      17  C15         5.5810   36.5890   55.7940  C.ar      1 <0>        -0.0789
      18  C16         4.3240   36.0410   55.9570  C.ar      1 <0>        -0.1290
      19  C17         4.1780   34.6750   56.1170  C.ar      1 <0>        -0.0889
      20  C18         5.2910   33.8560   56.1140  C.ar      1 <0>        -0.1534
      21  C19         6.5520   34.4040   55.9460  C.ar      1 <0>         0.1130
      22  F1          7.6410   33.6030   55.9380  F         1 <0>        -0.1379
@<TRIPOS>BOND
     1     1     2 1
     2     2     3 1
     3     2    12 1
     4     3     8 ar
     5     3     4 ar
     6     4     5 ar
     7     5     6 ar
     8     6     7 ar
     9     6     9 1
    10     7     8 ar
    11     9    10 1
    12     9    11 1
    13    12    13 am
    14    13    14 2
    15    13    15 1
    16    15    16 1
    17    16    21 ar
    18    16    17 ar
    19    17    18 ar
    20    18    19 ar
    21    19    20 ar
    22    20    21 ar
    23    21    22 1

@<TRIPOS>MOLECULE
ZINC58356726_replica-1.pdb
 30 32 0 0 0
SMALL
GASTEIGER

@<TRIPOS>ATOM
       1  C1          3.9890   35.2280   57.9620  C.3       1 <0>         0.0782
       2  N1          4.6720   34.4490   56.9260  N.am      1 <0>        -0.6328
       3  C2          3.9390   33.4250   56.1770  C.3       1 <0>         0.1321
       4  C3          3.4480   32.3430   57.1400  C.3       1 <0>        -0.1342
       5  C4          1.9380   32.4850   57.3390  C.3       1 <0>        -0.1164
       6  C5          1.2150   31.3960   56.5430  C.3       1 <0>        -0.1116
       7  C6         -0.0870   31.9610   55.9700  C.3       1 <0>        -0.0409
       8  C7         -0.6790   30.9740   54.9980  C.2       1 <0>         0.0818
       9  C8         -0.1490   29.7220   54.6840  C.2       1 <0>        -0.2450
      10  C9         -0.9750   29.1360   53.7680  C.2       1 <0>         0.1260
      11  N2         -1.9930   30.0070   53.5220  N.pl3     1 <0>        -0.4742
      12  N3         -1.7810   31.1450   54.3120  N.2       1 <0>        -0.2776
      13  C10        -0.7970   27.8000   53.1550  C.ar      1 <0>        -0.0433
      14  C11        -1.3320   27.5320   51.8940  C.ar      1 <0>        -0.0612
      15  C12        -1.1630   26.2860   51.3270  C.ar      1 <0>        -0.1475
      16  C13        -0.4640   25.3020   52.0070  C.ar      1 <0>         0.1084
      17  C14         0.0680   25.5630   53.2590  C.ar      1 <0>        -0.1476
      18  C15        -0.0900   26.8070   53.8330  C.ar      1 <0>        -0.0817
      19  F1         -0.3020   24.0830   51.4470  F         1 <0>        -0.1345
      20  C16         5.9750   34.6730   56.6620  C.2       1 <0>         0.7066
      21  O1          6.5410   34.0260   55.8030  O.2       1 <0>        -0.5850
      22  N4          6.6490   35.6150   57.3520  N.am      1 <0>        -0.7425
      23  C17         8.0650   35.8590   57.0650  C.3       1 <0>         0.1816
      24  C18         8.8310   35.9510   58.3590  C.ar      1 <0>        -0.1462
      25  C19         9.5800   34.8760   58.7980  C.ar      1 <0>        -0.0709
      26  C20        10.2830   34.9600   59.9850  C.ar      1 <0>        -0.1315
      27  C21        10.2370   36.1200   60.7360  C.ar      1 <0>        -0.0812
      28  C22         9.4890   37.1970   60.2990  C.ar      1 <0>        -0.1565
      29  C23         8.7890   37.1150   59.1070  C.ar      1 <0>         0.1159
      30  F2          8.0620   38.1690   58.6770  F         1 <0>        -0.1328
@<TRIPOS>BOND
     1     1     2 1
     2     2     3 1
     3     2    20 am
     4     3     4 1
     5     4     5 1
     6     5     6 1
     7     6     7 1
     8     7     8 1
     9     8    12 2
    10     8     9 1
    11     9    10 2
    12    10    11 1
    13    10    13 1
    14    11    12 1
    15    13    18 ar
    16    13    14 ar
    17    14    15 ar
    18    15    16 ar
    19    16    17 ar
    20    16    19 1
    21    17    18 ar
    22    20    21 2
    23    20    22 am
    24    22    23 1
    25    23    24 1
    26    24    29 ar
    27    24    25 ar
    28    25    26 ar
    29    26    27 ar
    30    27    28 ar
    31    28    29 ar
    32    29    30 1

@<TRIPOS>MOLECULE
ZINC07584000_replica-1.pdb
 21 22 0 0 0
SMALL
GASTEIGER

@<TRIPOS>ATOM
       1  C1         -0.6110   24.8850   51.7590  C.3       1 <0>        -0.1200
       2  C2         -0.5040   26.1490   52.5730  C.ar      1 <0>        -0.0776
       3  C3          0.2160   26.1500   53.7530  C.ar      1 <0>        -0.1151
       4  C4          0.3200   27.3070   54.5000  C.ar      1 <0>        -0.1223
       5  C5         -0.3100   28.4690   54.0700  C.ar      1 <0>         0.1126
       6  C6         -1.0330   28.4640   52.8840  C.ar      1 <0>        -0.0617
       7  C7         -1.1280   27.3050   52.1390  C.ar      1 <0>        -0.0812
       8  C8         -1.9120   27.2980   50.8530  C.3       1 <0>        -0.1163
       9  N1         -0.2100   29.6410   54.8260  N.pl3     1 <0>        -0.6299
      10  C9         -0.3330   29.5890   56.1670  C.2       1 <0>         0.5575
      11  S1         -1.8070   29.0810   56.8730  S.2       1 <0>        -0.6097
      12  N2          0.7060   29.9380   56.9530  N.pl3     1 <0>        -0.6768
      13  C10         0.5730   29.8800   58.4110  C.3       1 <0>         0.1869
      14  C11         1.7530   29.1070   59.0010  C.3       1 <0>        -0.1598
      15  C12         0.5610   31.2810   58.9690  C.ar      1 <0>        -0.1096
      16  C13         0.7460   31.4870   60.3220  C.ar      1 <0>        -0.0890
      17  C14         0.7400   32.7710   60.8340  C.ar      1 <0>        -0.1487
      18  C15         0.5360   33.8500   59.9920  C.ar      1 <0>         0.1045
      19  C16         0.3460   33.6430   58.6360  C.ar      1 <0>        -0.1467
      20  C17         0.3580   32.3580   58.1250  C.ar      1 <0>        -0.0704
      21  F1          0.5240   35.1050   60.4910  F         1 <0>        -0.1358
@<TRIPOS>BOND
     1     1     2 1
     2     2     7 ar
     3     2     3 ar
     4     3     4 ar
     5     4     5 ar
     6     5     6 ar
     7     5     9 1
     8     6     7 ar
     9     7     8 1
    10     9    10 1
    11    10    11 2
    12    10    12 1
    13    12    13 1
    14    13    14 1
    15    13    15 1
    16    15    20 ar
    17    15    16 ar
    18    16    17 ar
    19    17    18 ar
    20    18    19 ar
    21    18    21 1
    22    19    20 ar

@<TRIPOS>MOLECULE
ZINC37509196_replica-1.pdb
 21 22 0 0 0
SMALL
GASTEIGER

@<TRIPOS>ATOM
       1  C1          7.9990   36.7760   61.0920  C.3       1 <0>        -0.1631
       2  C2          9.3030   36.6570   60.3000  C.3       1 <0>         0.1907
       3  C3         10.2880   35.8210   61.0760  C.ar      1 <0>        -0.0945
       4  C4         10.3290   34.4510   60.8900  C.ar      1 <0>        -0.1081
       5  C5         11.2320   33.6840   61.6010  C.ar      1 <0>        -0.1142
       6  C6         12.0940   34.2860   62.4980  C.ar      1 <0>        -0.0730
       7  C7         12.0540   35.6560   62.6830  C.ar      1 <0>        -0.1104
       8  C8         11.1540   36.4230   61.9690  C.ar      1 <0>        -0.1061
       9  C9         13.0790   33.4490   63.2750  C.3       1 <0>        -0.0589
      10  C10        12.7510   31.9670   63.0830  C.3       1 <0>        -0.1450
      11  C11        14.4950   33.7290   62.7700  C.3       1 <0>        -0.1450
      12  N1          9.0330   36.0210   59.0080  N.pl3     1 <0>        -0.7354
      13  C12         8.4140   36.7490   57.9850  C.ar      1 <0>         0.2126
      14  C13         8.7690   38.0710   57.7590  C.ar      1 <0>        -0.1973
      15  C14         8.1570   38.7890   56.7480  C.ar      1 <0>        -0.0751
      16  C15         7.1890   38.1920   55.9600  C.ar      1 <0>        -0.1740
      17  C16         6.8290   36.8750   56.1790  C.ar      1 <0>        -0.0793
      18  C17         7.4420   36.1470   57.1860  C.ar      1 <0>         0.0888
      19  N2          7.0830   34.8110   57.4060  N.pl3     1 <0>        -0.6799
      20  C18         7.7810   33.7380   56.6930  C.3       1 <0>         0.1172
      21  C19         6.0090   34.4870   58.3480  C.3       1 <0>         0.1160
@<TRIPOS>BOND
     1     1     2 1
     2     2     3 1
     3     2    12 1
     4     3     8 ar
     5     3     4 ar
     6     4     5 ar
     7     5     6 ar
     8     6     7 ar
     9     6     9 1
    10     7     8 ar
    11     9    10 1
    12     9    11 1
    13    12    13 1
    14    13    18 ar
    15    13    14 ar
    16    14    15 ar
    17    15    16 ar
    18    16    17 ar
    19    17    18 ar
    20    18    19 1
    21    19    20 1
    22    19    21 1

@<TRIPOS>MOLECULE
ZINC59678880_replica-1.pdb
 29 31 0 0 0
SMALL
GASTEIGER

@<TRIPOS>ATOM
       1  C1         -0.3740   23.7290   52.1170  C.3       1 <0>        -0.1480
       2  C2         -0.5970   24.8460   51.0960  C.3       1 <0>        -0.0875
       3  C3         -0.7910   26.1550   51.8150  C.ar      1 <0>        -0.0786
       4  C4         -1.5980   27.1330   51.2600  C.ar      1 <0>        -0.1036
       5  C5         -1.7810   28.3330   51.9130  C.ar      1 <0>        -0.0911
       6  C6         -1.1490   28.5620   53.1380  C.ar      1 <0>         0.0862
       7  C7         -0.3360   27.5710   53.6920  C.ar      1 <0>        -0.1401
       8  C8         -0.1660   26.3730   53.0300  C.ar      1 <0>        -0.0976
       9  N1         -1.3250   29.7510   53.7920  N.2       1 <0>        -0.4565
      10  C9         -0.9580   29.8720   55.0470  C.2       1 <0>         0.3992
      11  N2         -1.0580   30.9740   55.8680  N.am      1 <0>        -0.6490
      12  C10        -0.6350   30.9230   57.1200  C.2       1 <0>         0.5534
      13  O1         -0.7180   31.8870   57.8580  O.2       1 <0>        -0.4690
      14  C11        -0.0620   29.6450   57.5810  C.2       1 <0>        -0.2146
      15  C12         0.4420   29.3160   58.7970  C.2       1 <0>         0.0682
      16  C13         0.6280   30.3540   59.8210  C.ar      1 <0>        -0.0626
      17  C14        -0.1560   30.3450   60.9800  C.ar      1 <0>        -0.0594
      18  C15         0.0200   31.3190   61.9380  C.ar      1 <0>        -0.0733
      19  C16         0.9740   32.3120   61.7570  C.ar      1 <0>         0.1024
      20  C17         1.7580   32.3280   60.6040  C.ar      1 <0>         0.0993
      21  C18         1.5940   31.3520   59.6410  C.ar      1 <0>        -0.1666
      22  O2          2.6910   33.3030   60.4310  O.3       1 <0>        -0.3048
      23  C19         2.6370   34.0430   59.2090  C.3       1 <0>         0.0514
      24  C20         1.5180   35.0840   59.2920  C.3       1 <0>        -0.1526
      25  O3          1.1430   33.2700   62.7050  O.3       1 <0>        -0.4806
      26  C21        -0.8240   31.3090   63.1860  C.3       1 <0>        -0.0464
      27  C22        -0.3950   30.1700   64.0730  C.2       1 <0>        -0.1429
      28  C23        -1.2290   29.1950   64.3390  C.2       1 <0>        -0.1939
      29  S1         -0.2130   28.6440   56.1080  S.3       1 <0>        -0.0279
@<TRIPOS>BOND
     1     1     2 1
     2     2     3 1
     3     3     8 ar
     4     3     4 ar
     5     4     5 ar
     6     5     6 ar
     7     6     7 ar
     8     6     9 1
     9     7     8 ar
    10     9    10 2
    11    10    29 1
    12    10    11 1
    13    11    12 am
    14    12    13 2
    15    12    14 1
    16    14    15 2
    17    14    29 1
    18    15    16 1
    19    16    21 ar
    20    16    17 ar
    21    17    18 ar
    22    18    19 ar
    23    18    26 1
    24    19    20 ar
    25    19    25 1
    26    20    21 ar
    27    20    22 1
    28    22    23 1
    29    23    24 1
    30    26    27 1
    31    27    28 2

@<TRIPOS>MOLECULE
ZINC37884594_replica-1.pdb
 20 21 0 0 0
SMALL
GASTEIGER

@<TRIPOS>ATOM
       1  C1         -0.7950   25.0220   51.8190  C.3       1 <0>        -0.1437
       2  C2         -0.5880   26.5320   51.6820  C.3       1 <0>        -0.0589
       3  C3         -1.8270   27.1600   51.0390  C.3       1 <0>        -0.1438
       4  C4         -0.3700   27.1350   53.0460  C.ar      1 <0>        -0.0280
       5  C5          0.2200   26.3850   54.0460  C.ar      1 <0>        -0.1729
       6  C6          0.4230   26.9340   55.2990  C.ar      1 <0>        -0.0701
       7  C7          0.0350   28.2350   55.5540  C.ar      1 <0>        -0.2042
       8  C8         -0.5570   28.9920   54.5520  C.ar      1 <0>         0.2180
       9  C9         -0.7540   28.4380   53.2930  C.ar      1 <0>        -0.1919
      10  N1         -0.9500   30.3070   54.8080  N.pl3     1 <0>        -0.7435
      11  C10        -0.9670   30.8130   56.1830  C.3       1 <0>         0.1019
      12  C11        -0.1340   32.0950   56.2640  C.3       1 <0>         0.1426
      13  C12         0.2120   32.3770   57.7040  C.ar      1 <0>        -0.1552
      14  C13         0.4330   31.3290   58.5800  C.ar      1 <0>        -0.0815
      15  C14         0.7520   31.5880   59.9000  C.ar      1 <0>        -0.1249
      16  C15         0.8470   32.8930   60.3460  C.ar      1 <0>        -0.0861
      17  C16         0.6260   33.9400   59.4730  C.ar      1 <0>        -0.1505
      18  C17         0.3130   33.6830   58.1490  C.ar      1 <0>         0.1091
      19  F1          0.1010   34.7070   57.2940  F         1 <0>        -0.1346
      20  O1          1.0670   31.9320   55.5080  O.3       1 <0>        -0.5455
@<TRIPOS>BOND
     1     1     2 1
     2     2     3 1
     3     2     4 1
     4     4     9 ar
     5     4     5 ar
     6     5     6 ar
     7     6     7 ar
     8     7     8 ar
     9     8     9 ar
    10     8    10 1
    11    10    11 1
    12    11    12 1
    13    12    13 1
    14    12    20 1
    15    13    18 ar
    16    13    14 ar
    17    14    15 ar
    18    15    16 ar
    19    16    17 ar
    20    17    18 ar
    21    18    19 1

@<TRIPOS>MOLECULE
ZINC37086288_replica-1.pdb
 21 22 0 0 0
SMALL
GASTEIGER

@<TRIPOS>ATOM
       1  C1          9.9110   34.8370   58.9880  C.3       1 <0>        -0.1695
       2  C2          9.5470   35.0350   60.4610  C.3       1 <0>         0.1535
       3  C3         10.7650   35.5630   61.2210  C.3       1 <0>        -0.0839
       4  C4         11.5040   34.4090   61.8490  C.ar      1 <0>        -0.1165
       5  C5         12.8410   34.5400   62.1750  C.ar      1 <0>        -0.0678
       6  C6         13.5210   33.4840   62.7500  C.ar      1 <0>        -0.1480
       7  C7         12.8590   32.2910   63.0010  C.ar      1 <0>         0.1249
       8  C8         11.5180   32.1610   62.6740  C.ar      1 <0>        -0.2053
       9  C9         10.8410   33.2220   62.1040  C.ar      1 <0>        -0.0760
      10  O1         13.5260   31.2490   63.5660  O.3       1 <0>        -0.3185
      11  C10        12.8140   30.0180   63.6970  C.3       1 <0>         0.0272
      12  N1          8.4500   35.9990   60.5660  N.pl3     1 <0>        -0.7317
      13  C11         7.1830   35.6780   60.0640  C.ar      1 <0>         0.2168
      14  C12         6.4770   34.6080   60.5920  C.ar      1 <0>        -0.1974
      15  C13         5.2260   34.2920   60.0950  C.ar      1 <0>        -0.0759
      16  C14         4.6760   35.0400   59.0700  C.ar      1 <0>        -0.1760
      17  C15         5.3730   36.1080   58.5370  C.ar      1 <0>        -0.0801
      18  C16         6.6270   36.4350   59.0330  C.ar      1 <0>         0.0878
      19  N2          7.3330   37.5200   58.4990  N.pl3     1 <0>        -0.6782
      20  C17         8.1040   37.3570   57.2640  C.3       1 <0>         0.1172
      21  C18         7.3020   38.8180   59.1780  C.3       1 <0>         0.1175
@<TRIPOS>BOND
     1     1     2 1
     2     2     3 1
     3     2    12 1
     4     3     4 1
     5     4     9 ar
     6     4     5 ar
     7     5     6 ar
     8     6     7 ar
     9     7     8 ar
    10     7    10 1
    11     8     9 ar
    12    10    11 1
    13    12    13 1
    14    13    18 ar
    15    13    14 ar
    16    14    15 ar
    17    15    16 ar
    18    16    17 ar
    19    17    18 ar
    20    18    19 1
    21    19    20 1
    22    19    21 1

@<TRIPOS>MOLECULE
ZINC43536364_replica-1.pdb
 22 23 0 0 0
SMALL
GASTEIGER

@<TRIPOS>ATOM
      1  C4         0.2030   29.9330   55.4170 C.3     0  <0>0        0.0990
      2  C3        -1.1320   29.3470   54.9530 C.3     0  <0>0        0.0264
      3  C2        -1.3020   29.5930   53.4520 C.3     0  <0>0        0.0241
      4  C1        -2.6540   30.2620   53.1940 C.3     0  <0>0        0.0047
      5  C12       -1.2440   28.2780   52.7180 C.ar    0  <0>0       -0.0224
      6  C17       -0.4860   27.2380   53.2230 C.ar    0  <0>0       -0.0043
      7  C16       -0.4360   26.0300   52.5520 C.ar    0  <0>0       -0.0003
      8  C15       -1.1370   25.8660   51.3720 C.ar    0  <0>0       -0.0000
      9  C14       -1.8900   26.9070   50.8650 C.ar    0  <0>0       -0.0003
     10  C13       -1.9430   28.1140   51.5380 C.ar    0  <0>0       -0.0043
     11  C5         0.0720   31.4500   55.5610 C.3     0  <0>0        0.1565
     12  O1         1.3550   32.0570   55.3920 O.3     0  <0>0       -0.3802
     13  H10        1.8510   32.1630   56.2150 H       0  <0>0        0.2105
     14  N1         0.5690   29.3490   56.7100 N.pl3   0  <0>0       -0.3313
     15  H11        1.0630   29.8760   57.3580 H       0  <0>0        0.1469
     16  C6         0.2110   28.0310   57.0090 C.ar    0  <0>0        0.0553
     17  C11       -0.6420   27.7660   58.0740 C.ar    0  <0>0        0.0707
     18  C10       -0.9980   26.4620   58.3640 C.ar    0  <0>0        0.0126
     19 Cl         -1.2630   29.0710   59.0360 Cl      0  <0>0       -0.0810
     20  C9        -0.4980   25.4230   57.6000 C.ar    0  <0>0        0.0009
     21  C8         0.3540   25.6840   56.5430 C.ar    0  <0>0        0.0013
     22  C7         0.7110   26.9850   56.2460 C.ar    0  <0>0        0.0152
@<TRIPOS>BOND
     1     9     8   ar
     2     9    10   ar
     3     8     7   ar
     4    10     5   ar
     5     7     6   ar
     6     5     6   ar
     7     5     3    1
     8     4     3    1
     9     3     2    1
    10     2     1    1
    11    12    11    1
    12    12    13    1
    13     1    11    1
    14     1    14    1
    15    22    21   ar
    16    22    16   ar
    17    21    20   ar
    18    14    16    1
    19    14    15    1
    20    16    17   ar
    21    20    18   ar
    22    17    18   ar
    23    17    19    1


@<TRIPOS>MOLECULE
ZINC21229535_replica-1.pdb
 34 38 0 0 0
SMALL
GASTEIGER

@<TRIPOS>ATOM
       1  C1         12.6110   30.0150   64.2980  C.3       1 <0>         0.0233
       2  O1         13.6860   30.9460   64.1550  O.3       1 <0>        -0.3172
       3  C2         13.4350   32.0710   63.4330  C.ar      1 <0>         0.1307
       4  C3         14.4660   32.9500   63.1330  C.ar      1 <0>        -0.2093
       5  C4         14.2090   34.0900   62.4000  C.ar      1 <0>        -0.0757
       6  C5         12.9250   34.3550   61.9580  C.ar      1 <0>        -0.1523
       7  C6         11.8940   33.4830   62.2590  C.ar      1 <0>        -0.0417
       8  C7         12.1470   32.3400   62.9930  C.ar      1 <0>        -0.1453
       9  C8         10.4960   33.7760   61.7800  C.3       1 <0>        -0.0384
      10  C9         10.5320   34.8680   60.7120  C.3       1 <0>        -0.1014
      11  C10         9.1230   35.1570   60.2180  C.2       1 <0>         0.2758
      12  C11         8.2110   34.1750   60.1620  C.2       1 <0>        -0.3081
      13  C12         6.7900   34.3120   59.6660  C.3       1 <0>         0.2665
      14  N1          6.3550   35.6790   59.4770  N.pl3     1 <0>        -0.7777
      15  C13         6.9530   36.4990   58.5220  C.ar      1 <0>         0.1710
      16  C14         6.2540   36.9320   57.4060  C.ar      1 <0>        -0.1237
      17  C15         6.9080   37.6810   56.4420  C.ar      1 <0>        -0.1106
      18  C16         8.2460   37.9970   56.5890  C.ar      1 <0>        -0.1220
      19  C17         8.9400   37.5860   57.7140  C.ar      1 <0>        -0.1162
      20  C18         8.2830   36.8530   58.6860  C.ar      1 <0>         0.1182
      21  N2          8.9060   36.4490   59.8620  N.pl3     1 <0>        -0.6967
      22  C19         6.6690   33.5850   58.3510  C.ar      1 <0>        -0.0173
      23  C20         7.7460   33.5400   57.4840  C.ar      1 <0>        -0.1063
      24  C21         7.6350   32.8740   56.2790  C.ar      1 <0>        -0.0880
      25  C22         6.4500   32.2480   55.9410  C.ar      1 <0>        -0.1227
      26  C23         5.3720   32.2980   56.8040  C.ar      1 <0>        -0.0755
      27  C24         5.4820   32.9640   58.0100  C.ar      1 <0>        -0.1677
      28  C25         4.3090   33.0120   58.9550  C.3       1 <0>         0.5086
      29  F1          4.7410   32.7090   60.2500  F         1 <0>        -0.1803
      30  F2          3.7480   34.2930   58.9380  F         1 <0>        -0.1734
      31  F3          3.3480   32.0770   58.5530  F         1 <0>        -0.1708
      32  C26         8.5390   32.8670   60.5940  C.2       1 <0>         0.3975
      33  O2          7.6970   31.9950   60.5160  O.2       1 <0>        -0.4672
      34  C27         9.8910   32.5200   61.1430  C.3       1 <0>        -0.1593
@<TRIPOS>BOND
     1     1     2 1
     2     2     3 1
     3     3     8 ar
     4     3     4 ar
     5     4     5 ar
     6     5     6 ar
     7     6     7 ar
     8     7     8 ar
     9     7     9 1
    10     9    34 1
    11     9    10 1
    12    10    11 1
    13    11    21 1
    14    11    12 2
    15    12    13 1
    16    12    32 1
    17    13    14 1
    18    13    22 1
    19    14    15 1
    20    15    20 ar
    21    15    16 ar
    22    16    17 ar
    23    17    18 ar
    24    18    19 ar
    25    19    20 ar
    26    20    21 1
    27    22    27 ar
    28    22    23 ar
    29    23    24 ar
    30    24    25 ar
    31    25    26 ar
    32    26    27 ar
    33    27    28 1
    34    28    29 1
    35    28    30 1
    36    28    31 1
    37    32    33 2
    38    32    34 1

@<TRIPOS>MOLECULE
ZINC37923674_replica-1.pdb
 21 23 0 0 0
SMALL
GASTEIGER

@<TRIPOS>ATOM
       1  C1          0.3320   30.6630   59.6630  C.3       1 <0>        -0.1478
       2  C2         -0.5160   29.4740   60.1210  C.3       1 <0>        -0.0387
       3  C3         -0.5470   28.4310   59.0340  C.2       1 <0>         0.0651
       4  N1         -1.4680   27.5300   58.7980  N.2       1 <0>        -0.5200
       5  C4         -1.3530   26.6770   57.7990  C.2       1 <0>         0.0636
       6  C5         -0.2380   26.7770   57.0310  C.2       1 <0>        -0.2330
       7  S1          0.5890   28.1440   57.8260  S.3       1 <0>         0.1201
       8  C6          0.1830   25.9620   55.8350  C.3       1 <0>         0.2186
       9  N2          0.6110   26.8600   54.7580  N.pl3     1 <0>        -0.7447
      10  C7         -0.1400   26.9500   53.5860  C.ar      1 <0>         0.2305
      11  C8         -0.0980   25.9250   52.6510  C.ar      1 <0>        -0.1982
      12  C9         -0.8430   26.0180   51.4910  C.ar      1 <0>        -0.0665
      13  C10        -1.6330   27.1290   51.2540  C.ar      1 <0>        -0.1759
      14  C11        -1.6840   28.1560   52.1740  C.ar      1 <0>        -0.0575
      15  C12        -0.9420   28.0730   53.3510  C.ar      1 <0>        -0.1273
      16  C13        -0.9980   29.1710   54.3460  C.ar      1 <0>        -0.0316
      17  C14         0.0310   30.1090   54.4100  C.ar      1 <0>        -0.1246
      18  C15        -0.0270   31.1300   55.3380  C.ar      1 <0>        -0.1145
      19  C16        -1.1030   31.2220   56.2010  C.ar      1 <0>        -0.1230
      20  C17        -2.1270   30.2940   56.1420  C.ar      1 <0>        -0.1142
      21  C18        -2.0830   29.2730   55.2150  C.ar      1 <0>        -0.1101
@<TRIPOS>BOND
     1     1     2 1
     2     2     3 1
     3     3     7 1
     4     3     4 2
     5     4     5 1
     6     5     6 2
     7     6     7 1
     8     6     8 1
     9     8     9 1
    10     9    10 1
    11    10    15 ar
    12    10    11 ar
    13    11    12 ar
    14    12    13 ar
    15    13    14 ar
    16    14    15 ar
    17    15    16 1
    18    16    21 ar
    19    16    17 ar
    20    17    18 ar
    21    18    19 ar
    22    19    20 ar
    23    20    21 ar

@<TRIPOS>MOLECULE
ZINC01412364_replica-1.pdb
 30 33 0 0 0
SMALL
GASTEIGER

@<TRIPOS>ATOM
       1  C1         12.2340   33.5850   62.9830  C.2       1 <0>        -0.0914
       2  C2         11.3790   32.4990   62.7240  C.2       1 <0>        -0.1311
       3  C3         10.4020   32.6060   61.8000  C.2       1 <0>         0.0546
       4  N1         10.2290   33.7700   61.1010  N.pl3     1 <0>        -0.3576
       5  C4         11.0500   34.8490   61.3310  C.2       1 <0>         0.2497
       6  C5         12.0750   34.7480   62.2970  C.2       1 <0>        -0.0792
       7  N2         10.6780   35.8390   60.5360  N.2       1 <0>        -0.4694
       8  C6          9.6350   35.4390   59.7870  C.2       1 <0>         0.1351
       9  C7          9.3380   34.1370   60.1300  C.2       1 <0>         0.1334
      10  N3          8.3220   33.3450   59.5910  N.am      1 <0>        -0.5323
      11  C8          6.9540   33.4600   60.1010  C.3       1 <0>         0.1412
      12  C9          6.0880   34.1350   59.0670  C.ar      1 <0>        -0.0844
      13  C10         5.9110   33.5500   57.8280  C.ar      1 <0>        -0.1072
      14  C11         5.1160   34.1680   56.8790  C.ar      1 <0>        -0.0725
      15  C12         4.4990   35.3700   57.1730  C.ar      1 <0>        -0.1744
      16  C13         4.6770   35.9540   58.4130  C.ar      1 <0>        -0.0701
      17  C14         5.4670   35.3340   59.3620  C.ar      1 <0>        -0.0928
      18  C15         3.6340   36.0450   56.1390  C.3       1 <0>         0.5074
      19  F1          3.2830   35.1200   55.1500  F         1 <0>        -0.1756
      20  F2          2.4760   36.5380   56.7500  F         1 <0>        -0.1749
      21  F3          4.3420   37.1040   55.5580  F         1 <0>        -0.1755
      22  C16         8.6010   32.4730   58.6020  C.2       1 <0>         0.5092
      23  O1          8.5540   31.2800   58.8140  O.2       1 <0>        -0.5200
      24  C17         8.9280   36.2560   58.7730  C.ar      1 <0>        -0.0291
      25  C18         8.3440   37.4700   59.1350  C.ar      1 <0>        -0.0696
      26  C19         7.6870   38.2270   58.1870  C.ar      1 <0>        -0.1523
      27  C20         7.6050   37.7820   56.8780  C.ar      1 <0>         0.1102
      28  C21         8.1820   36.5760   56.5140  C.ar      1 <0>        -0.1532
      29  C22         8.8470   35.8160   57.4530  C.ar      1 <0>        -0.0541
      30  F4          6.9590   38.5260   55.9530  F         1 <0>        -0.1360
@<TRIPOS>BOND
     1     1     6 2
     2     1     2 1
     3     2     3 2
     4     3     4 1
     5     4     9 1
     6     4     5 1
     7     5     6 1
     8     5     7 2
     9     7     8 1
    10     8     9 2
    11     8    24 1
    12     9    10 1
    13    10    11 1
    14    10    22 am
    15    11    12 1
    16    12    17 ar
    17    12    13 ar
    18    13    14 ar
    19    14    15 ar
    20    15    16 ar
    21    15    18 1
    22    16    17 ar
    23    18    19 1
    24    18    20 1
    25    18    21 1
    26    22    23 2
    27    24    29 ar
    28    24    25 ar
    29    25    26 ar
    30    26    27 ar
    31    27    28 ar
    32    27    30 1
    33    28    29 ar

@<TRIPOS>MOLECULE
ZINC66163856_replica-1.pdb
 21 22 0 0 0
SMALL
GASTEIGER

@<TRIPOS>ATOM
       1  C1         -0.4440   24.7360   51.7720  C.3       1 <0>        -0.1182
       2  C2         -0.8810   26.1640   51.9730  C.ar      1 <0>        -0.0404
       3  C3         -1.6810   26.7810   51.0280  C.ar      1 <0>        -0.1761
       4  C4         -2.0840   28.0910   51.2070  C.ar      1 <0>        -0.0734
       5  C5         -1.6890   28.7880   52.3320  C.ar      1 <0>        -0.2019
       6  C6         -0.8860   28.1720   53.2830  C.ar      1 <0>         0.2201
       7  C7         -0.4880   26.8540   53.1020  C.ar      1 <0>        -0.1623
       8  C8          0.3790   26.1790   54.1350  C.3       1 <0>        -0.1073
       9  N1         -0.4850   28.8750   54.4220  N.pl3     1 <0>        -0.7449
      10  C9         -0.5400   30.3390   54.4370  C.3       1 <0>         0.1319
      11  C10        -1.3440   30.8050   55.6520  C.3       1 <0>         0.0726
      12  C11        -2.8010   30.3620   55.5000  C.3       1 <0>        -0.1795
      13  O1         -0.7920   30.2310   56.8380  O.3       1 <0>        -0.3050
      14  C12        -0.1520   31.0740   57.6920  C.ar      1 <0>         0.0937
      15  C13         0.4960   30.5680   58.8100  C.ar      1 <0>        -0.1102
      16  C14         1.1450   31.4230   59.6770  C.ar      1 <0>        -0.1106
      17  C15         1.1500   32.7880   59.4310  C.ar      1 <0>         0.0921
      18  C16         0.5030   33.2940   58.3130  C.ar      1 <0>        -0.1684
      19  C17        -0.1430   32.4380   57.4430  C.ar      1 <0>        -0.1706
      20  O2          1.7890   33.6310   60.2860  O.3       1 <0>        -0.3176
      21  C18         3.1620   33.3490   60.5710  C.3       1 <0>         0.0271
@<TRIPOS>BOND
     1     1     2 1
     2     2     7 ar
     3     2     3 ar
     4     3     4 ar
     5     4     5 ar
     6     5     6 ar
     7     6     7 ar
     8     6     9 1
     9     7     8 1
    10     9    10 1
    11    10    11 1
    12    11    12 1
    13    11    13 1
    14    13    14 1
    15    14    19 ar
    16    14    15 ar
    17    15    16 ar
    18    16    17 ar
    19    17    18 ar
    20    17    20 1
    21    18    19 ar
    22    20    21 1

@<TRIPOS>MOLECULE
ZINC59227460_replica-1.pdb
 29 32 0 0 0
SMALL
GASTEIGER

@<TRIPOS>ATOM
       1  C1         15.9220   33.9970   64.9780  C.3       1 <0>        -0.1539
       2  C2         15.4760   33.4200   63.6330  C.3       1 <0>         0.0520
       3  O1         14.2570   32.6950   63.8060  O.3       1 <0>        -0.3118
       4  C3         13.2010   33.0740   63.0410  C.ar      1 <0>         0.1561
       5  C4         13.2750   34.2340   62.2810  C.ar      1 <0>        -0.2168
       6  C5         12.2050   34.6210   61.5030  C.ar      1 <0>        -0.0249
       7  C6         11.0460   33.8450   61.4800  C.ar      1 <0>        -0.1055
       8  C7         10.9740   32.6810   62.2430  C.ar      1 <0>        -0.0471
       9  C8         12.0500   32.2960   63.0150  C.ar      1 <0>        -0.1555
      10  C9          9.8940   34.2580   60.6450  C.ar      1 <0>         0.2583
      11  C10         9.7050   35.6140   60.3570  C.ar      1 <0>        -0.1508
      12  C11         8.6450   36.0010   59.5870  C.ar      1 <0>        -0.0534
      13  C12         7.7730   35.0110   59.1070  C.ar      1 <0>        -0.1923
      14  C13         6.6070   35.0380   58.3080  C.2       1 <0>         0.1208
      15  N1          6.1770   33.8190   58.1570  N.2       1 <0>        -0.2232
      16  N2          7.0210   32.9320   58.8370  N.pl3     1 <0>        -0.3328
      17  C14         8.0180   33.6620   59.4330  C.ar      1 <0>         0.3299
      18  N3          9.0650   33.3360   60.1790  N.ar      1 <0>        -0.4724
      19  C15         6.8720   31.5410   58.8990  C.ar      1 <0>         0.1550
      20  C16         6.2760   30.9530   60.0070  C.ar      1 <0>        -0.1143
      21  C17         6.1300   29.5810   60.0640  C.ar      1 <0>        -0.0991
      22  C18         6.5770   28.7920   59.0200  C.ar      1 <0>        -0.1188
      23  C19         7.1710   29.3750   57.9150  C.ar      1 <0>        -0.1015
      24  C20         7.3140   30.7460   57.8490  C.ar      1 <0>        -0.1116
      25  C21         5.9670   36.2740   57.7260  C.3       1 <0>        -0.1041
      26  C22         8.4160   37.4540   59.2620  C.3       1 <0>         0.5113
      27  F1          7.1570   37.8440   59.7280  F         1 <0>        -0.1672
      28  F2          9.4030   38.2310   59.8780  F         1 <0>        -0.1645
      29  F3          8.4770   37.6380   57.8760  F         1 <0>        -0.1625
@<TRIPOS>BOND
     1     1     2 1
     2     2     3 1
     3     3     4 1
     4     4     9 ar
     5     4     5 ar
     6     5     6 ar
     7     6     7 ar
     8     7     8 ar
     9     7    10 1
    10     8     9 ar
    11    10    18 ar
    12    10    11 ar
    13    11    12 ar
    14    12    13 ar
    15    12    26 1
    16    13    17 ar
    17    13    14 1
    18    14    15 2
    19    14    25 1
    20    15    16 1
    21    16    17 1
    22    16    19 1
    23    17    18 ar
    24    19    24 ar
    25    19    20 ar
    26    20    21 ar
    27    21    22 ar
    28    22    23 ar
    29    23    24 ar
    30    26    27 1
    31    26    28 1
    32    26    29 1

@<TRIPOS>MOLECULE
ZINC49903265_replica-1.pdb
 22 23 0 0 0
SMALL
GASTEIGER

@<TRIPOS>ATOM
       1  C1         13.2940   34.1110   63.0470  C.3       1 <0>        -0.1554
       2  C2         12.2180   35.0380   62.4790  C.3       1 <0>        -0.1161
       3  C3         11.5120   34.3460   61.3110  C.3       1 <0>        -0.0548
       4  C4         10.7120   33.1520   61.8350  C.3       1 <0>        -0.1461
       5  C5         10.5800   35.3200   60.6380  C.ar      1 <0>        -0.0722
       6  C6         10.2680   36.5160   61.2560  C.ar      1 <0>        -0.1111
       7  C7          9.4130   37.4100   60.6390  C.ar      1 <0>        -0.1070
       8  C8          8.8710   37.1080   59.4040  C.ar      1 <0>        -0.1228
       9  C9          9.1840   35.9120   58.7860  C.ar      1 <0>        -0.1084
      10  C10        10.0430   35.0210   59.4010  C.ar      1 <0>        -0.1140
      11  C11         7.9380   38.0820   58.7310  C.3       1 <0>         0.1540
      12  C12         8.6010   38.6360   57.4690  C.3       1 <0>        -0.1573
      13  C13         7.6210   38.5520   56.2980  C.3       1 <0>         0.1287
      14  N1          7.8090   37.2810   55.5930  N.pl3     1 <0>        -0.7515
      15  C14         6.9060   36.2340   55.7880  C.ar      1 <0>         0.2096
      16  C15         5.5480   36.5000   55.9120  C.ar      1 <0>        -0.1933
      17  C16         4.6580   35.4620   56.1040  C.ar      1 <0>        -0.0725
      18  C17         5.1160   34.1590   56.1740  C.ar      1 <0>        -0.1463
      19  C18         6.4680   33.8910   56.0520  C.ar      1 <0>        -0.0727
      20  C19         7.3630   34.9240   55.8530  C.ar      1 <0>        -0.1930
      21  C20         4.1420   33.0290   56.3850  C.3       1 <0>        -0.1072
      22  O1          7.6470   39.1580   59.6260  O.3       1 <0>        -0.5520
@<TRIPOS>BOND
     1     1     2 1
     2     2     3 1
     3     3     4 1
     4     3     5 1
     5     5    10 ar
     6     5     6 ar
     7     6     7 ar
     8     7     8 ar
     9     8     9 ar
    10     8    11 1
    11     9    10 ar
    12    11    12 1
    13    11    22 1
    14    12    13 1
    15    13    14 1
    16    14    15 1
    17    15    20 ar
    18    15    16 ar
    19    16    17 ar
    20    17    18 ar
    21    18    19 ar
    22    18    21 1
    23    19    20 ar

@<TRIPOS>MOLECULE
ZINC66161972_replica-1.pdb
 22 23 0 0 0
SMALL
GASTEIGER

@<TRIPOS>ATOM
      1  C8        -1.4480   26.5260   57.7170 C.3     0  <0>0        0.1351
      2  N1        -1.7920   27.8350   58.2800 N.pl3   0  <0>0       -0.3299
      3  H7        -1.9170   27.9330   59.2370 H       0  <0>0        0.1469
      4  C3        -1.9420   28.9390   57.4370 C.ar    0  <0>0        0.0415
      5  C2        -1.0820   30.0240   57.5540 C.ar    0  <0>0        0.0018
      6  C1         0.0120   30.0110   58.5900 C.3     0  <0>0        0.0332
      7  C7        -1.2360   31.1170   56.7230 C.ar    0  <0>0        0.0549
      8  C6        -2.2380   31.1260   55.7670 C.ar    0  <0>0        0.0112
      9 Cl         -0.1670   32.4770   56.8720 Cl      0  <0>0       -0.0825
     10  C5        -3.0940   30.0480   55.6500 C.ar    0  <0>0        0.0021
     11  C4        -2.9500   28.9540   56.4820 C.ar    0  <0>0        0.0140
     12  C9         0.0530   26.2800   57.8800 C.3     0  <0>0        0.2265
     13  O1         0.7700   27.0560   56.9180 O.3     0  <0>0       -0.4736
     14  C10        0.4580   26.8590   55.6100 C.ar    0  <0>0        0.1386
     15  C15        0.0430   27.9250   54.8250 C.ar    0  <0>0        0.0366
     16  C14       -0.2680   27.7230   53.4950 C.ar    0  <0>0       -0.0012
     17  C13       -0.1790   26.4560   52.9470 C.ar    0  <0>0       -0.0223
     18  C12        0.2270   25.3910   53.7290 C.ar    0  <0>0       -0.0012
     19  C11        0.5470   25.5890   55.0590 C.ar    0  <0>0        0.0366
     20  C16       -0.5260   26.2370   51.4980 C.3     0  <0>0        0.0224
     21  C17       -0.9040   24.7710   51.2800 C.3     0  <0>0        0.0047
     22  C18       -1.7080   27.1300   51.1160 C.3     0  <0>0        0.0047
@<TRIPOS>BOND
     1    22    20    1
     2    21    20    1
     3    20    17    1
     4    17    16   ar
     5    17    18   ar
     6    16    15   ar
     7    18    19   ar
     8    15    14   ar
     9    19    14   ar
    10    14    13    1
    11    10     8   ar
    12    10    11   ar
    13     8     7   ar
    14    11     4   ar
    15     7     9    1
    16     7     5   ar
    17    13    12    1
    18     4     5   ar
    19     4     2    1
    20     5     6    1
    21     1    12    1
    22     1     2    1
    23     2     3    1


@<TRIPOS>MOLECULE
ZINC49924675_replica-1.pdb
 23 24 0 0 0
SMALL
GASTEIGER

@<TRIPOS>ATOM
       1  C1         11.5350   35.2530   61.9350  C.3       1 <0>        -0.1556
       2  C2         10.4650   35.3080   60.8430  C.3       1 <0>        -0.1155
       3  C3          9.8880   36.7230   60.7640  C.3       1 <0>        -0.0548
       4  C4          8.8930   36.9320   61.9080  C.3       1 <0>        -0.1466
       5  C5          9.1810   36.9040   59.4460  C.ar      1 <0>        -0.0721
       6  C6          8.3550   37.9940   59.2480  C.ar      1 <0>        -0.1111
       7  C7          7.7070   38.1610   58.0390  C.ar      1 <0>        -0.1069
       8  C8          7.8850   37.2360   57.0260  C.ar      1 <0>        -0.1227
       9  C9          8.7130   36.1460   57.2230  C.ar      1 <0>        -0.1084
      10  C10         9.3640   35.9830   58.4310  C.ar      1 <0>        -0.1139
      11  C11         7.1790   37.4170   55.7080  C.3       1 <0>         0.1542
      12  C12         5.7560   36.8620   55.8110  C.3       1 <0>        -0.1574
      13  C13         5.7970   35.3360   55.7280  C.3       1 <0>         0.1283
      14  N1          5.0950   34.7650   56.8810  N.pl3     1 <0>        -0.7500
      15  C14         5.8150   34.3690   58.0110  C.ar      1 <0>         0.2190
      16  C15         6.6810   33.2850   57.9410  C.ar      1 <0>        -0.1947
      17  C16         7.3920   32.8990   59.0590  C.ar      1 <0>        -0.0442
      18  C17         7.2410   33.5870   60.2490  C.ar      1 <0>        -0.1759
      19  C18         6.3790   34.6650   60.3230  C.ar      1 <0>        -0.0705
      20  C19         5.6700   35.0620   59.2050  C.ar      1 <0>        -0.1700
      21  C20         4.7360   36.2420   59.2850  C.3       1 <0>        -0.1042
      22  C21         8.3320   31.7230   58.9840  C.3       1 <0>        -0.1162
      23  O1          7.8900   36.7160   54.6860  O.3       1 <0>        -0.5518
@<TRIPOS>BOND
     1     1     2 1
     2     2     3 1
     3     3     4 1
     4     3     5 1
     5     5    10 ar
     6     5     6 ar
     7     6     7 ar
     8     7     8 ar
     9     8     9 ar
    10     8    11 1
    11     9    10 ar
    12    11    12 1
    13    11    23 1
    14    12    13 1
    15    13    14 1
    16    14    15 1
    17    15    20 ar
    18    15    16 ar
    19    16    17 ar
    20    17    18 ar
    21    17    22 1
    22    18    19 ar
    23    19    20 ar
    24    20    21 1

@<TRIPOS>MOLECULE
ZINC39491516_replica-1.pdb
 29 31 0 0 0
SMALL
GASTEIGER

@<TRIPOS>ATOM
       1  C1         11.0200   34.7190   60.8650  C.3       1 <0>        -0.1564
       2  C2         10.8800   36.0140   61.6680  C.3       1 <0>        -0.1277
       3  C3          9.9200   36.9610   60.9440  C.3       1 <0>        -0.1114
       4  C4          8.9460   36.1470   60.0920  C.3       1 <0>        -0.0646
       5  C5          7.6360   35.9530   60.8610  C.3       1 <0>         0.1042
       6  N1          6.8680   34.8640   60.2510  N.pl3     1 <0>        -0.4561
       7  C6          7.2290   33.5440   60.2670  C.2       1 <0>         0.1341
       8  C7          6.3100   32.8100   59.6200  C.2       1 <0>        -0.2600
       9  C8          5.2750   33.7370   59.1540  C.ar      1 <0>        -0.1092
      10  C9          5.6760   35.0170   59.5860  C.ar      1 <0>         0.1324
      11  C10         4.8800   36.1240   59.2930  C.ar      1 <0>        -0.1246
      12  C11         3.7180   35.9690   58.5990  C.ar      1 <0>        -0.0420
      13  C12         3.3060   34.7010   58.1660  C.ar      1 <0>        -0.1311
      14  C13         4.0900   33.5830   58.4400  C.ar      1 <0>        -0.0175
      15  C14         2.0460   34.5510   57.4150  C.2       1 <0>         0.5081
      16  O1          1.8240   35.2580   56.4520  O.2       1 <0>        -0.5064
      17  O2          1.1390   33.6290   57.7970  O.3       1 <0>        -0.3470
      18  C15         0.3950   33.9070   58.9850  C.3       1 <0>         0.0335
      19  C16         6.3370   31.3180   59.4130  C.3       1 <0>         0.0848
      20  N2          7.4690   30.9650   58.5460  N.4       1 <0>        -0.5110
      21  C17         7.1020   31.1970   57.1430  C.3       1 <0>        -0.0116
      22  C18         7.8500   32.4240   56.6170  C.3       1 <0>        -0.1517
      23  C19         6.8740   33.3340   55.8680  C.3       1 <0>        -0.1564
      24  C20         8.6680   36.8810   58.8060  C.ar      1 <0>        -0.0843
      25  C21         8.5860   36.1850   57.6150  C.ar      1 <0>        -0.1209
      26  C22         8.3320   36.8590   56.4360  C.ar      1 <0>        -0.1160
      27  C23         8.1590   38.2310   56.4470  C.ar      1 <0>        -0.1175
      28  C24         8.2400   38.9280   57.6380  C.ar      1 <0>        -0.1134
      29  C25         8.4910   38.2530   58.8190  C.ar      1 <0>        -0.1085
@<TRIPOS>BOND
     1     1     2 1
     2     2     3 1
     3     3     4 1
     4     4     5 1
     5     4    24 1
     6     5     6 1
     7     6    10 1
     8     6     7 1
     9     7     8 2
    10     8     9 1
    11     8    19 1
    12     9    14 ar
    13     9    10 ar
    14    10    11 ar
    15    11    12 ar
    16    12    13 ar
    17    13    14 ar
    18    13    15 1
    19    15    16 2
    20    15    17 1
    21    17    18 1
    22    19    20 1
    23    20    21 1
    24    21    22 1
    25    22    23 1
    26    24    29 ar
    27    24    25 ar
    28    25    26 ar
    29    26    27 ar
    30    27    28 ar
    31    28    29 ar

@<TRIPOS>MOLECULE
ZINC18599691_replica-1.pdb
 31 34 0 0 0
SMALL
GASTEIGER

@<TRIPOS>ATOM
       1  C1         -0.2750   30.9420   63.6330  C.3       1 <0>        -0.1150
       2  C2         -0.1010   31.8280   62.4270  C.ar      1 <0>        -0.0950
       3  C3         -0.3200   33.1900   62.5340  C.ar      1 <0>        -0.1050
       4  C4         -0.1630   34.0050   61.4310  C.ar      1 <0>        -0.1203
       5  C5          0.2160   33.4570   60.2130  C.ar      1 <0>         0.1351
       6  C6          0.4300   32.0880   60.1070  C.ar      1 <0>        -0.1076
       7  C7          0.2770   31.2790   61.2150  C.ar      1 <0>        -0.1014
       8  C8          0.8360   31.4890   58.7850  C.3       1 <0>        -0.1172
       9  N1          0.3760   34.2800   59.0930  N.am      1 <0>        -0.6561
      10  C9          1.5700   34.8570   58.8470  C.2       1 <0>         0.5340
      11  O1          2.4740   34.7470   59.6470  O.2       1 <0>        -0.4999
      12  C10         1.7800   35.6410   57.5760  C.3       1 <0>        -0.1105
      13  C11         0.4260   35.9200   56.9190  C.3       1 <0>        -0.1491
      14  S1          2.8160   34.6850   56.4420  S.3       1 <0>         0.1008
      15  C12         4.4080   35.2820   56.9050  C.2       1 <0>         0.3679
      16  N2          5.0120   34.7920   58.0260  N.am      1 <0>        -0.6183
      17  C13         6.2260   35.2240   58.4100  C.2       1 <0>         0.5602
      18  O2          6.7520   34.7760   59.4150  O.2       1 <0>        -0.5045
      19  C14         6.8930   36.2160   57.6260  C.2       1 <0>        -0.2493
      20  C15         8.1980   36.8340   57.8370  C.2       1 <0>        -0.0103
      21  C16         8.6280   37.7670   56.9560  C.2       1 <0>        -0.1806
      22  S2          7.2970   37.8620   55.7730  S.3       1 <0>         0.1590
      23  C17         6.1990   36.6650   56.4880  C.2       1 <0>         0.1195
      24  N3          5.0000   36.1970   56.1630  N.2       1 <0>        -0.4992
      25  C18         9.0350   36.4520   58.9990  C.ar      1 <0>        -0.0562
      26  C19         9.0850   37.2720   60.1260  C.ar      1 <0>        -0.0303
      27  C20         9.8700   36.9140   61.2020  C.ar      1 <0>        -0.1560
      28  C21        10.6080   35.7420   61.1650  C.ar      1 <0>         0.1061
      29  C22        10.5610   34.9240   60.0490  C.ar      1 <0>        -0.1596
      30  C23         9.7790   35.2730   58.9670  C.ar      1 <0>        -0.0727
      31  F1         11.3750   35.3960   62.2220  F         1 <0>        -0.1394
@<TRIPOS>BOND
     1     1     2 1
     2     2     7 ar
     3     2     3 ar
     4     3     4 ar
     5     4     5 ar
     6     5     6 ar
     7     5     9 1
     8     6     7 ar
     9     6     8 1
    10     9    10 am
    11    10    11 2
    12    10    12 1
    13    12    13 1
    14    12    14 1
    15    14    15 1
    16    15    24 2
    17    15    16 1
    18    16    17 am
    19    17    18 2
    20    17    19 1
    21    19    23 2
    22    19    20 1
    23    20    21 2
    24    20    25 1
    25    21    22 1
    26    22    23 1
    27    23    24 1
    28    25    30 ar
    29    25    26 ar
    30    26    27 ar
    31    27    28 ar
    32    28    29 ar
    33    28    31 1
    34    29    30 ar

@<TRIPOS>MOLECULE
ZINC11895704_replica-1.pdb
 24 26 0 0 0
SMALL
GASTEIGER

@<TRIPOS>ATOM
       1  C1         -1.2160   25.8280   51.1210  C.ar      1 <0>        -0.1302
       2  C2         -1.7650   27.1000   50.9700  C.ar      1 <0>        -0.0965
       3  C3         -1.5890   28.0560   51.9260  C.ar      1 <0>        -0.1191
       4  C4         -0.8490   27.7560   53.0760  C.ar      1 <0>         0.0085
       5  C5         -0.2910   26.4650   53.2330  C.ar      1 <0>        -0.0861
       6  C6         -0.4910   25.5040   52.2270  C.ar      1 <0>        -0.0892
       7  C7          0.4520   26.1660   54.3890  C.ar      1 <0>        -0.0492
       8  C8          0.6400   27.1020   55.3560  C.ar      1 <0>        -0.1962
       9  C9          0.1090   28.3880   55.2470  C.ar      1 <0>         0.1726
      10  C10        -0.6370   28.7510   54.1250  C.ar      1 <0>        -0.1432
      11  C11        -1.1980   30.1050   54.0040  C.2       1 <0>         0.1588
      12  N1         -2.2830   30.4150   54.6400  N.2       1 <0>        -0.3149
      13  O1         -2.8500   29.5020   55.5630  O.3       1 <0>        -0.4003
      14  O2          0.3220   29.2900   56.2370  O.3       1 <0>        -0.2918
      15  C12         0.0830   28.8540   57.5760  C.3       1 <0>         0.0600
      16  C13        -0.5200   30.0030   58.3870  C.3       1 <0>         0.0617
      17  O3          0.4690   30.5280   59.2760  O.3       1 <0>        -0.3038
      18  C14         0.6740   31.8710   59.2460  C.ar      1 <0>         0.1224
      19  C15         0.2300   32.6180   58.1650  C.ar      1 <0>        -0.1824
      20  C16         0.4380   33.9830   58.1380  C.ar      1 <0>        -0.1118
      21  C17         1.0910   34.6070   59.1870  C.ar      1 <0>         0.0599
      22  C18         1.5360   33.8620   60.2670  C.ar      1 <0>        -0.1115
      23  C19         1.3230   32.4980   60.3000  C.ar      1 <0>        -0.1214
      24  F1          1.2940   35.9410   59.1580  F         1 <0>        -0.1398
@<TRIPOS>BOND
     1     1     6 ar
     2     1     2 ar
     3     2     3 ar
     4     3     4 ar
     5     4    10 ar
     6     4     5 ar
     7     5     6 ar
     8     5     7 ar
     9     7     8 ar
    10     8     9 ar
    11     9    10 ar
    12     9    14 1
    13    10    11 1
    14    11    12 2
    15    12    13 1
    16    14    15 1
    17    15    16 1
    18    16    17 1
    19    17    18 1
    20    18    23 ar
    21    18    19 ar
    22    19    20 ar
    23    20    21 ar
    24    21    22 ar
    25    21    24 1
    26    22    23 ar

@<TRIPOS>MOLECULE
ZINC67014064_replica-1.pdb
 25 27 0 0 0
SMALL
GASTEIGER

@<TRIPOS>ATOM
       1  C1          0.2450   34.2890   60.0030  C.ar      1 <0>        -0.0689
       2  C2          0.2060   34.0870   61.3690  C.ar      1 <0>        -0.1555
       3  C3          0.4140   32.8200   61.8870  C.ar      1 <0>         0.1095
       4  C4          0.6620   31.7560   61.0340  C.ar      1 <0>        -0.1556
       5  C5          0.7010   31.9620   59.6680  C.ar      1 <0>        -0.0692
       6  C6          0.4920   33.2270   59.1530  C.ar      1 <0>        -0.1242
       7  C7          0.5350   33.4490   57.6630  C.3       1 <0>         0.1804
       8  N1         -0.4570   32.5880   57.0130  N.am      1 <0>        -0.7421
       9  C8         -0.0560   31.5180   56.2990  C.2       1 <0>         0.7108
      10  O1          1.1290   31.3180   56.1180  O.2       1 <0>        -0.5813
      11  N2         -0.9690   30.6700   55.7840  N.am      1 <0>        -0.6332
      12  C9         -2.4090   30.9550   55.8870  C.3       1 <0>         0.0744
      13  C10        -3.0290   30.8140   54.4920  C.3       1 <0>         0.0497
      14  O2         -2.6710   29.5430   53.9440  O.3       1 <0>        -0.3679
      15  C11        -1.2660   29.3660   53.7480  C.3       1 <0>         0.1222
      16  C12        -0.5550   29.4360   55.0990  C.3       1 <0>         0.1061
      17  C13        -1.0110   28.0240   53.1110  C.ar      1 <0>        -0.0688
      18  C14        -1.4620   27.7720   51.8270  C.ar      1 <0>        -0.0697
      19  C15        -1.2300   26.5430   51.2410  C.ar      1 <0>        -0.1265
      20  C16        -0.5460   25.5620   51.9370  C.ar      1 <0>         0.0747
      21  C17        -0.0950   25.8130   53.2240  C.ar      1 <0>         0.0692
      22  C18        -0.3240   27.0490   53.8060  C.ar      1 <0>        -0.1110
      23  F1          0.5740   24.8580   53.9050  F         1 <0>        -0.1251
      24  F2         -0.3190   24.3590   51.3640  F         1 <0>        -0.1258
      25  F3          0.3760   32.6210   63.2220  F         1 <0>        -0.1362
@<TRIPOS>BOND
     1     1     6 ar
     2     1     2 ar
     3     2     3 ar
     4     3     4 ar
     5     3    25 1
     6     4     5 ar
     7     5     6 ar
     8     6     7 1
     9     7     8 1
    10     8     9 am
    11     9    10 2
    12     9    11 am
    13    11    16 1
    14    11    12 1
    15    12    13 1
    16    13    14 1
    17    14    15 1
    18    15    16 1
    19    15    17 1
    20    17    22 ar
    21    17    18 ar
    22    18    19 ar
    23    19    20 ar
    24    20    21 ar
    25    20    24 1
    26    21    22 ar
    27    21    23 1

@<TRIPOS>MOLECULE
ZINC58475970_replica-1.pdb
 22 23 0 0 0
SMALL
GASTEIGER

@<TRIPOS>ATOM
       1  C1          0.7750   33.0410   61.7910  C.3       1 <0>        -0.1669
       2  C2          2.0260   33.2310   60.9320  C.3       1 <0>        -0.0157
       3  N1          1.6930   34.0440   59.7550  N.4       1 <0>        -0.2595
       4  C3          2.8180   34.9360   59.4410  C.3       1 <0>        -0.0119
       5  C4          2.3450   36.0380   58.4920  C.3       1 <0>        -0.1633
       6  C5          1.4460   33.2050   58.6640  C.ar      1 <0>        -0.3015
       7  C6          2.4480   32.3820   58.1850  C.ar      1 <0>        -0.1375
       8  C7          2.2070   31.5520   57.1080  C.ar      1 <0>        -0.1238
       9  C8          0.9550   31.5450   56.5060  C.ar      1 <0>         0.0080
      10  C9         -0.0500   32.3730   56.9900  C.ar      1 <0>        -0.1311
      11  C10         0.1960   33.1960   58.0710  C.ar      1 <0>        -0.1351
      12  N2          0.7070   30.7060   55.4170  N.pl3     1 <0>        -0.7426
      13  C11        -0.2970   31.0810   54.4180  C.3       1 <0>         0.1444
      14  C12        -1.3950   30.0160   54.3740  C.3       1 <0>         0.0490
      15  O1         -1.6400   29.6400   53.0170  O.3       1 <0>        -0.3081
      16  C13        -1.3420   28.3600   52.6680  C.ar      1 <0>         0.1258
      17  C14        -1.8040   27.8420   51.4670  C.ar      1 <0>        -0.2066
      18  C15        -1.5000   26.5400   51.1150  C.ar      1 <0>        -0.0809
      19  C16        -0.7370   25.7550   51.9600  C.ar      1 <0>        -0.1273
      20  C17        -0.2770   26.2690   53.1580  C.ar      1 <0>        -0.0810
      21  C18        -0.5720   27.5720   53.5110  C.ar      1 <0>        -0.1488
      22  C19        -0.4070   24.3370   51.5740  C.3       1 <0>        -0.1104
@<TRIPOS>BOND
     1     1     2 1
     2     2     3 1
     3     3     4 1
     4     3     6 1
     5     4     5 1
     6     6    11 ar
     7     6     7 ar
     8     7     8 ar
     9     8     9 ar
    10     9    10 ar
    11     9    12 1
    12    10    11 ar
    13    12    13 1
    14    13    14 1
    15    14    15 1
    16    15    16 1
    17    16    21 ar
    18    16    17 ar
    19    17    18 ar
    20    18    19 ar
    21    19    20 ar
    22    19    22 1
    23    20    21 ar

@<TRIPOS>MOLECULE
ZINC40840046_replica-1.pdb
 24 25 0 0 0
SMALL
GASTEIGER

@<TRIPOS>ATOM
       1  C1         -0.4200   23.9490   51.4810  C.3       1 <0>        -0.1118
       2  C2         -0.5500   25.3350   52.0580  C.ar      1 <0>        -0.1219
       3  C3          0.0480   25.6390   53.2670  C.ar      1 <0>        -0.0799
       4  C4         -0.0700   26.9080   53.7980  C.ar      1 <0>        -0.2088
       5  C5         -0.7870   27.8800   53.1150  C.ar      1 <0>         0.1222
       6  C6         -1.3850   27.5740   51.9020  C.ar      1 <0>        -0.1415
       7  C7         -1.2600   26.3040   51.3730  C.ar      1 <0>        -0.0787
       8  O1         -0.9040   29.1310   53.6360  O.3       1 <0>        -0.2835
       9  C8         -1.9630   29.3470   54.5710  C.3       1 <0>         0.0751
      10  C9         -2.8150   30.5320   54.1130  C.3       1 <0>        -0.1801
      11  C10        -1.3790   29.6430   55.9290  C.2       1 <0>         0.5295
      12  O2         -0.4560   30.4240   56.0360  O.2       1 <0>        -0.4738
      13  N1         -1.8820   29.0410   57.0250  N.am      1 <0>        -0.5858
      14  N2         -1.3400   29.3160   58.2860  N.2       1 <0>        -0.2223
      15  C11        -1.0040   28.3410   59.0750  C.2       1 <0>         0.1187
      16  C12        -0.8420   26.9790   58.5350  C.ar      1 <0>        -0.1127
      17  C13        -1.6990   25.9540   58.9450  C.ar      1 <0>        -0.1280
      18  C14        -1.5420   24.6830   58.4350  C.ar      1 <0>        -0.1127
      19  C15        -0.5370   24.4200   57.5200  C.ar      1 <0>        -0.0571
      20  C16         0.3160   25.4290   57.1110  C.ar      1 <0>        -0.1113
      21  C17         0.1670   26.7070   57.6080  C.ar      1 <0>        -0.0810
      22  C18        -0.3700   23.0280   56.9690  C.3       1 <0>        -0.0618
      23  C19         0.6580   23.0480   55.8360  C.3       1 <0>        -0.1462
      24  C20         0.1140   22.0940   58.0800  C.3       1 <0>        -0.1459
@<TRIPOS>BOND
     1     1     2 1
     2     2     7 ar
     3     2     3 ar
     4     3     4 ar
     5     4     5 ar
     6     5     6 ar
     7     5     8 1
     8     6     7 ar
     9     8     9 1
    10     9    10 1
    11     9    11 1
    12    11    12 2
    13    11    13 am
    14    13    14 1
    15    14    15 2
    16    15    16 1
    17    16    21 ar
    18    16    17 ar
    19    17    18 ar
    20    18    19 ar
    21    19    20 ar
    22    19    22 1
    23    20    21 ar
    24    22    23 1
    25    22    24 1

@<TRIPOS>MOLECULE
ZINC63101946_replica-1.pdb
 26 27 0 0 0
SMALL
GASTEIGER

@<TRIPOS>ATOM
       1  C1          5.3440   34.8000   54.6450  C.ar      1 <0>        -0.1730
       2  C2          4.0970   34.2290   54.8360  C.ar      1 <0>        -0.0201
       3  C3          3.7900   33.7120   56.0990  C.ar      1 <0>        -0.1686
       4  C4          4.7540   33.7950   57.1190  C.ar      1 <0>         0.1471
       5  N1          5.9320   34.3530   56.8810  N.ar      1 <0>        -0.4827
       6  C5          6.2410   34.8460   55.6970  C.ar      1 <0>         0.1537
       7  S1          4.3960   33.1550   58.7210  S.3       1 <0>         0.1179
       8  C6          3.7810   34.5920   59.6400  C.3       1 <0>         0.4114
       9  F1          4.7570   35.0190   60.5460  F         1 <0>        -0.1659
      10  F2          3.4900   35.6270   58.7450  F         1 <0>        -0.1572
      11  F3          2.6200   34.2390   60.3370  F         1 <0>        -0.1660
      12  C7          2.4770   33.0920   56.3570  C.2       1 <0>         0.5624
      13  O1          1.5310   33.7850   56.6830  O.2       1 <0>        -0.5054
      14  N2          2.3240   31.7590   56.2300  N.am      1 <0>        -0.7122
      15  C8          1.0190   31.1440   56.4860  C.3       1 <0>         0.0893
      16  C9          0.2660   30.9780   55.1650  C.3       1 <0>         0.0995
      17  C10        -0.5100   29.6600   55.1830  C.3       1 <0>         0.0279
      18  O2         -1.1590   29.4720   53.9230  O.3       1 <0>        -0.2996
      19  C11        -0.9630   28.2790   53.3000  C.ar      1 <0>         0.1187
      20  C12        -0.2170   27.2870   53.9190  C.ar      1 <0>        -0.1818
      21  C13        -0.0180   26.0760   53.2840  C.ar      1 <0>        -0.1121
      22  C14        -0.5610   25.8540   52.0300  C.ar      1 <0>         0.0619
      23  C15        -1.3030   26.8440   51.4100  C.ar      1 <0>        -0.1120
      24  C16        -1.5100   28.0530   52.0460  C.ar      1 <0>        -0.1203
      25  F4         -0.3650   24.6700   51.4100  F         1 <0>        -0.1390
      26  O3         -0.6460   32.0660   54.9970  O.3       1 <0>        -0.5470
@<TRIPOS>BOND
     1     1     6 ar
     2     1     2 ar
     3     2     3 ar
     4     3     4 ar
     5     3    12 1
     6     4     5 ar
     7     4     7 1
     8     5     6 ar
     9     7     8 1
    10     8     9 1
    11     8    10 1
    12     8    11 1
    13    12    13 2
    14    12    14 am
    15    14    15 1
    16    15    16 1
    17    16    17 1
    18    16    26 1
    19    17    18 1
    20    18    19 1
    21    19    24 ar
    22    19    20 ar
    23    20    21 ar
    24    21    22 ar
    25    22    23 ar
    26    22    25 1
    27    23    24 ar

@<TRIPOS>MOLECULE
ZINC05695473_replica-1.pdb
 26 29 0 0 0
SMALL
GASTEIGER

@<TRIPOS>ATOM
       1  C1         -1.2530   26.3080   51.2500  C.ar      1 <0>        -0.1188
       2  C2         -1.5160   27.6160   51.6130  C.ar      1 <0>        -0.1194
       3  C3         -1.0550   28.1040   52.8220  C.ar      1 <0>        -0.1148
       4  C4         -0.3310   27.2840   53.6670  C.ar      1 <0>        -0.0825
       5  C5         -0.0620   25.9780   53.3010  C.ar      1 <0>        -0.1061
       6  C6         -0.5270   25.4890   52.0940  C.ar      1 <0>        -0.1177
       7  C7          0.1730   27.8160   54.9840  C.3       1 <0>        -0.0178
       8  C8         -0.3340   29.2200   55.1840  C.2       1 <0>         0.1035
       9  N1          0.4030   30.2180   54.8680  N.2       1 <0>        -0.1914
      10  N2         -0.0690   31.5250   55.0540  N.pl3     1 <0>        -0.5586
      11  C9          0.5190   32.3430   55.9960  C.2       1 <0>         0.5543
      12  N3          0.1400   33.6280   56.2650  N.pl3     1 <0>        -0.6240
      13  C10         0.9720   34.0990   57.2670  C.ar      1 <0>         0.0440
      14  C11         1.0740   35.3050   57.9450  C.ar      1 <0>        -0.1057
      15  C12         2.0360   35.4650   58.9200  C.ar      1 <0>        -0.1126
      16  C13         2.9060   34.4290   59.2270  C.ar      1 <0>        -0.1207
      17  C14         2.8200   33.2260   58.5630  C.ar      1 <0>        -0.0758
      18  C15         1.8500   33.0470   57.5740  C.ar      1 <0>         0.0744
      19  N4          1.5200   32.0020   56.7690  N.2       1 <0>        -0.5045
      20  C16        -1.7100   29.4510   55.7540  C.3       1 <0>        -0.0834
      21  C17        -1.7840   28.8660   57.1410  C.ar      1 <0>        -0.0805
      22  C18        -2.6040   27.7800   57.3900  C.ar      1 <0>        -0.1183
      23  C19        -2.6680   27.2400   58.6600  C.ar      1 <0>        -0.1124
      24  C20        -1.9210   27.7910   59.6850  C.ar      1 <0>        -0.1176
      25  C21        -1.1060   28.8800   59.4370  C.ar      1 <0>        -0.1124
      26  C22        -1.0380   29.4170   58.1650  C.ar      1 <0>        -0.1086
@<TRIPOS>BOND
     1     1     6 ar
     2     1     2 ar
     3     2     3 ar
     4     3     4 ar
     5     4     5 ar
     6     4     7 1
     7     5     6 ar
     8     7     8 1
     9     8     9 2
    10     8    20 1
    11     9    10 1
    12    10    11 1
    13    11    19 2
    14    11    12 1
    15    12    13 1
    16    13    18 ar
    17    13    14 ar
    18    14    15 ar
    19    15    16 ar
    20    16    17 ar
    21    17    18 ar
    22    18    19 1
    23    20    21 1
    24    21    26 ar
    25    21    22 ar
    26    22    23 ar
    27    23    24 ar
    28    24    25 ar
    29    25    26 ar

@<TRIPOS>MOLECULE
ZINC36919549_replica-1.pdb
 21 22 0 0 0
SMALL
GASTEIGER

@<TRIPOS>ATOM
       1  C1         -2.8030   30.4480   55.3540  C.3       1 <0>        -0.1710
       2  C2         -1.3180   30.4840   55.7210  C.3       1 <0>         0.1467
       3  C3         -0.4840   30.0580   54.5110  C.3       1 <0>        -0.1202
       4  C4         -1.4140   29.5830   53.3920  C.3       1 <0>        -0.0795
       5  C5         -1.0510   28.1740   53.0010  C.ar      1 <0>        -0.0832
       6  C6         -0.2730   27.4020   53.8440  C.ar      1 <0>        -0.1184
       7  C7          0.0610   26.1090   53.4860  C.ar      1 <0>        -0.1175
       8  C8         -0.3840   25.5890   52.2850  C.ar      1 <0>        -0.1248
       9  C9         -1.1620   26.3600   51.4420  C.ar      1 <0>        -0.1177
      10  C10        -1.4990   27.6510   51.8020  C.ar      1 <0>        -0.1184
      11  N1         -0.9460   31.8440   56.1170  N.pl3     1 <0>        -0.7386
      12  C11        -0.3400   32.0710   57.3580  C.ar      1 <0>         0.2281
      13  C12        -0.1070   33.3710   57.7900  C.ar      1 <0>        -0.1835
      14  C13         0.4900   33.5950   59.0150  C.ar      1 <0>        -0.0383
      15  C14         0.8580   32.5210   59.8150  C.ar      1 <0>        -0.1532
      16  C15         0.6240   31.2210   59.3830  C.ar      1 <0>        -0.0683
      17  C16         0.0220   30.9980   58.1610  C.ar      1 <0>        -0.1779
      18  S1          1.6210   32.8060   61.3780  S.3       1 <0>        -0.1075
      19  C17         0.2240   32.9730   62.5240  C.3       1 <0>         0.2736
      20  F1         -0.2410   34.2930   62.5040  F         1 <0>        -0.1820
      21  F2         -0.8050   32.1100   62.1320  F         1 <0>        -0.1820
@<TRIPOS>BOND
     1     1     2 1
     2     2     3 1
     3     2    11 1
     4     3     4 1
     5     4     5 1
     6     5    10 ar
     7     5     6 ar
     8     6     7 ar
     9     7     8 ar
    10     8     9 ar
    11     9    10 ar
    12    11    12 1
    13    12    17 ar
    14    12    13 ar
    15    13    14 ar
    16    14    15 ar
    17    15    16 ar
    18    15    18 1
    19    16    17 ar
    20    18    19 1
    21    19    20 1
    22    19    21 1

@<TRIPOS>MOLECULE
ZINC11115628_replica-1.pdb
 25 27 0 0 0
SMALL
GASTEIGER

@<TRIPOS>ATOM
       1  C1         -0.4920   25.2080   51.4040  C.3       1 <0>        -0.1072
       2  C2         -0.5710   26.3430   52.3930  C.ar      1 <0>        -0.1402
       3  C3         -1.2350   27.5070   52.0540  C.ar      1 <0>        -0.0769
       4  C4         -1.3090   28.5500   52.9570  C.ar      1 <0>        -0.1930
       5  C5         -0.7160   28.4270   54.2070  C.ar      1 <0>         0.2120
       6  C6         -0.0460   27.2570   54.5430  C.ar      1 <0>        -0.1530
       7  C7          0.0200   26.2170   53.6360  C.ar      1 <0>        -0.0727
       8  C8          0.6050   27.1220   55.8950  C.3       1 <0>        -0.1082
       9  N1         -0.7880   29.4790   55.1220  N.pl3     1 <0>        -0.7373
      10  C9         -0.1370   30.7570   54.8220  C.3       1 <0>         0.1076
      11  C10         0.8650   31.0770   55.9020  C.2       1 <0>         0.5155
      12  O1          0.8730   30.4360   56.9310  O.2       1 <0>        -0.5235
      13  N2          1.7540   32.0740   55.7220  N.am      1 <0>        -0.7214
      14  C11         2.7290   32.3840   56.7710  C.3       1 <0>         0.2785
      15  C12         2.0870   33.2700   57.8070  C.ar      1 <0>        -0.0960
      16  C13         2.3290   33.0500   59.1500  C.ar      1 <0>        -0.1080
      17  C14         1.7450   33.8660   60.1010  C.ar      1 <0>        -0.1137
      18  C15         0.9100   34.8960   59.7080  C.ar      1 <0>        -0.1117
      19  C16         0.6650   35.1130   58.3640  C.ar      1 <0>        -0.1143
      20  C17         1.2530   34.3000   57.4150  C.ar      1 <0>        -0.0995
      21  C18         3.9100   33.0940   56.1640  C.2       1 <0>        -0.1535
      22  C19         3.9440   33.9540   55.1160  C.2       1 <0>        -0.1403
      23  C20         5.1560   34.4950   54.7310  C.2       1 <0>        -0.1553
      24  C21         6.2770   34.1420   55.4060  C.2       1 <0>        -0.1710
      25  S1          5.6300   33.0210   56.6360  S.3       1 <0>         0.0432
@<TRIPOS>BOND
     1     1     2 1
     2     2     7 ar
     3     2     3 ar
     4     3     4 ar
     5     4     5 ar
     6     5     6 ar
     7     5     9 1
     8     6     7 ar
     9     6     8 1
    10     9    10 1
    11    10    11 1
    12    11    12 2
    13    11    13 am
    14    13    14 1
    15    14    15 1
    16    14    21 1
    17    15    20 ar
    18    15    16 ar
    19    16    17 ar
    20    17    18 ar
    21    18    19 ar
    22    19    20 ar
    23    21    25 1
    24    21    22 2
    25    22    23 1
    26    23    24 2
    27    24    25 1

@<TRIPOS>MOLECULE
ZINC40315122_replica-1.pdb
 30 32 0 0 0
SMALL
GASTEIGER

@<TRIPOS>ATOM
       1  C1         -0.5300   25.1820   51.6080  C.3       1 <0>        -0.1180
       2  C2         -0.4910   26.3100   52.6050  C.ar      1 <0>        -0.1131
       3  C3          0.1850   26.1520   53.8010  C.ar      1 <0>        -0.0772
       4  C4          0.2210   27.1850   54.7170  C.ar      1 <0>        -0.2106
       5  C5         -0.4210   28.3820   54.4360  C.ar      1 <0>         0.1162
       6  C6         -1.0980   28.5390   53.2360  C.ar      1 <0>        -0.1426
       7  C7         -1.1270   27.5040   52.3210  C.ar      1 <0>        -0.0422
       8  C8         -1.8580   27.6760   51.0150  C.3       1 <0>        -0.1227
       9  O1         -0.3860   29.4000   55.3360  O.3       1 <0>        -0.3026
      10  C9         -0.4280   30.7300   54.8140  C.3       1 <0>         0.0308
      11  C10         0.5770   31.6050   55.5670  C.3       1 <0>         0.0877
      12  C11        -0.1640   32.4600   56.5980  C.3       1 <0>        -0.0483
      13  N1          0.8110   33.1450   57.4560  N.4       1 <0>        -0.3735
      14  C12         0.9690   34.5350   57.0060  C.3       1 <0>         0.0384
      15  C13         2.3780   34.9940   57.2790  C.ar      1 <0>        -0.1650
      16  C14         3.4060   34.6090   56.4390  C.ar      1 <0>        -0.0949
      17  C15         4.6990   35.0290   56.6910  C.ar      1 <0>        -0.1157
      18  C16         4.9630   35.8360   57.7820  C.ar      1 <0>        -0.0346
      19  C17         3.9340   36.2220   58.6220  C.ar      1 <0>        -0.1095
      20  C18         2.6420   35.8050   58.3680  C.ar      1 <0>        -0.0837
      21  C19         6.3720   36.2950   58.0560  C.3       1 <0>        -0.0672
      22  C20         7.2520   35.0830   58.3700  C.3       1 <0>        -0.1471
      23  C21         6.9210   37.0170   56.8240  C.3       1 <0>        -0.1485
      24  C22         0.3340   33.1310   58.8470  C.3       1 <0>        -0.0282
      25  C23         1.3010   32.3170   59.7090  C.3       1 <0>         0.0540
      26  C24         1.9670   33.2340   60.7570  C.3       1 <0>        -0.1470
      27  C25         3.4260   32.7000   60.7820  C.3       1 <0>        -0.1566
      28  C26         3.6140   32.2900   59.3000  C.3       1 <0>         0.0495
      29  O2          2.3390   31.7680   58.8890  O.3       1 <0>        -0.3814
      30  O3          1.5280   30.7730   56.2340  O.3       1 <0>        -0.5417
@<TRIPOS>BOND
     1     1     2 1
     2     2     7 ar
     3     2     3 ar
     4     3     4 ar
     5     4     5 ar
     6     5     6 ar
     7     5     9 1
     8     6     7 ar
     9     7     8 1
    10     9    10 1
    11    10    11 1
    12    11    12 1
    13    11    30 1
    14    12    13 1
    15    13    14 1
    16    13    24 1
    17    14    15 1
    18    15    20 ar
    19    15    16 ar
    20    16    17 ar
    21    17    18 ar
    22    18    19 ar
    23    18    21 1
    24    19    20 ar
    25    21    22 1
    26    21    23 1
    27    24    25 1
    28    25    29 1
    29    25    26 1
    30    26    27 1
    31    27    28 1
    32    28    29 1

@<TRIPOS>MOLECULE
ZINC32188370_replica-1.pdb
 22 23 0 0 0
SMALL
GASTEIGER

@<TRIPOS>ATOM
       1  C1         -0.7720   24.9500   51.6510  C.3       1 <0>        -0.1462
       2  C2         -0.5690   26.4660   51.6320  C.3       1 <0>        -0.0539
       3  C3         -1.8060   27.1390   51.0330  C.3       1 <0>        -0.1464
       4  C4         -0.3600   26.9620   53.0400  C.ar      1 <0>        -0.1139
       5  C5         -0.8290   28.2100   53.4080  C.ar      1 <0>        -0.0776
       6  C6         -0.6390   28.6670   54.6980  C.ar      1 <0>        -0.1478
       7  C7          0.0210   27.8730   55.6240  C.ar      1 <0>         0.1252
       8  C8          0.4900   26.6210   55.2520  C.ar      1 <0>        -0.2073
       9  C9          0.2980   26.1690   53.9600  C.ar      1 <0>        -0.0741
      10  O1          0.2090   28.3200   56.8940  O.3       1 <0>        -0.3051
      11  C10        -0.5080   29.4960   57.2800  C.3       1 <0>         0.0687
      12  C11         0.4850   30.5900   57.6770  C.3       1 <0>         0.1107
      13  C12         0.5380   31.6530   56.5780  C.3       1 <0>         0.1006
      14  N1         -0.1660   32.8560   57.0280  N.pl3     1 <0>        -0.7546
      15  C13         0.5530   33.9280   57.5650  C.ar      1 <0>         0.1943
      16  C14         1.1280   34.8710   56.7230  C.ar      1 <0>        -0.1776
      17  C15         1.8350   35.9320   57.2570  C.ar      1 <0>        -0.0784
      18  C16         1.9780   36.0510   58.6260  C.ar      1 <0>        -0.1515
      19  C17         1.4100   35.1120   59.4690  C.ar      1 <0>        -0.1047
      20  C18         0.6990   34.0500   58.9420  C.ar      1 <0>         0.0177
      21  F1          0.1460   33.1320   59.7650  F         1 <0>        -0.1444
      22  O2          1.7820   30.0170   57.8480  O.3       1 <0>        -0.5831
@<TRIPOS>BOND
     1     1     2 1
     2     2     3 1
     3     2     4 1
     4     4     9 ar
     5     4     5 ar
     6     5     6 ar
     7     6     7 ar
     8     7     8 ar
     9     7    10 1
    10     8     9 ar
    11    10    11 1
    12    11    12 1
    13    12    13 1
    14    12    22 1
    15    13    14 1
    16    14    15 1
    17    15    20 ar
    18    15    16 ar
    19    16    17 ar
    20    17    18 ar
    21    18    19 ar
    22    19    20 ar
    23    20    21 1

@<TRIPOS>MOLECULE
ZINC03999297_replica-1.pdb
 29 31 0 0 0
SMALL
GASTEIGER

@<TRIPOS>ATOM
       1  C1          1.0490   27.3030   58.7540  C.3       1 <0>        -0.1804
       2  C2         -0.2400   26.5720   58.3720  C.3       1 <0>         0.1120
       3  C3         -0.5580   26.8350   56.8980  C.3       1 <0>        -0.1477
       4  C4         -0.7950   28.3350   56.6940  C.3       1 <0>        -0.0837
       5  C5         -1.9250   28.7920   57.6230  C.3       1 <0>        -0.1804
       6  C6         -1.5540   28.4540   59.0690  C.3       1 <0>         0.0597
       7  O1         -1.3160   27.0500   59.1830  O.3       1 <0>        -0.3665
       8  C7         -1.1920   28.5980   55.2400  C.3       1 <0>        -0.0729
       9  C8         -1.6030   30.0630   55.0810  C.3       1 <0>        -0.1482
      10  C9         -0.4480   30.8530   54.4640  C.3       1 <0>        -0.0112
      11  C10         1.0570   31.9610   56.0040  C.3       1 <0>         0.0600
      12  C11         0.8080   32.2560   57.4600  C.ar      1 <0>        -0.2395
      13  C12         0.5810   33.5560   57.8710  C.ar      1 <0>        -0.0381
      14  C13         0.3460   33.8300   59.2040  C.ar      1 <0>        -0.2010
      15  C14         0.3480   32.7990   60.1350  C.ar      1 <0>         0.2519
      16  C15         0.5830   31.4940   59.7190  C.ar      1 <0>        -0.2011
      17  C16         0.8110   31.2270   58.3840  C.ar      1 <0>        -0.0381
      18  N1          0.1160   33.0730   61.4840  N.pl3     1 <0>        -0.6228
      19  C17        -0.3540   34.3980   61.8930  C.3       1 <0>         0.0813
      20  C18         0.3410   32.0330   62.4910  C.3       1 <0>         0.0813
      21  C19        -0.0020   28.3000   54.3250  C.3       1 <0>        -0.0812
      22  C20        -0.4360   27.3730   53.2200  C.ar      1 <0>        -0.0829
      23  C21        -1.2230   27.8490   52.1880  C.ar      1 <0>        -0.1109
      24  C22        -1.6180   26.9990   51.1710  C.ar      1 <0>        -0.1125
      25  C23        -1.2340   25.6710   51.1920  C.ar      1 <0>        -0.1181
      26  C24        -0.4510   25.1950   52.2270  C.ar      1 <0>        -0.1152
      27  C25        -0.0530   26.0450   53.2420  C.ar      1 <0>        -0.1219
      28  C26        -0.0600   25.0690   58.5960  C.3       1 <0>        -0.1432
      29  N2         -0.2130   32.0700   55.2630  N.4       1 <0>        -0.5189
@<TRIPOS>BOND
     1     1     2 1
     2     2     7 1
     3     2     3 1
     4     2    28 1
     5     3     4 1
     6     4     5 1
     7     4     8 1
     8     5     6 1
     9     6     7 1
    10     8     9 1
    11     8    21 1
    12     9    10 1
    13    10    29 1
    14    11    12 1
    15    11    29 1
    16    12    17 ar
    17    12    13 ar
    18    13    14 ar
    19    14    15 ar
    20    15    16 ar
    21    15    18 1
    22    16    17 ar
    23    18    19 1
    24    18    20 1
    25    21    22 1
    26    22    27 ar
    27    22    23 ar
    28    23    24 ar
    29    24    25 ar
    30    25    26 ar
    31    26    27 ar

@<TRIPOS>MOLECULE
ZINC45901646_replica-1.pdb
 25 27 0 0 0
SMALL
GASTEIGER

@<TRIPOS>ATOM
       1  C1          8.4930   38.7350   57.6280  C.3       1 <0>        -0.1571
       2  C2          8.6280   37.2470   57.2980  C.3       1 <0>        -0.1199
       3  C3          8.2710   36.4170   58.5320  C.3       1 <0>         0.0781
       4  C4          7.0960   35.4940   58.2030  C.3       1 <0>        -0.1733
       5  O1          9.3990   35.6310   58.9210  O.3       1 <0>        -0.3119
       6  C5          9.9230   35.8730   60.1390  C.2       1 <0>         0.5404
       7  O2          9.8700   36.9900   60.6120  O.2       1 <0>        -0.5036
       8  C6         10.5600   34.7760   60.9000  C.ar      1 <0>         0.0197
       9  C7          9.8410   33.5850   61.1530  C.ar      1 <0>         0.4137
      10  N1         10.3990   32.6000   61.8330  N.ar      1 <0>        -0.4897
      11  C8         11.6520   32.7320   62.2840  C.ar      1 <0>         0.1681
      12  C9         12.2700   31.6990   63.0090  C.ar      1 <0>        -0.1144
      13  C10        13.5460   31.8580   63.4570  C.ar      1 <0>        -0.0603
      14  C11        14.2540   33.0330   63.2080  C.ar      1 <0>        -0.1243
      15  C12        13.6900   34.0550   62.5100  C.ar      1 <0>        -0.0492
      16  C13        12.3720   33.9290   62.0280  C.ar      1 <0>         0.0233
      17  N2         11.7990   34.9150   61.3370  N.ar      1 <0>        -0.3242
      18  N3          8.5460   33.4510   60.6860  N.pl3     1 <0>        -0.6343
      19  C14         8.1540   32.2750   60.0380  C.ar      1 <0>         0.1419
      20  C15         8.4640   32.0820   58.6970  C.ar      1 <0>        -0.0828
      21  C16         8.0760   30.9210   58.0600  C.ar      1 <0>        -0.1328
      22  C17         7.3780   29.9470   58.7560  C.ar      1 <0>         0.0849
      23  C18         7.0680   30.1370   60.0920  C.ar      1 <0>        -0.1322
      24  C19         7.4590   31.2950   60.7350  C.ar      1 <0>        -0.1118
      25  F1          7.0000   28.8110   58.1300  F         1 <0>        -0.1390
@<TRIPOS>BOND
     1     1     2 1
     2     2     3 1
     3     3     4 1
     4     3     5 1
     5     5     6 1
     6     6     7 2
     7     6     8 1
     8     8    17 ar
     9     8     9 ar
    10     9    10 ar
    11     9    18 1
    12    10    11 ar
    13    11    16 ar
    14    11    12 ar
    15    12    13 ar
    16    13    14 ar
    17    14    15 ar
    18    15    16 ar
    19    16    17 ar
    20    18    19 1
    21    19    24 ar
    22    19    20 ar
    23    20    21 ar
    24    21    22 ar
    25    22    23 ar
    26    22    25 1
    27    23    24 ar

@<TRIPOS>MOLECULE
ZINC19673792_replica-1.pdb
 24 25 0 0 0
SMALL
GASTEIGER

@<TRIPOS>ATOM
      1  C9         0.8930   33.1150   56.4660 C.2     0  <0>0        0.1502
      2  N1         2.1760   32.8370   56.4320 N.pl3   0  <0>0       -0.1908
      3  S1        -0.2840   31.8180   56.6580 S.3     0  <0>0       -0.0767
      4  C8         0.1040   30.8210   55.1980 C.3     0  <0>0        0.1121
      5  C7        -1.0040   29.7910   54.9740 C.3     0  <0>0        0.2174
      6  O1        -1.2540   29.6580   53.5730 O.3     0  <0>0       -0.4745
      7  C6        -1.0760   28.4240   53.0300 C.ar    0  <0>0        0.1386
      8  C1        -1.6480   28.1130   51.8060 C.ar    0  <0>0        0.0378
      9  C2        -1.4620   26.8610   51.2550 C.ar    0  <0>0        0.0145
     10  C3        -0.7140   25.9110   51.9290 C.ar    0  <0>0        0.0579
     11  C4        -0.1460   26.2180   53.1530 C.ar    0  <0>0        0.0145
     12 Cl         -0.4870   24.3360   51.2380 Cl      0  <0>0       -0.0822
     13  C5        -0.3250   27.4720   53.7050 C.ar    0  <0>0        0.0378
     14  N2         0.4690   34.4160   56.3500 N.2     0  <0>0       -0.3801
     15  H12       -0.2300   34.8350   57.0900 H       0  <0>0        0.1576
     16  H13        0.8280   35.0400   55.5180 H       0  <0>0        0.1576
     17  C10        3.0960   33.8520   56.4000 C.ar    0  <0>0        0.0735
     18  C15        3.4980   34.4710   57.5850 C.ar    0  <0>0        0.0302
     19  C14        4.4290   35.4900   57.5470 C.ar    0  <0>0        0.0863
     20  C13        4.9570   35.9050   56.3340 C.ar    0  <0>0        0.1507
     21 Cl          4.9350   36.2570   59.0190 Cl      0  <0>0       -0.0799
     22  C12        4.5570   35.2970   55.1550 C.ar    0  <0>0        0.0318
     23  F1         5.8650   36.9050   56.3020 F       0  <0>0       -0.2033
     24  C11        3.6320   34.2750   55.1810 C.ar    0  <0>0        0.0189
@<TRIPOS>BOND
     1    12    10    1
     2     9     8   ar
     3     9    10   ar
     4     8     7   ar
     5    10    11   ar
     6     7     6    1
     7     7    13   ar
     8    11    13   ar
     9     6     5    1
    10     5     4    1
    11    22    24   ar
    12    22    20   ar
    13    24    17   ar
    14     4     3    1
    15    16    14    1
    16    23    20    1
    17    20    19   ar
    18    14     1    2
    19    14    15    1
    20    17     2    1
    21    17    18   ar
    22     2     1    1
    23     1     3    1
    24    19    18   ar
    25    19    21    1


@<TRIPOS>MOLECULE
ZINC66183432_replica-1.pdb
 19 20 0 0 0
SMALL
GASTEIGER

@<TRIPOS>ATOM
       1  C1          0.7710   25.3290   54.8420  C.3       1 <0>        -0.1165
       2  C2          0.0150   26.0820   53.7780  C.ar      1 <0>        -0.0445
       3  C3         -0.2940   25.4610   52.5810  C.ar      1 <0>        -0.1728
       4  C4         -0.9870   26.1490   51.6010  C.ar      1 <0>        -0.0701
       5  C5         -1.3740   27.4570   51.8150  C.ar      1 <0>        -0.1657
       6  C6         -1.0670   28.0820   53.0170  C.ar      1 <0>         0.2180
       7  C7         -0.3740   27.3870   54.0010  C.ar      1 <0>        -0.1942
       8  N1         -1.4570   29.4050   53.2370  N.pl3     1 <0>        -0.7466
       9  C8         -0.6670   30.2640   54.1210  C.3       1 <0>         0.1167
      10  C9         -1.5910   30.9380   55.1380  C.3       1 <0>         0.1149
      11  N2         -1.1340   30.6270   56.4950  N.pl3     1 <0>        -0.7441
      12  C10        -1.2460   29.3230   56.9890  C.ar      1 <0>         0.2066
      13  C11        -0.1070   28.6250   57.3710  C.ar      1 <0>        -0.1697
      14  C12        -0.2210   27.3380   57.8600  C.ar      1 <0>        -0.1035
      15  C13        -1.4660   26.7440   57.9670  C.ar      1 <0>         0.0387
      16  C14        -2.6030   27.4390   57.5860  C.ar      1 <0>        -0.1032
      17  C15        -2.4950   28.7280   57.1030  C.ar      1 <0>        -0.1652
      18  F1         -1.5740   25.4850   58.4450  F         1 <0>        -0.1451
      19  C16        -2.1300   28.2040   50.7470  C.3       1 <0>        -0.1057
@<TRIPOS>BOND
     1     1     2 1
     2     2     7 ar
     3     2     3 ar
     4     3     4 ar
     5     4     5 ar
     6     5     6 ar
     7     5    19 1
     8     6     7 ar
     9     6     8 1
    10     8     9 1
    11     9    10 1
    12    10    11 1
    13    11    12 1
    14    12    17 ar
    15    12    13 ar
    16    13    14 ar
    17    14    15 ar
    18    15    16 ar
    19    15    18 1
    20    16    17 ar

@<TRIPOS>MOLECULE
ZINC58661199_replica-1.pdb
 21 22 0 0 0
SMALL
GASTEIGER

@<TRIPOS>ATOM
       1  C1         12.6820   30.1300   64.6520  C.3       1 <0>        -0.1856
       2  C2         13.0540   30.8380   63.3470  C.3       1 <0>        -0.0134
       3  N1         13.1760   32.2810   63.5920  N.4       1 <0>        -0.2570
       4  C3         14.5420   32.7180   63.2780  C.3       1 <0>        -0.0174
       5  C4         15.1950   33.2950   64.5360  C.3       1 <0>        -0.1658
       6  C5         12.2680   32.9700   62.7810  C.ar      1 <0>        -0.3052
       7  C6         12.5450   34.2650   62.3830  C.ar      1 <0>        -0.1360
       8  C7         11.6520   34.9490   61.5820  C.ar      1 <0>        -0.1256
       9  C8         10.4730   34.3340   61.1760  C.ar      1 <0>         0.0108
      10  C9         10.1980   33.0330   61.5780  C.ar      1 <0>        -0.1296
      11  C10        11.1000   32.3530   62.3750  C.ar      1 <0>        -0.1371
      12  N2          9.5670   35.0220   60.3680  N.pl3     1 <0>        -0.7382
      13  C11         9.5090   36.4850   60.4120  C.3       1 <0>         0.2028
      14  C12         8.6090   36.9260   61.5690  C.3       1 <0>        -0.1629
      15  C13         8.9480   37.0050   59.1130  C.ar      1 <0>        -0.0934
      16  C14         8.6130   38.3420   58.9910  C.ar      1 <0>        -0.0838
      17  C15         8.0990   38.8190   57.8000  C.ar      1 <0>        -0.1507
      18  C16         7.9190   37.9600   56.7300  C.ar      1 <0>         0.0919
      19  C17         8.2550   36.6220   56.8540  C.ar      1 <0>        -0.1503
      20  C18         8.7730   36.1470   58.0420  C.ar      1 <0>        -0.0841
      21  F1          7.4170   38.4260   55.5650  F         1 <0>        -0.1411
@<TRIPOS>BOND
     1     1     2 1
     2     2     3 1
     3     3     4 1
     4     3     6 1
     5     4     5 1
     6     6    11 ar
     7     6     7 ar
     8     7     8 ar
     9     8     9 ar
    10     9    10 ar
    11     9    12 1
    12    10    11 ar
    13    12    13 1
    14    13    14 1
    15    13    15 1
    16    15    20 ar
    17    15    16 ar
    18    16    17 ar
    19    17    18 ar
    20    18    19 ar
    21    18    21 1
    22    19    20 ar

@<TRIPOS>MOLECULE
ZINC20891774_replica-1.pdb
 26 29 0 0 0
SMALL
GASTEIGER

@<TRIPOS>ATOM
       1  C1         11.8200   35.9860   62.8170  C.3       1 <0>        -0.1214
       2  C2         10.9300   35.8970   61.6050  C.ar      1 <0>        -0.0746
       3  C3         11.1150   34.8820   60.6840  C.ar      1 <0>        -0.1196
       4  C4         10.3030   34.8050   59.5680  C.ar      1 <0>        -0.0934
       5  C5          9.2990   35.7370   59.3780  C.ar      1 <0>        -0.0676
       6  C6          9.1140   36.7520   60.2970  C.ar      1 <0>        -0.0967
       7  C7          9.9300   36.8320   61.4100  C.ar      1 <0>        -0.1194
       8  C8          8.4110   35.6500   58.1630  C.3       1 <0>         0.0464
       9  C9          7.0810   35.1040   58.5790  C.2       1 <0>        -0.2481
      10  C10         6.9310   34.2930   59.7250  C.2       1 <0>         0.1271
      11  N1          5.6770   33.9640   59.8450  N.2       1 <0>        -0.2636
      12  N2          4.9710   34.5440   58.7910  N.pl3     1 <0>        -0.3524
      13  C11         5.8620   35.2500   58.0140  C.2       1 <0>         0.3550
      14  N3          5.4460   35.9270   56.8940  N.am      1 <0>        -0.6488
      15  C12         6.0240   36.6900   56.0150  C.2       1 <0>         0.5371
      16  O1          5.2730   37.1950   55.2060  O.2       1 <0>        -0.5288
      17  C13         7.4490   37.0420   55.8450  C.3       1 <0>        -0.1345
      18  S1          8.3060   37.2760   57.4080  S.3       1 <0>        -0.1554
      19  C14         3.5920   34.4280   58.5630  C.ar      1 <0>         0.1416
      20  C15         2.7320   35.4370   58.9770  C.ar      1 <0>        -0.0737
      21  C16         1.3750   35.3230   58.7460  C.ar      1 <0>        -0.1282
      22  C17         0.8710   34.2000   58.1120  C.ar      1 <0>         0.1053
      23  C18         1.7270   33.1900   57.7040  C.ar      1 <0>        -0.1241
      24  C19         3.0850   33.3020   57.9280  C.ar      1 <0>        -0.1173
      25  F1         -0.4570   34.0880   57.8920  F         1 <0>        -0.1297
      26  C20         8.0400   33.8760   60.6550  C.3       1 <0>        -0.0969
@<TRIPOS>BOND
     1     1     2 1
     2     2     7 ar
     3     2     3 ar
     4     3     4 ar
     5     4     5 ar
     6     5     6 ar
     7     5     8 1
     8     6     7 ar
     9     8    18 1
    10     8     9 1
    11     9    13 2
    12     9    10 1
    13    10    11 2
    14    10    26 1
    15    11    12 1
    16    12    13 1
    17    12    19 1
    18    13    14 1
    19    14    15 am
    20    15    16 2
    21    15    17 1
    22    17    18 1
    23    19    24 ar
    24    19    20 ar
    25    20    21 ar
    26    21    22 ar
    27    22    23 ar
    28    22    25 1
    29    23    24 ar

@<TRIPOS>MOLECULE
ZINC66154577_replica-1.pdb
 24 25 0 0 0
SMALL
GASTEIGER

@<TRIPOS>ATOM
       1  C1          1.4210   32.8220   61.5300  C.3       1 <0>        -0.1668
       2  C2          1.9240   33.7980   60.4650  C.3       1 <0>        -0.0157
       3  N1          3.3880   33.8960   60.5420  N.4       1 <0>        -0.2595
       4  C3          3.9580   32.5590   60.7560  C.3       1 <0>        -0.0119
       5  C4          5.2930   32.6870   61.4920  C.3       1 <0>        -0.1632
       6  C5          3.8820   34.4280   59.3470  C.ar      1 <0>        -0.3015
       7  C6          4.6130   35.6010   59.3650  C.ar      1 <0>        -0.1374
       8  C7          5.1030   36.1290   58.1870  C.ar      1 <0>        -0.1237
       9  C8          4.8610   35.4800   56.9830  C.ar      1 <0>         0.0088
      10  C9          4.1260   34.3010   56.9690  C.ar      1 <0>        -0.1310
      11  C10         3.6440   33.7750   58.1520  C.ar      1 <0>        -0.1352
      12  N2          5.3550   36.0110   55.7890  N.pl3     1 <0>        -0.7419
      13  C11         6.4860   35.3690   55.1150  C.3       1 <0>         0.1451
      14  C12         7.6200   36.3830   54.9440  C.3       1 <0>         0.0487
      15  O1          8.5970   36.1820   55.9670  O.3       1 <0>        -0.3044
      16  C13         8.4800   36.9410   57.0880  C.ar      1 <0>         0.1316
      17  C14         8.0060   38.2430   57.0010  C.ar      1 <0>        -0.2084
      18  C15         7.8880   39.0110   58.1410  C.ar      1 <0>        -0.0855
      19  C16         8.2430   38.4860   59.3700  C.ar      1 <0>        -0.1572
      20  C17         8.7170   37.1900   59.4600  C.ar      1 <0>        -0.0794
      21  C18         8.8310   36.4150   58.3230  C.ar      1 <0>        -0.1059
      22  C19         9.3410   35.0010   58.4220  C.3       1 <0>        -0.0522
      23  C20        10.2640   34.8750   59.6370  C.3       1 <0>        -0.1421
      24  C21         8.1590   34.0420   58.5790  C.3       1 <0>        -0.1416
@<TRIPOS>BOND
     1     1     2 1
     2     2     3 1
     3     3     4 1
     4     3     6 1
     5     4     5 1
     6     6    11 ar
     7     6     7 ar
     8     7     8 ar
     9     8     9 ar
    10     9    10 ar
    11     9    12 1
    12    10    11 ar
    13    12    13 1
    14    13    14 1
    15    14    15 1
    16    15    16 1
    17    16    21 ar
    18    16    17 ar
    19    17    18 ar
    20    18    19 ar
    21    19    20 ar
    22    20    21 ar
    23    21    22 1
    24    22    23 1
    25    22    24 1

@<TRIPOS>MOLECULE
ZINC40315428_replica-1.pdb
 30 32 0 0 0
SMALL
GASTEIGER

@<TRIPOS>ATOM
       1  C1          2.8200   33.6590   56.1710  C.3       1 <0>        -0.1225
       2  C2          4.3240   33.7170   56.2260  C.ar      1 <0>        -0.0450
       3  C3          5.0420   32.6170   56.6600  C.ar      1 <0>        -0.1454
       4  C4          6.4230   32.6670   56.7130  C.ar      1 <0>        -0.0818
       5  C5          7.0890   33.8150   56.3280  C.ar      1 <0>        -0.2120
       6  C6          6.3710   34.9190   55.8910  C.ar      1 <0>         0.1204
       7  C7          4.9860   34.8640   55.8350  C.ar      1 <0>        -0.1102
       8  C8          4.2020   36.0590   55.3540  C.3       1 <0>        -0.1085
       9  O1          7.0240   36.0500   55.5140  O.3       1 <0>        -0.2983
      10  C9          8.2520   36.3430   56.1810  C.3       1 <0>         0.0319
      11  C10         8.2680   37.8160   56.5950  C.3       1 <0>         0.0914
      12  C11         7.3360   38.0200   57.7910  C.3       1 <0>        -0.0471
      13  N1          7.7400   37.1270   58.8850  N.4       1 <0>        -0.3724
      14  C12         8.7790   37.7820   59.6920  C.3       1 <0>         0.0175
      15  C13         9.6660   36.7330   60.3140  C.ar      1 <0>        -0.1619
      16  C14         9.8690   35.5290   59.6660  C.ar      1 <0>        -0.0973
      17  C15        10.6810   34.5660   60.2360  C.ar      1 <0>        -0.1160
      18  C16        11.2910   34.8080   61.4530  C.ar      1 <0>        -0.0362
      19  C17        11.0880   36.0140   62.1000  C.ar      1 <0>        -0.1100
      20  C18        10.2790   36.9770   61.5280  C.ar      1 <0>        -0.0849
      21  C19        12.1760   33.7590   62.0750  C.3       1 <0>        -0.0671
      22  C20        12.8860   34.3500   63.2950  C.3       1 <0>        -0.1469
      23  C21        11.3240   32.5650   62.5100  C.3       1 <0>        -0.1484
      24  C22         6.5760   36.8320   59.7320  C.3       1 <0>        -0.0300
      25  C23         5.9780   35.4830   59.3260  C.3       1 <0>         0.0534
      26  C24         4.4380   35.5460   59.4120  C.3       1 <0>        -0.1470
      27  C25         4.0850   34.1460   59.9870  C.3       1 <0>        -0.1567
      28  C26         5.2980   33.8940   60.9170  C.3       1 <0>         0.0496
      29  O2          6.4250   34.4640   60.2270  O.3       1 <0>        -0.3824
      30  O3          7.8240   38.6230   55.5030  O.3       1 <0>        -0.5371
@<TRIPOS>BOND
     1     1     2 1
     2     2     7 ar
     3     2     3 ar
     4     3     4 ar
     5     4     5 ar
     6     5     6 ar
     7     6     7 ar
     8     6     9 1
     9     7     8 1
    10     9    10 1
    11    10    11 1
    12    11    12 1
    13    11    30 1
    14    12    13 1
    15    13    14 1
    16    13    24 1
    17    14    15 1
    18    15    20 ar
    19    15    16 ar
    20    16    17 ar
    21    17    18 ar
    22    18    19 ar
    23    18    21 1
    24    19    20 ar
    25    21    22 1
    26    21    23 1
    27    24    25 1
    28    25    29 1
    29    25    26 1
    30    26    27 1
    31    27    28 1
    32    28    29 1

@<TRIPOS>MOLECULE
ZINC36919591_replica-1.pdb
 20 21 0 0 0
SMALL
GASTEIGER

@<TRIPOS>ATOM
       1  C1         -2.6580   30.5530   53.7410  C.3       1 <0>        -0.1517
       2  C2         -2.0500   29.4270   54.5800  C.3       1 <0>        -0.1260
       3  C3         -0.6190   29.1580   54.1100  C.3       1 <0>         0.1924
       4  C4         -0.5580   27.8140   53.4300  C.ar      1 <0>        -0.1029
       5  C5         -1.1660   27.6330   52.2020  C.ar      1 <0>        -0.0996
       6  C6         -1.1110   26.4000   51.5790  C.ar      1 <0>        -0.1199
       7  C7         -0.4480   25.3490   52.1830  C.ar      1 <0>        -0.1190
       8  C8          0.1600   25.5300   53.4120  C.ar      1 <0>        -0.1177
       9  C9          0.1090   26.7630   54.0330  C.ar      1 <0>        -0.1137
      10  N1          0.2830   29.1620   55.2640  N.pl3     1 <0>        -0.7352
      11  C10         0.3360   30.2800   56.1060  C.ar      1 <0>         0.2279
      12  C11         0.0940   30.1370   57.4660  C.ar      1 <0>        -0.1770
      13  C12         0.1460   31.2390   58.2970  C.ar      1 <0>        -0.0394
      14  C13         0.4420   32.4910   57.7710  C.ar      1 <0>        -0.1506
      15  C14         0.6850   32.6330   56.4110  C.ar      1 <0>        -0.0699
      16  C15         0.6370   31.5310   55.5810  C.ar      1 <0>        -0.1754
      17  S1          0.5090   33.8970   58.8310  S.3       1 <0>        -0.1074
      18  C16         1.1280   35.2240   57.7600  C.3       1 <0>         0.2735
      19  F1          0.0530   35.8420   57.1140  F         1 <0>        -0.1819
      20  F2          1.8130   36.1660   58.5340  F         1 <0>        -0.1820
@<TRIPOS>BOND
     1     1     2 1
     2     2     3 1
     3     3     4 1
     4     3    10 1
     5     4     9 ar
     6     4     5 ar
     7     5     6 ar
     8     6     7 ar
     9     7     8 ar
    10     8     9 ar
    11    10    11 1
    12    11    16 ar
    13    11    12 ar
    14    12    13 ar
    15    13    14 ar
    16    14    15 ar
    17    14    17 1
    18    15    16 ar
    19    17    18 1
    20    18    19 1
    21    18    20 1

@<TRIPOS>MOLECULE
ZINC14456490_replica-1.pdb
 31 35 0 0 0
SMALL
GASTEIGER

@<TRIPOS>ATOM
       1  C1         -0.6790   24.5950   51.3380  C.3       1 <0>        -0.1145
       2  C2         -0.6850   25.9080   52.0760  C.ar      1 <0>        -0.0959
       3  C3         -1.3780   26.9870   51.5580  C.ar      1 <0>        -0.0956
       4  C4         -1.3900   28.1910   52.2340  C.ar      1 <0>        -0.1653
       5  C5         -0.6980   28.3210   53.4320  C.ar      1 <0>         0.1502
       6  C6         -0.0040   27.2350   53.9500  C.ar      1 <0>        -0.0983
       7  C7          0.0010   26.0320   53.2700  C.ar      1 <0>        -0.0990
       8  C8          0.7440   27.3680   55.2510  C.3       1 <0>        -0.1135
       9  N1         -0.7050   29.5380   54.1160  N.pl3     1 <0>        -1.0545
      10  S1         -1.8590   29.8350   55.2660  S.o2      1 <0>         2.6914
      11  O1         -2.3830   28.5710   55.6500  O.2       1 <0>        -0.9516
      12  O2         -2.6820   30.8760   54.7570  O.2       1 <0>        -0.9543
      13  C9         -1.0340   30.4890   56.6770  C.ar      1 <0>        -0.7169
      14  C10        -0.6880   29.6520   57.7230  C.ar      1 <0>         0.0203
      15  C11        -0.0420   30.1680   58.8270  C.ar      1 <0>        -0.1986
      16  C12         0.2600   31.5220   58.8860  C.ar      1 <0>         0.2697
      17  C13        -0.0840   32.3660   57.8410  C.ar      1 <0>        -0.1509
      18  C14        -0.7340   31.8350   56.7350  C.ar      1 <0>         0.0312
      19  C15         0.2210   33.8300   57.8610  C.3       1 <0>        -0.0132
      20  C16         1.3790   34.1640   56.9500  C.2       1 <0>        -0.1488
      21  C17         2.1090   35.1170   57.4750  C.2       1 <0>        -0.1675
      22  C18         1.5330   35.5530   58.8090  C.3       1 <0>        -0.0893
      23  C19         0.6700   34.3330   59.2460  C.3       1 <0>        -0.0988
      24  C20         1.6140   33.3150   59.8910  C.3       1 <0>         0.2454
      25  N2          0.9160   32.0300   60.0130  N.pl3     1 <0>        -0.7377
      26  C21         2.8380   33.1450   59.0290  C.2       1 <0>        -0.1594
      27  C22         3.1130   32.1810   58.1170  C.2       1 <0>        -0.1383
      28  C23         4.3120   32.2270   57.4310  C.2       1 <0>        -0.1673
      29  C24         5.1830   33.2310   57.7000  C.2       1 <0>        -0.1550
      30  S2          4.3070   34.1580   58.9480  S.3       1 <0>         0.0813
      31  C25         6.5400   33.4950   57.0990  C.3       1 <0>        -0.0724
@<TRIPOS>BOND
     1     1     2 1
     2     2     7 ar
     3     2     3 ar
     4     3     4 ar
     5     4     5 ar
     6     5     6 ar
     7     5     9 1
     8     6     7 ar
     9     6     8 1
    10     9    10 1
    11    10    11 2
    12    10    12 2
    13    10    13 1
    14    13    18 ar
    15    13    14 ar
    16    14    15 ar
    17    15    16 ar
    18    16    25 1
    19    16    17 ar
    20    17    18 ar
    21    17    19 1
    22    19    23 1
    23    19    20 1
    24    20    21 2
    25    21    22 1
    26    22    23 1
    27    23    24 1
    28    24    25 1
    29    24    26 1
    30    26    30 1
    31    26    27 2
    32    27    28 1
    33    28    29 2
    34    29    30 1
    35    29    31 1

@<TRIPOS>MOLECULE
ZINC32183505_replica-1.pdb
 22 23 0 0 0
SMALL
GASTEIGER

@<TRIPOS>ATOM
       1  C1         -0.5850   30.9690   63.5370  C.3       1 <0>        -0.1190
       2  C2         -0.1110   31.6640   62.2860  C.ar      1 <0>        -0.0379
       3  C3          0.0590   33.0350   62.2800  C.ar      1 <0>        -0.1828
       4  C4          0.5000   33.6750   61.1360  C.ar      1 <0>        -0.0678
       5  C5          0.7660   32.9460   59.9940  C.ar      1 <0>        -0.2103
       6  C6          0.5900   31.5690   59.9950  C.ar      1 <0>         0.2255
       7  C7          0.1470   30.9280   61.1460  C.ar      1 <0>        -0.1985
       8  N1          0.8590   30.8280   58.8410  N.pl3     1 <0>        -0.7514
       9  C8          0.8260   31.4780   57.5290  C.3       1 <0>         0.1396
      10  C9         -0.6100   31.4870   57.0000  C.3       1 <0>         0.1144
      11  C10        -1.1280   30.0510   56.9080  C.3       1 <0>         0.0282
      12  O1         -0.0600   29.1810   56.5320  O.3       1 <0>        -0.3167
      13  C11        -0.1940   28.5090   55.3580  C.ar      1 <0>         0.1239
      14  C12         0.4730   27.3090   55.1640  C.ar      1 <0>        -0.2042
      15  C13         0.3310   26.6260   53.9720  C.ar      1 <0>        -0.0745
      16  C14        -0.4650   27.1450   52.9670  C.ar      1 <0>        -0.1113
      17  C15        -1.1270   28.3440   53.1560  C.ar      1 <0>        -0.0785
      18  C16        -0.9930   29.0280   54.3490  C.ar      1 <0>        -0.1476
      19  C17        -0.6140   26.4010   51.6650  C.3       1 <0>        -0.0544
      20  C18        -0.7340   24.9030   51.9450  C.3       1 <0>        -0.1466
      21  C19        -1.8700   26.8890   50.9400  C.3       1 <0>        -0.1466
      22  O2         -0.6360   32.0870   55.7030  O.3       1 <0>        -0.5911
@<TRIPOS>BOND
     1     1     2 1
     2     2     7 ar
     3     2     3 ar
     4     3     4 ar
     5     4     5 ar
     6     5     6 ar
     7     6     7 ar
     8     6     8 1
     9     8     9 1
    10     9    10 1
    11    10    11 1
    12    10    22 1
    13    11    12 1
    14    12    13 1
    15    13    18 ar
    16    13    14 ar
    17    14    15 ar
    18    15    16 ar
    19    16    17 ar
    20    16    19 1
    21    17    18 ar
    22    19    20 1
    23    19    21 1

@<TRIPOS>MOLECULE
ZINC40315908_replica-1.pdb
 30 32 0 0 0
SMALL
GASTEIGER

@<TRIPOS>ATOM
       1  C1         -0.7660   25.1040   51.7670  C.3       1 <0>        -0.1469
       2  C2         -0.6880   26.6200   51.5770  C.3       1 <0>        -0.0567
       3  C3         -1.9330   27.1050   50.8300  C.3       1 <0>        -0.1468
       4  C4         -0.6170   27.2930   52.9230  C.ar      1 <0>        -0.1004
       5  C5         -1.3410   28.4460   53.1580  C.ar      1 <0>        -0.0727
       6  C6         -1.2770   29.0650   54.3920  C.ar      1 <0>        -0.1405
       7  C7         -0.4850   28.5270   55.3950  C.ar      1 <0>         0.1129
       8  C8          0.2410   27.3680   55.1580  C.ar      1 <0>        -0.2049
       9  C9          0.1690   26.7510   53.9240  C.ar      1 <0>        -0.0787
      10  O1         -0.4190   29.1340   56.6100  O.3       1 <0>        -0.3026
      11  C10        -1.2780   30.2550   56.8220  C.3       1 <0>         0.0315
      12  C11        -0.5380   31.3180   57.6360  C.3       1 <0>         0.0864
      13  C12         0.8870   30.8390   57.9240  C.3       1 <0>        -0.0476
      14  N1          1.6290   31.9000   58.6190  N.4       1 <0>        -0.3798
      15  C13         2.8520   32.2150   57.8690  C.3       1 <0>         0.0523
      16  C14         3.3400   33.5860   58.2580  C.ar      1 <0>        -0.1936
      17  C15         4.5120   33.7240   58.9770  C.ar      1 <0>        -0.0577
      18  C16         4.9610   34.9810   59.3360  C.ar      1 <0>        -0.1494
      19  C17         4.2390   36.1040   58.9750  C.ar      1 <0>        -0.0445
      20  C18         3.0680   35.9720   58.2550  C.ar      1 <0>        -0.2009
      21  C19         2.6180   34.7110   57.8900  C.ar      1 <0>         0.1501
      22  O2          1.4690   34.5800   57.1770  O.3       1 <0>        -0.3255
      23  C20         0.6470   35.7410   57.0500  C.3       1 <0>         0.0239
      24  C21         1.9860   31.4430   59.9690  C.3       1 <0>         0.0841
      25  C22         1.0820   32.1030   60.9780  C.2       1 <0>        -0.1066
      26  C23         0.8800   33.4270   61.1070  C.2       1 <0>        -0.1312
      27  C24        -0.0370   33.5990   62.1690  C.2       1 <0>        -0.2178
      28  C25        -0.3420   32.3710   62.6240  C.2       1 <0>         0.0139
      29  O3          0.3340   31.4680   61.8950  O.3       1 <0>        -0.1701
      30  O4         -0.4890   32.5380   56.8940  O.3       1 <0>        -0.5406
@<TRIPOS>BOND
     1     1     2 1
     2     2     3 1
     3     2     4 1
     4     4     9 ar
     5     4     5 ar
     6     5     6 ar
     7     6     7 ar
     8     7     8 ar
     9     7    10 1
    10     8     9 ar
    11    10    11 1
    12    11    12 1
    13    12    13 1
    14    12    30 1
    15    13    14 1
    16    14    15 1
    17    14    24 1
    18    15    16 1
    19    16    21 ar
    20    16    17 ar
    21    17    18 ar
    22    18    19 ar
    23    19    20 ar
    24    20    21 ar
    25    21    22 1
    26    22    23 1
    27    24    25 1
    28    25    29 1
    29    25    26 2
    30    26    27 1
    31    27    28 2
    32    28    29 1

@<TRIPOS>MOLECULE
ZINC36614749_replica-1.pdb
 34 37 0 0 0
SMALL
GASTEIGER

@<TRIPOS>ATOM
       1  C1          8.7670   38.2480   59.4020  C.3       1 <0>        -0.1516
       2  C2          7.3520   38.6860   59.0190  C.3       1 <0>         0.0546
       3  O1          7.2370   38.7310   57.5960  O.3       1 <0>        -0.3093
       4  C3          6.9000   37.5740   56.9660  C.ar      1 <0>         0.1064
       5  C4          6.3510   36.5250   57.6870  C.ar      1 <0>        -0.1893
       6  C5          6.0090   35.3500   57.0470  C.ar      1 <0>        -0.0155
       7  C6          6.2130   35.2160   55.6860  C.ar      1 <0>        -0.0838
       8  C7          6.7610   36.2570   54.9600  C.ar      1 <0>        -0.1074
       9  C8          7.1010   37.4410   55.5960  C.ar      1 <0>         0.0690
      10  O2          7.6340   38.4690   54.8820  O.3       1 <0>        -0.4883
      11  C9          5.4120   34.2110   57.8320  C.3       1 <0>         0.1967
      12  C10         4.1700   34.7000   58.5850  C.3       1 <0>        -0.0739
      13  C11         3.0880   35.0830   57.5710  C.3       1 <0>        -0.1094
      14  C12         1.8390   35.5620   58.3120  C.3       1 <0>        -0.1183
      15  C13         1.3180   34.4380   59.2100  C.3       1 <0>        -0.1156
      16  C14         2.3970   34.0580   60.2250  C.3       1 <0>        -0.1433
      17  C15         3.6540   33.5820   59.4930  C.3       1 <0>         0.1412
      18  C16         4.7320   33.2180   60.5170  C.3       1 <0>        -0.1641
      19  C17         5.9770   32.7100   59.7860  C.3       1 <0>         0.1117
      20  N1          6.3940   33.7160   58.8060  N.am      1 <0>        -0.6046
      21  C18         7.6570   34.1860   58.8050  C.2       1 <0>         0.5420
      22  O3          7.9710   35.0930   58.0580  O.2       1 <0>        -0.5090
      23  C19         8.6550   33.6040   59.7070  C.2       1 <0>        -0.2222
      24  C20         9.5090   34.4060   60.3740  C.2       1 <0>        -0.0122
      25  C21        10.5120   33.8220   61.2800  C.ar      1 <0>        -0.0834
      26  C22        10.2750   32.5830   61.8850  C.ar      1 <0>        -0.0970
      27  C23        11.2190   32.0420   62.7320  C.ar      1 <0>        -0.1210
      28  C24        12.3980   32.7210   62.9850  C.ar      1 <0>        -0.0618
      29  C25        12.6390   33.9480   62.3910  C.ar      1 <0>        -0.1172
      30  C26        11.7080   34.4990   61.5360  C.ar      1 <0>        -0.0897
      31  C27        13.4230   32.1240   63.9130  C.3       1 <0>        -0.0606
      32  C28        13.3110   30.5980   63.8830  C.3       1 <0>        -0.1457
      33  C29        14.8240   32.5410   63.4620  C.3       1 <0>        -0.1456
      34  O4          3.3350   32.4360   58.7050  O.3       1 <0>        -0.5508
@<TRIPOS>BOND
     1     1     2 1
     2     2     3 1
     3     3     4 1
     4     4     9 ar
     5     4     5 ar
     6     5     6 ar
     7     6     7 ar
     8     6    11 1
     9     7     8 ar
    10     8     9 ar
    11     9    10 1
    12    11    20 1
    13    11    12 1
    14    12    17 1
    15    12    13 1
    16    13    14 1
    17    14    15 1
    18    15    16 1
    19    16    17 1
    20    17    18 1
    21    17    34 1
    22    18    19 1
    23    19    20 1
    24    20    21 am
    25    21    22 2
    26    21    23 1
    27    23    24 2
    28    24    25 1
    29    25    30 ar
    30    25    26 ar
    31    26    27 ar
    32    27    28 ar
    33    28    29 ar
    34    28    31 1
    35    29    30 ar
    36    31    32 1
    37    31    33 1

@<TRIPOS>MOLECULE
ZINC46813700_replica-1.pdb
 22 24 0 0 0
SMALL
GASTEIGER

@<TRIPOS>ATOM
       1  C1         -1.2200   27.8870   52.2130  C.ar      1 <0>        -0.1159
       2  C2         -1.2550   28.7400   53.2990  C.ar      1 <0>        -0.1493
       3  C3         -0.6940   28.3500   54.5090  C.ar      1 <0>         0.1664
       4  C4         -0.1010   27.1030   54.6300  C.ar      1 <0>        -0.0783
       5  C5         -0.0670   26.2530   53.5370  C.ar      1 <0>        -0.1232
       6  C6         -0.6250   26.6430   52.3330  C.ar      1 <0>         0.0800
       7  F1         -0.5890   25.8080   51.2710  F         1 <0>        -0.1373
       8  C7          0.5070   26.6440   55.9290  C.3       1 <0>        -0.0804
       9  C8          0.8270   27.8400   56.8230  C.3       1 <0>        -0.1318
      10  C9         -0.4230   28.7240   56.9370  C.3       1 <0>         0.0996
      11  N1         -0.7360   29.2330   55.5950  N.pl3     1 <0>        -0.9332
      12  S1         -1.1320   30.8260   55.3710  S.o2      1 <0>         2.6897
      13  O1         -0.8450   31.1280   54.0120  O.2       1 <0>        -0.9326
      14  O2         -2.4230   31.0060   55.9350  O.2       1 <0>        -0.9303
      15  C10        -0.0180   31.7820   56.3460  C.ar      1 <0>        -0.6696
      16  C11         1.3050   31.9020   55.9640  C.ar      1 <0>        -0.0033
      17  C12         2.1810   32.6510   56.7270  C.ar      1 <0>        -0.1410
      18  C13         1.7330   33.2820   57.8750  C.ar      1 <0>         0.1310
      19  C14         0.4060   33.1620   58.2570  C.ar      1 <0>         0.0531
      20  C15        -0.4700   32.4150   57.4880  C.ar      1 <0>        -0.0228
      21  F2         -0.0330   33.7770   59.3770  F         1 <0>        -0.1177
      22  F3          2.5890   34.0130   58.6220  F         1 <0>        -0.1132
@<TRIPOS>BOND
     1     1     6 ar
     2     1     2 ar
     3     2     3 ar
     4     3    11 1
     5     3     4 ar
     6     4     5 ar
     7     4     8 1
     8     5     6 ar
     9     6     7 1
    10     8     9 1
    11     9    10 1
    12    10    11 1
    13    11    12 1
    14    12    13 2
    15    12    14 2
    16    12    15 1
    17    15    20 ar
    18    15    16 ar
    19    16    17 ar
    20    17    18 ar
    21    18    19 ar
    22    18    22 1
    23    19    20 ar
    24    19    21 1

@<TRIPOS>MOLECULE
ZINC01105509_replica-1.pdb
 30 34 0 0 0
SMALL
GASTEIGER

@<TRIPOS>ATOM
       1  C1         -1.4310   26.3860   57.8740  C.ar      1 <0>        -0.0943
       2  C2         -2.0830   27.3990   58.5510  C.ar      1 <0>        -0.1084
       3  C3         -1.6020   28.6920   58.4930  C.ar      1 <0>        -0.0863
       4  C4         -0.4620   28.9750   57.7520  C.ar      1 <0>         0.0830
       5  C5          0.1880   27.9560   57.0680  C.ar      1 <0>        -0.0861
       6  C6         -0.2960   26.6630   57.1350  C.ar      1 <0>        -0.1085
       7  N1          0.0300   30.2850   57.6910  N.am      1 <0>        -0.4686
       8  C7          1.0050   30.6660   58.5400  C.2       1 <0>         0.5592
       9  O1          1.4570   29.8810   59.3550  O.2       1 <0>        -0.5017
      10  C8          1.5000   32.0050   58.4690  C.2       1 <0>        -0.2377
      11  C9          2.5500   32.6260   59.2920  C.2       1 <0>        -0.0690
      12  C10         2.8450   33.9110   59.0330  C.2       1 <0>        -0.1974
      13  S1          1.7610   34.3730   57.7020  S.3       1 <0>         0.1866
      14  C11         0.9130   32.8290   57.4960  C.2       1 <0>         0.1116
      15  N2         -0.0430   32.3920   56.6840  N.2       1 <0>        -0.4978
      16  C12        -0.4870   31.1530   56.7710  C.2       1 <0>         0.3659
      17  S2         -1.7610   30.6090   55.6820  S.3       1 <0>         0.0983
      18  C13        -0.7820   30.2700   54.1980  C.3       1 <0>        -0.1704
      19  C14        -1.6400   29.5620   53.1820  C.2       1 <0>         0.4182
      20  O2         -2.6240   30.1100   52.7320  O.2       1 <0>        -0.4299
      21  C15        -1.2840   28.2070   52.7340  C.ar      1 <0>        -0.1801
      22  C16        -0.4740   27.3920   53.5320  C.ar      1 <0>        -0.0241
      23  C17        -0.1450   26.1250   53.1060  C.ar      1 <0>        -0.1658
      24  C18        -0.6150   25.6550   51.8880  C.ar      1 <0>         0.1390
      25  C19        -1.4190   26.4570   51.0920  C.ar      1 <0>        -0.1651
      26  C20        -1.7560   27.7270   51.5070  C.ar      1 <0>        -0.0398
      27  F1         -0.2880   24.4110   51.4760  F         1 <0>        -0.1295
      28  C21         3.9340   34.4350   59.9310  C.3       1 <0>        -0.0320
      29  C22         4.5960   33.1710   60.5190  C.3       1 <0>        -0.1171
      30  C23         3.4430   32.1490   60.4410  C.3       1 <0>        -0.0634
@<TRIPOS>BOND
     1     1     6 ar
     2     1     2 ar
     3     2     3 ar
     4     3     4 ar
     5     4     5 ar
     6     4     7 1
     7     5     6 ar
     8     7    16 1
     9     7     8 am
    10     8     9 2
    11     8    10 1
    12    10    14 2
    13    10    11 1
    14    11    30 1
    15    11    12 2
    16    12    13 1
    17    12    28 1
    18    13    14 1
    19    14    15 1
    20    15    16 2
    21    16    17 1
    22    17    18 1
    23    18    19 1
    24    19    20 2
    25    19    21 1
    26    21    26 ar
    27    21    22 ar
    28    22    23 ar
    29    23    24 ar
    30    24    25 ar
    31    24    27 1
    32    25    26 ar
    33    28    29 1
    34    29    30 1

@<TRIPOS>MOLECULE
ZINC37785356_replica-1.pdb
 20 21 0 0 0
SMALL
GASTEIGER

@<TRIPOS>ATOM
       1  C1         13.8910   32.7870   63.0030  C.3       1 <0>        -0.1546
       2  C2         13.5750   34.0530   62.2040  C.3       1 <0>        -0.1183
       3  C3         12.4670   34.8370   62.9100  C.3       1 <0>        -0.0839
       4  C4         11.4550   35.3010   61.8940  C.ar      1 <0>        -0.0782
       5  C5         10.8120   36.5130   62.0640  C.ar      1 <0>        -0.1133
       6  C6          9.8840   36.9390   61.1330  C.ar      1 <0>        -0.1056
       7  C7          9.5990   36.1540   60.0320  C.ar      1 <0>        -0.0958
       8  C8         10.2420   34.9430   59.8620  C.ar      1 <0>        -0.1087
       9  C9         11.1740   34.5180   60.7910  C.ar      1 <0>        -0.1141
      10  C10         8.5860   36.6190   59.0160  C.3       1 <0>         0.1972
      11  C11         8.5620   38.1480   58.9810  C.3       1 <0>        -0.1659
      12  N1          8.9510   36.1050   57.6940  N.pl3     1 <0>        -0.7428
      13  C12         7.9790   35.5000   56.8830  C.2       1 <0>         0.1123
      14  C13         7.4240   36.2070   55.8000  C.2       1 <0>        -0.0538
      15  C14         6.4810   35.6030   55.0230  C.2       1 <0>        -0.2046
      16  C15         6.0820   34.2890   55.3190  C.2       1 <0>         0.4983
      17  O1          5.2380   33.7390   54.6300  O.2       1 <0>        -0.5635
      18  N2          6.6290   33.6340   56.3610  N.am      1 <0>        -0.4815
      19  C16         7.5750   34.2280   57.1370  C.2       1 <0>         0.0230
      20  C17         6.2040   32.2630   56.6580  C.3       1 <0>         0.0579
@<TRIPOS>BOND
     1     1     2 1
     2     2     3 1
     3     3     4 1
     4     4     9 ar
     5     4     5 ar
     6     5     6 ar
     7     6     7 ar
     8     7     8 ar
     9     7    10 1
    10     8     9 ar
    11    10    11 1
    12    10    12 1
    13    12    13 1
    14    13    19 2
    15    13    14 1
    16    14    15 2
    17    15    16 1
    18    16    17 2
    19    16    18 am
    20    18    19 1
    21    18    20 1

@<TRIPOS>MOLECULE
ZINC21230769_replica-1.pdb
 33 37 0 0 0
SMALL
GASTEIGER

@<TRIPOS>ATOM
       1  C1          0.2200   33.4730   58.1930  C.3       1 <0>        -0.1544
       2  C2          0.6940   34.5630   59.1550  C.3       1 <0>         0.0532
       3  O1          1.8950   34.1380   59.8030  O.3       1 <0>        -0.3183
       4  C3          3.0540   34.7230   59.4010  C.ar      1 <0>         0.1290
       5  C4          3.0200   35.8930   58.6560  C.ar      1 <0>        -0.1571
       6  C5          4.2000   36.4860   58.2490  C.ar      1 <0>        -0.0640
       7  C6          5.4130   35.9130   58.5830  C.ar      1 <0>        -0.1168
       8  C7          5.4490   34.7440   59.3190  C.ar      1 <0>        -0.0486
       9  C8          4.2730   34.1500   59.7330  C.ar      1 <0>        -0.2123
      10  C9          6.6990   36.5630   58.1370  C.3       1 <0>         0.2900
      11  C10         7.8130   36.0920   59.0420  C.2       1 <0>        -0.3012
      12  C11         8.8110   35.2640   58.6980  C.2       1 <0>         0.2692
      13  C12         9.8500   34.8460   59.7260  C.3       1 <0>        -0.1009
      14  C13        10.0900   35.9840   60.7160  C.3       1 <0>        -0.0381
      15  C14         8.7560   36.2880   61.4080  C.3       1 <0>        -0.1596
      16  C15         7.7350   36.6090   60.3580  C.2       1 <0>         0.4013
      17  O2          6.8070   37.3390   60.6460  O.2       1 <0>        -0.4714
      18  C16        11.1120   35.5640   61.7400  C.ar      1 <0>        -0.0414
      19  C17        11.4750   36.4360   62.7520  C.ar      1 <0>        -0.1521
      20  C18        12.4130   36.0540   63.6930  C.ar      1 <0>        -0.0758
      21  C19        12.9930   34.8020   63.6230  C.ar      1 <0>        -0.2097
      22  C20        12.6260   33.9250   62.6140  C.ar      1 <0>         0.1302
      23  C21        11.6850   34.3100   61.6690  C.ar      1 <0>        -0.1454
      24  O3         13.1930   32.6910   62.5460  O.3       1 <0>        -0.3174
      25  C22        14.2530   32.4120   63.4620  C.3       1 <0>         0.0234
      26  N1          8.9970   34.7330   57.4620  N.pl3     1 <0>        -0.6978
      27  C23         8.0000   34.1370   56.6970  C.ar      1 <0>         0.1134
      28  C24         8.0350   32.7990   56.3470  C.ar      1 <0>        -0.1172
      29  C25         7.0330   32.2830   55.5420  C.ar      1 <0>        -0.1234
      30  C26         6.0100   33.0970   55.0940  C.ar      1 <0>        -0.1092
      31  C27         5.9640   34.4310   55.4600  C.ar      1 <0>        -0.1254
      32  C28         6.9530   34.9470   56.2830  C.ar      1 <0>         0.1730
      33  N2          6.9040   36.2630   56.7360  N.pl3     1 <0>        -0.7820
@<TRIPOS>BOND
     1     1     2 1
     2     2     3 1
     3     3     4 1
     4     4     9 ar
     5     4     5 ar
     6     5     6 ar
     7     6     7 ar
     8     7     8 ar
     9     7    10 1
    10     8     9 ar
    11    10    33 1
    12    10    11 1
    13    11    16 1
    14    11    12 2
    15    12    13 1
    16    12    26 1
    17    13    14 1
    18    14    15 1
    19    14    18 1
    20    15    16 1
    21    16    17 2
    22    18    23 ar
    23    18    19 ar
    24    19    20 ar
    25    20    21 ar
    26    21    22 ar
    27    22    23 ar
    28    22    24 1
    29    24    25 1
    30    26    27 1
    31    27    32 ar
    32    27    28 ar
    33    28    29 ar
    34    29    30 ar
    35    30    31 ar
    36    31    32 ar
    37    32    33 1

@<TRIPOS>MOLECULE
ZINC58238439_replica-1.pdb
 21 22 0 0 0
SMALL
GASTEIGER

@<TRIPOS>ATOM
      1  C1        -2.4530   27.7400   57.7480 C.ar    0  <0>0       -0.0003
      2  C2        -1.2320   27.8230   58.3950 C.ar    0  <0>0        0.0000
      3  C3        -0.3700   28.8620   58.1180 C.ar    0  <0>0        0.0015
      4  C4        -0.7310   29.8350   57.1830 C.ar    0  <0>0        0.0165
      5  C5        -1.9640   29.7450   56.5340 C.ar    0  <0>0       -0.0096
      6  C6        -2.8170   28.7000   56.8200 C.ar    0  <0>0       -0.0034
      7  C7        -2.3620   30.7900   55.5230 C.3     0  <0>0        0.0841
      8  S1        -2.4930   30.0270   53.8830 S.3     0  <0>0       -0.1306
      9  C8        -0.8240   29.3990   53.5550 C.3     0  <0>0        0.0849
     10  C9        -0.9160   28.0820   52.8300 C.ar    0  <0>0       -0.0007
     11  C14       -0.2760   26.9660   53.3390 C.ar    0  <0>0        0.0545
     12  C13       -0.3650   25.7550   52.6750 C.ar    0  <0>0        0.0111
     13 Cl          0.6330   27.0830   54.8130 Cl      0  <0>0       -0.0825
     14  C12       -1.0840   25.6640   51.4990 C.ar    0  <0>0        0.0008
     15  C11       -1.7200   26.7810   50.9880 C.ar    0  <0>0       -0.0002
     16  C10       -1.6360   27.9890   51.6530 C.ar    0  <0>0       -0.0026
     17  C15        0.1870   30.9520   56.8820 C.2     0  <0>0        0.0778
     18  S2         0.0530   32.4250   57.7430 S.2     0  <0>0       -0.0352
     19  N1         1.1300   30.8100   55.9300 N.am    0  <0>0       -0.3517
     20  H13        1.2070   29.9750   55.4420 H       0  <0>0        0.1428
     21  H14        1.7330   31.5440   55.7330 H       0  <0>0        0.1428
@<TRIPOS>BOND
     1    15    14   ar
     2    15    16   ar
     3    14    12   ar
     4    16    10   ar
     5    12    11   ar
     6    10    11   ar
     7    10     9    1
     8    11    13    1
     9     9     8    1
    10     8     7    1
    11    20    19    1
    12     7     5    1
    13    21    19    1
    14    19    17    1
    15     5     6   ar
    16     5     4   ar
    17     6     1   ar
    18    17     4    1
    19    17    18    2
    20     4     3   ar
    21     1     2   ar
    22     3     2   ar


@<TRIPOS>MOLECULE
ZINC48139713_replica-1.pdb
 27 29 0 0 0
SMALL
GASTEIGER

@<TRIPOS>ATOM
       1  C1         -2.6120   29.2680   55.8890  C.3       1 <0>        -0.1640
       2  C2         -1.0850   29.1740   55.8420  C.3       1 <0>         0.1956
       3  C3         -0.6780   28.0790   54.8910  C.ar      1 <0>        -0.1128
       4  C4         -1.1080   28.1110   53.5770  C.ar      1 <0>        -0.1178
       5  C5         -0.7340   27.1040   52.7020  C.ar      1 <0>         0.0883
       6  C6          0.0690   26.0670   53.1440  C.ar      1 <0>        -0.1183
       7  C7          0.4980   26.0350   54.4570  C.ar      1 <0>        -0.1267
       8  C8          0.1290   27.0450   55.3300  C.ar      1 <0>         0.1099
       9  F1          0.5520   27.0170   56.6130  F         1 <0>        -0.1211
      10  F2         -1.1540   27.1340   51.4190  F         1 <0>        -0.1328
      11  N1         -0.5310   30.4510   55.3840  N.am      1 <0>        -0.6193
      12  C9         -1.0150   31.0540   54.1390  C.3       1 <0>         0.0718
      13  C10         0.4230   31.0690   56.1060  C.2       1 <0>         0.7074
      14  O1          0.8250   30.5680   57.1380  O.2       1 <0>        -0.5579
      15  N2          0.9330   32.2430   55.6840  N.am      1 <0>        -0.6836
      16  C11         1.8500   32.9380   56.4860  C.ar      1 <0>         0.1932
      17  C12         3.1980   32.6110   56.4410  C.ar      1 <0>        -0.1524
      18  C13         4.1020   33.2950   57.2300  C.ar      1 <0>        -0.0747
      19  C14         3.6630   34.3090   58.0700  C.ar      1 <0>         0.1378
      20  C15         2.3120   34.6370   58.1150  C.ar      1 <0>         0.1147
      21  C16         1.4090   33.9560   57.3210  C.ar      1 <0>        -0.1538
      22  F3          1.8830   35.6240   58.9320  F         1 <0>        -0.1305
      23  N3          4.5790   35.0030   58.8710  N.pl3     1 <0>        -0.6833
      24  C17         4.8770   34.7120   60.2810  C.3       1 <0>         0.1320
      25  C18         5.9230   35.7440   60.7520  C.3       1 <0>        -0.1307
      26  C19         5.7370   36.9090   59.7450  C.3       1 <0>        -0.1337
      27  C20         5.4100   36.1410   58.4390  C.3       1 <0>         0.1321
@<TRIPOS>BOND
     1     1     2 1
     2     2     3 1
     3     2    11 1
     4     3     8 ar
     5     3     4 ar
     6     4     5 ar
     7     5     6 ar
     8     5    10 1
     9     6     7 ar
    10     7     8 ar
    11     8     9 1
    12    11    12 1
    13    11    13 am
    14    13    14 2
    15    13    15 am
    16    15    16 1
    17    16    21 ar
    18    16    17 ar
    19    17    18 ar
    20    18    19 ar
    21    19    20 ar
    22    19    23 1
    23    20    21 ar
    24    20    22 1
    25    23    27 1
    26    23    24 1
    27    24    25 1
    28    25    26 1
    29    26    27 1

@<TRIPOS>MOLECULE
CHEMBL386329_replica-1.pdb
 32 36 0 0 0
SMALL
GASTEIGER

@<TRIPOS>ATOM
       1  C1          1.1830   27.0010   59.5450  C.3       1 <0>         0.0547
       2  N1         -0.2120   27.4240   59.3900  N.am      1 <0>        -0.6047
       3  C2         -1.1410   26.6100   58.6050  C.3       1 <0>         0.1511
       4  C3         -0.5220   26.2840   57.2710  C.ar      1 <0>        -0.0888
       5  C4         -0.2830   27.2960   56.3430  C.ar      1 <0>        -0.0333
       6  C5         -0.6120   28.6390   56.6280  C.ar      1 <0>        -0.1229
       7  C6         -0.3650   29.6010   55.7020  C.ar      1 <0>        -0.1074
       8  C7          0.2080   29.2990   54.4660  C.ar      1 <0>        -0.1205
       9  C8          0.5490   28.0290   54.1280  C.ar      1 <0>        -0.0992
      10  C9          0.3210   26.9790   55.0450  C.ar      1 <0>        -0.0546
      11  C10         0.6580   25.6640   54.7300  C.ar      1 <0>        -0.0844
      12  C11         0.4180   24.6530   55.6580  C.ar      1 <0>        -0.0507
      13  C12        -0.1790   24.9700   56.9590  C.ar      1 <0>        -0.0293
      14  C13        -0.4010   23.9210   57.8770  C.ar      1 <0>        -0.1009
      15  C14        -0.0550   22.6520   57.5410  C.ar      1 <0>        -0.1173
      16  C15         0.5190   22.3510   56.3050  C.ar      1 <0>        -0.1096
      17  C16         0.7470   23.3100   55.3720  C.ar      1 <0>        -0.1154
      18  C17        -0.6390   28.5630   59.9720  C.2       1 <0>         0.5292
      19  O1         -1.8130   28.8610   59.9320  O.2       1 <0>        -0.5217
      20  C18         0.3440   29.4650   60.6730  C.3       1 <0>        -0.1229
      21  C19        -0.2890   30.1010   61.9320  C.3       1 <0>        -0.1434
      22  C20         0.2790   31.5030   61.9660  C.2       1 <0>         0.5220
      23  O2          0.2610   32.2370   62.9310  O.2       1 <0>        -0.5214
      24  N2          0.8080   31.8160   60.7700  N.am      1 <0>        -0.6177
      25  C21         0.6600   30.7110   59.8160  C.3       1 <0>         0.1158
      26  C22         1.4510   33.0950   60.4600  C.3       1 <0>         0.1692
      27  C23         0.7470   33.7250   59.2400  C.3       1 <0>        -0.1264
      28  C24         1.0330   35.2020   59.2330  C.3       1 <0>        -0.1163
      29  C25         2.2480   35.5630   58.3570  C.3       1 <0>        -0.1175
      30  C26         3.4170   34.5720   58.5190  C.3       1 <0>        -0.1232
      31  C27         3.6400   34.1730   59.9540  C.3       1 <0>        -0.1088
      32  C28         2.8690   32.8650   60.2250  C.3       1 <0>        -0.1422
@<TRIPOS>BOND
     1     1     2 1
     2     2     3 1
     3     2    18 am
     4     3     4 1
     5     4    13 ar
     6     4     5 ar
     7     5    10 ar
     8     5     6 ar
     9     6     7 ar
    10     7     8 ar
    11     8     9 ar
    12     9    10 ar
    13    10    11 ar
    14    11    12 ar
    15    12    17 ar
    16    12    13 ar
    17    13    14 ar
    18    14    15 ar
    19    15    16 ar
    20    16    17 ar
    21    18    19 2
    22    18    20 1
    23    20    25 1
    24    20    21 1
    25    21    22 1
    26    22    23 2
    27    22    24 am
    28    24    25 1
    29    24    26 1
    30    26    32 1
    31    26    27 1
    32    27    28 1
    33    28    29 1
    34    29    30 1
    35    30    31 1
    36    31    32 1

@<TRIPOS>MOLECULE
ZINC66154773_replica-1.pdb
 21 22 0 0 0
SMALL
GASTEIGER

@<TRIPOS>ATOM
       1  C1         -0.4300   33.9660   61.8030  C.3       1 <0>        -0.1528
       2  C2          0.9280   33.3430   61.4670  C.3       1 <0>         0.0562
       3  O1          1.4240   33.9110   60.2540  O.3       1 <0>        -0.3204
       4  C3          1.2710   33.1750   59.1200  C.ar      1 <0>         0.0727
       5  C4          0.7950   33.7740   57.9640  C.ar      1 <0>        -0.1583
       6  C5          0.6400   33.0270   56.8120  C.ar      1 <0>        -0.1548
       7  C6          0.9620   31.6760   56.8130  C.ar      1 <0>         0.1830
       8  C7          1.4380   31.0770   57.9720  C.ar      1 <0>        -0.1583
       9  C8          1.5970   31.8270   59.1200  C.ar      1 <0>        -0.1028
      10  N1          0.8040   30.9190   55.6460  N.pl3     1 <0>        -0.7479
      11  C9         -0.3290   31.1770   54.7540  C.3       1 <0>         0.1331
      12  C10        -1.1860   29.9150   54.6400  C.3       1 <0>         0.0724
      13  C11        -2.4900   30.1110   55.4170  C.3       1 <0>        -0.1797
      14  O2         -1.4850   29.6660   53.2640  O.3       1 <0>        -0.3056
      15  C12        -1.2500   28.4100   52.7990  C.ar      1 <0>         0.1239
      16  C13        -0.4720   27.5310   53.5370  C.ar      1 <0>        -0.1477
      17  C14        -0.2360   26.2540   53.0630  C.ar      1 <0>        -0.0806
      18  C15        -0.7750   25.8550   51.8540  C.ar      1 <0>        -0.1235
      19  C16        -1.5500   26.7310   51.1160  C.ar      1 <0>        -0.0808
      20  C17        -1.7950   28.0050   51.5900  C.ar      1 <0>        -0.2067
      21  C18        -0.5150   24.4630   51.3380  C.3       1 <0>        -0.1119
@<TRIPOS>BOND
     1     1     2 1
     2     2     3 1
     3     3     4 1
     4     4     9 ar
     5     4     5 ar
     6     5     6 ar
     7     6     7 ar
     8     7     8 ar
     9     7    10 1
    10     8     9 ar
    11    10    11 1
    12    11    12 1
    13    12    13 1
    14    12    14 1
    15    14    15 1
    16    15    20 ar
    17    15    16 ar
    18    16    17 ar
    19    17    18 ar
    20    18    19 ar
    21    18    21 1
    22    19    20 ar

@<TRIPOS>MOLECULE
ZINC34916141_replica-1.pdb
 28 31 0 0 0
SMALL
GASTEIGER

@<TRIPOS>ATOM
       1  C1          0.9950   32.2790   60.3730  C.3       1 <0>        -0.1136
       2  C2          2.3670   32.8970   60.2870  C.2       1 <0>        -0.0599
       3  C3          3.3600   32.5410   61.2150  C.2       1 <0>        -0.1325
       4  C4          4.5900   33.0910   61.1430  C.2       1 <0>         0.0711
       5  N1          4.8890   34.0010   60.1660  N.pl3     1 <0>        -0.3554
       6  C5          3.9380   34.3690   59.2440  C.2       1 <0>         0.2509
       7  C6          2.6500   33.7950   59.3070  C.2       1 <0>        -0.0855
       8  N2          4.4740   35.2520   58.4170  N.2       1 <0>        -0.4572
       9  C7          5.7500   35.4760   58.7700  C.2       1 <0>         0.1024
      10  C8          6.0310   34.6950   59.8730  C.2       1 <0>         0.1733
      11  N3          7.2440   34.6270   60.5570  N.am      1 <0>        -0.6428
      12  C9          8.2350   33.8380   60.0960  C.2       1 <0>         0.5573
      13  O1          8.0870   33.2190   59.0580  O.2       1 <0>        -0.5027
      14  C10         9.5010   33.7240   60.8490  C.ar      1 <0>        -0.1481
      15  C11         9.7920   32.5590   61.5610  C.ar      1 <0>        -0.0807
      16  C12        10.9750   32.4590   62.2620  C.ar      1 <0>        -0.1310
      17  C13        11.8730   33.5110   62.2620  C.ar      1 <0>        -0.0802
      18  C14        11.5920   34.6700   61.5590  C.ar      1 <0>        -0.1297
      19  C15        10.4140   34.7790   60.8470  C.ar      1 <0>        -0.0147
      20  C16        10.1120   36.0390   60.0770  C.3       1 <0>        -0.1262
      21  C17         6.6920   36.3990   58.0950  C.ar      1 <0>        -0.0140
      22  C18         7.2760   36.0390   56.8810  C.ar      1 <0>        -0.1251
      23  C19         8.1530   36.9040   56.2550  C.ar      1 <0>         0.0924
      24  C20         8.4540   38.1270   56.8320  C.ar      1 <0>        -0.1177
      25  C21         7.8780   38.4900   58.0370  C.ar      1 <0>        -0.1246
      26  C22         6.9940   37.6360   58.6680  C.ar      1 <0>         0.1239
      27  F1          6.4290   37.9930   59.8420  F         1 <0>        -0.1099
      28  F2          8.7200   36.5560   55.0790  F         1 <0>        -0.1316
@<TRIPOS>BOND
     1     1     2 1
     2     2     7 2
     3     2     3 1
     4     3     4 2
     5     4     5 1
     6     5    10 1
     7     5     6 1
     8     6     7 1
     9     6     8 2
    10     8     9 1
    11     9    10 2
    12     9    21 1
    13    10    11 1
    14    11    12 am
    15    12    13 2
    16    12    14 1
    17    14    19 ar
    18    14    15 ar
    19    15    16 ar
    20    16    17 ar
    21    17    18 ar
    22    18    19 ar
    23    19    20 1
    24    21    26 ar
    25    21    22 ar
    26    22    23 ar
    27    23    24 ar
    28    23    28 1
    29    24    25 ar
    30    25    26 ar
    31    26    27 1

@<TRIPOS>MOLECULE
ZINC40960661_replica-1.pdb
 25 26 0 0 0
SMALL
GASTEIGER

@<TRIPOS>ATOM
       1  C1          1.1100   35.6100   57.8860  C.3       1 <0>        -0.1789
       2  C2          0.6280   34.2410   58.3710  C.3       1 <0>         0.0741
       3  C3          0.6230   33.2720   57.2170  C.2       1 <0>         0.5356
       4  O1          1.6030   33.1670   56.5090  O.2       1 <0>        -0.4740
       5  N1         -0.4690   32.5230   56.9700  N.am      1 <0>        -0.5814
       6  N2         -0.4740   31.6220   55.8980  N.2       1 <0>        -0.2276
       7  C4         -0.6290   30.3530   56.1160  C.2       1 <0>         0.1166
       8  C5         -0.6340   29.4050   54.9860  C.ar      1 <0>        -0.0657
       9  C6          0.1500   28.2490   55.0360  C.ar      1 <0>        -0.0730
      10  C7          0.1390   27.3670   53.9750  C.ar      1 <0>        -0.1234
      11  C8         -0.6460   27.6240   52.8650  C.ar      1 <0>        -0.0562
      12  C9         -1.4260   28.7650   52.8090  C.ar      1 <0>        -0.1207
      13  C10        -1.4290   29.6540   53.8640  C.ar      1 <0>        -0.0849
      14  C11        -0.6520   26.6550   51.7110  C.3       1 <0>        -0.0618
      15  C12        -0.5770   25.2230   52.2440  C.3       1 <0>        -0.1453
      16  C13        -1.9390   26.8320   50.9040  C.3       1 <0>        -0.1453
      17  O2          1.5040   33.7620   59.3930  O.3       1 <0>        -0.2785
      18  C14         0.9270   33.1970   60.4850  C.ar      1 <0>         0.1671
      19  C15         0.2400   33.9890   61.3940  C.ar      1 <0>        -0.1817
      20  C16        -0.3480   33.4160   62.5050  C.ar      1 <0>        -0.0383
      21  C17        -0.2540   32.0530   62.7140  C.ar      1 <0>        -0.2436
      22  C18         0.4330   31.2570   61.8090  C.ar      1 <0>         0.1664
      23  C19         1.0180   31.8290   60.6900  C.ar      1 <0>        -0.2480
      24  O3          0.5250   29.9170   62.0150  O.3       1 <0>        -0.3168
      25  C20        -0.3140   29.0780   61.2180  C.3       1 <0>         0.0264
@<TRIPOS>BOND
     1     1     2 1
     2     2     3 1
     3     2    17 1
     4     3     4 2
     5     3     5 am
     6     5     6 1
     7     6     7 2
     8     7     8 1
     9     8    13 ar
    10     8     9 ar
    11     9    10 ar
    12    10    11 ar
    13    11    12 ar
    14    11    14 1
    15    12    13 ar
    16    14    15 1
    17    14    16 1
    18    17    18 1
    19    18    23 ar
    20    18    19 ar
    21    19    20 ar
    22    20    21 ar
    23    21    22 ar
    24    22    23 ar
    25    22    24 1
    26    24    25 1

@<TRIPOS>MOLECULE
ZINC22685222_replica-1.pdb
 29 31 0 0 0
SMALL
GASTEIGER

@<TRIPOS>ATOM
       1  C1         -1.4530   27.0280   57.7190  C.ar      1 <0>        -0.1163
       2  C2         -1.8860   28.2920   58.0740  C.ar      1 <0>        -0.1145
       3  C3         -0.9820   29.3340   58.1590  C.ar      1 <0>        -0.1066
       4  C4          0.3550   29.1130   57.8870  C.ar      1 <0>        -0.0695
       5  C5          0.7870   27.8500   57.5260  C.ar      1 <0>        -0.1038
       6  C6         -0.1160   26.8060   57.4470  C.ar      1 <0>        -0.1123
       7  C7          1.3400   30.2490   57.9790  C.3       1 <0>        -0.0903
       8  C8          0.9930   31.3110   56.9340  C.3       1 <0>         0.1610
       9  C9          2.0860   32.3470   56.8880  C.2       1 <0>         0.5175
      10  O1          2.6740   32.6560   57.9030  O.2       1 <0>        -0.5125
      11  N1          2.4110   32.9310   55.7170  N.am      1 <0>        -0.6786
      12  C10         3.3590   33.9620   55.6880  C.ar      1 <0>         0.1363
      13  C11         2.9720   35.2690   55.9570  C.ar      1 <0>        -0.1133
      14  C12         3.9090   36.2840   55.9340  C.ar      1 <0>        -0.1345
      15  C13         5.2300   36.0000   55.6320  C.ar      1 <0>         0.0854
      16  C14         5.6160   34.6980   55.3580  C.ar      1 <0>        -0.1344
      17  C15         4.6840   33.6810   55.3860  C.ar      1 <0>        -0.0934
      18  F1          6.1430   36.9950   55.6040  F         1 <0>        -0.1386
      19  N2          0.8640   30.6780   55.6190  N.am      1 <0>        -0.7127
      20  C16        -0.2740   30.8200   54.9120  C.2       1 <0>         0.6531
      21  O2         -1.1940   31.4720   55.3650  O.2       1 <0>        -0.5560
      22  O3         -0.3920   30.2380   53.7030  O.3       1 <0>        -0.3636
      23  C17        -1.5740   29.4250   53.4760  C.3       1 <0>         0.1319
      24  C18        -1.1570   28.0600   52.9900  C.ar      1 <0>        -0.1004
      25  C19        -0.3780   27.2480   53.7950  C.ar      1 <0>        -0.0935
      26  C20         0.0010   25.9950   53.3510  C.ar      1 <0>        -0.1231
      27  C21        -0.3920   25.5570   52.1010  C.ar      1 <0>        -0.1074
      28  C22        -1.1660   26.3700   51.2950  C.ar      1 <0>        -0.1236
      29  C23        -1.5500   27.6210   51.7390  C.ar      1 <0>        -0.0930
@<TRIPOS>BOND
     1     1     6 ar
     2     1     2 ar
     3     2     3 ar
     4     3     4 ar
     5     4     5 ar
     6     4     7 1
     7     5     6 ar
     8     7     8 1
     9     8     9 1
    10     8    19 1
    11     9    10 2
    12     9    11 am
    13    11    12 1
    14    12    17 ar
    15    12    13 ar
    16    13    14 ar
    17    14    15 ar
    18    15    16 ar
    19    15    18 1
    20    16    17 ar
    21    19    20 am
    22    20    21 2
    23    20    22 1
    24    22    23 1
    25    23    24 1
    26    24    29 ar
    27    24    25 ar
    28    25    26 ar
    29    26    27 ar
    30    27    28 ar
    31    28    29 ar

@<TRIPOS>MOLECULE
ZINC00187280_replica-1.pdb
 20 21 0 0 0
SMALL
GASTEIGER

@<TRIPOS>ATOM
       1  C1          0.7540   31.6090   55.7840  C.3       1 <0>        -0.1646
       2  C2          0.1380   30.5040   54.9240  C.3       1 <0>        -0.1369
       3  C3         -1.1310   29.9800   55.5990  C.3       1 <0>         0.0033
       4  C4         -1.2610   28.4770   55.3450  C.3       1 <0>         0.2030
       5  C5         -1.1210   27.7330   56.6480  C.ar      1 <0>        -0.1258
       6  C6         -2.0200   27.9610   57.6740  C.ar      1 <0>        -0.1052
       7  C7         -1.8940   27.2750   58.8680  C.ar      1 <0>        -0.1141
       8  C8         -0.8640   26.3690   59.0400  C.ar      1 <0>        -0.1044
       9  C9          0.0370   26.1450   58.0160  C.ar      1 <0>        -0.1105
      10  C10        -0.0910   26.8290   56.8210  C.ar      1 <0>        -0.0984
      11  N1         -0.2100   28.0460   54.4210  N.pl3     1 <0>        -0.7323
      12  C11        -0.5340   27.2650   53.3090  C.ar      1 <0>         0.2009
      13  C12        -1.2790   27.8090   52.2710  C.ar      1 <0>        -0.1985
      14  C13        -1.6030   27.0340   51.1750  C.ar      1 <0>        -0.0739
      15  C14        -1.1750   25.7200   51.1050  C.ar      1 <0>        -0.1678
      16  C15        -0.4280   25.1770   52.1350  C.ar      1 <0>        -0.0733
      17  C16        -0.1060   25.9460   53.2350  C.ar      1 <0>        -0.1855
      18  N2         -2.2980   30.6710   55.0470  N.pl3     1 <0>        -0.0056
      19  O1         -3.0930   31.2170   55.7920  O.2       1 <0>        -0.1569
      20  O2         -2.4760   30.7000   53.8420  O.3       1 <0>        -0.1619
@<TRIPOS>BOND
     1     1     2 1
     2     2     3 1
     3     3     4 1
     4     3    18 1
     5     4     5 1
     6     4    11 1
     7     5    10 ar
     8     5     6 ar
     9     6     7 ar
    10     7     8 ar
    11     8     9 ar
    12     9    10 ar
    13    11    12 1
    14    12    17 ar
    15    12    13 ar
    16    13    14 ar
    17    14    15 ar
    18    15    16 ar
    19    16    17 ar
    20    18    19 2
    21    18    20 1

@<TRIPOS>MOLECULE
ZINC37856767_replica-1.pdb
 20 21 0 0 0
SMALL
GASTEIGER

@<TRIPOS>ATOM
       1  C1         -0.9220   25.2550   51.5490  C.3       1 <0>        -0.1439
       2  C2         -0.6650   26.7630   51.5940  C.3       1 <0>        -0.0590
       3  C3         -1.8390   27.5000   50.9460  C.3       1 <0>        -0.1438
       4  C4         -0.5230   27.2060   53.0270  C.ar      1 <0>        -0.0280
       5  C5          0.1600   26.4130   53.9310  C.ar      1 <0>        -0.1727
       6  C6          0.2930   26.8160   55.2470  C.ar      1 <0>        -0.0703
       7  C7         -0.2560   28.0130   55.6620  C.ar      1 <0>        -0.2042
       8  C8         -0.9430   28.8120   54.7570  C.ar      1 <0>         0.2174
       9  C9         -1.0690   28.4070   53.4350  C.ar      1 <0>        -0.1921
      10  N1         -1.5000   30.0230   55.1750  N.pl3     1 <0>        -0.7448
      11  C10        -1.2220   30.5320   56.5210  C.3       1 <0>         0.0998
      12  C11        -0.0110   31.4660   56.4730  C.3       1 <0>         0.1420
      13  C12         0.2460   32.0240   57.8490  C.ar      1 <0>        -0.1311
      14  C13         0.5500   31.1710   58.8940  C.ar      1 <0>        -0.0800
      15  C14         0.7870   31.6820   60.1570  C.ar      1 <0>        -0.1494
      16  C15         0.7190   33.0480   60.3740  C.ar      1 <0>         0.1043
      17  C16         0.4140   33.9000   59.3270  C.ar      1 <0>        -0.1503
      18  C17         0.1840   33.3880   58.0640  C.ar      1 <0>        -0.0757
      19  F1          0.9490   33.5490   61.6080  F         1 <0>        -0.1364
      20  O1         -0.2740   32.5390   55.5650  O.3       1 <0>        -0.5481
@<TRIPOS>BOND
     1     1     2 1
     2     2     3 1
     3     2     4 1
     4     4     9 ar
     5     4     5 ar
     6     5     6 ar
     7     6     7 ar
     8     7     8 ar
     9     8     9 ar
    10     8    10 1
    11    10    11 1
    12    11    12 1
    13    12    13 1
    14    12    20 1
    15    13    18 ar
    16    13    14 ar
    17    14    15 ar
    18    15    16 ar
    19    16    17 ar
    20    16    19 1
    21    17    18 ar

@<TRIPOS>MOLECULE
ZINC13457421_replica-1.pdb
 25 26 0 0 0
SMALL
GASTEIGER

@<TRIPOS>ATOM
       1  C1          7.8460   39.0070   57.9030  C.3       1 <0>        -0.1529
       2  C2          7.9350   37.9560   59.0120  C.3       1 <0>        -0.1042
       3  C3          6.5300   37.4670   59.3660  C.3       1 <0>        -0.1464
       4  C4          8.7800   36.7760   58.5290  C.3       1 <0>         0.1918
       5  C5          9.6190   36.2590   59.6690  C.ar      1 <0>        -0.0932
       6  C6          9.8280   37.0480   60.7850  C.ar      1 <0>        -0.0836
       7  C7         10.5920   36.5730   61.8340  C.ar      1 <0>        -0.1515
       8  C8         11.1570   35.3110   61.7630  C.ar      1 <0>         0.0968
       9  C9         10.9520   34.5240   60.6410  C.ar      1 <0>        -0.1502
      10  C10        10.1830   34.9990   59.5970  C.ar      1 <0>        -0.0760
      11  F1         11.9090   34.8480   62.7850  F         1 <0>        -0.1406
      12  N1          7.9000   35.7100   58.0460  N.am      1 <0>        -0.7282
      13  C11         7.8350   35.4330   56.7290  C.2       1 <0>         0.5391
      14  O1          8.5050   36.0680   55.9430  O.2       1 <0>        -0.5112
      15  C12         6.9290   34.3360   56.2320  C.3       1 <0>        -0.2301
      16  S1          6.0670   33.5840   57.6340  S.3       1 <0>         0.1000
      17  C13         4.6030   34.5650   57.6560  C.ar      1 <0>        -0.0898
      18  C14         4.1880   35.2270   56.5060  C.ar      1 <0>        -0.1573
      19  C15         3.0400   35.9890   56.5240  C.ar      1 <0>        -0.1042
      20  C16         2.2950   36.1120   57.6870  C.ar      1 <0>        -0.1501
      21  C17         2.6920   35.4680   58.8390  C.ar      1 <0>        -0.0580
      22  C18         3.8510   34.6860   58.8360  C.ar      1 <0>        -0.1053
      23  C19         4.2820   33.9960   60.0640  C.2       1 <0>         0.4841
      24  O2          3.8020   32.9190   60.3550  O.co2     1 <0>        -0.5943
      25  O3          5.2080   34.5600   60.8640  O.co2     1 <0>        -0.7476
@<TRIPOS>BOND
     1     1     2 1
     2     2     3 1
     3     2     4 1
     4     4     5 1
     5     4    12 1
     6     5    10 ar
     7     5     6 ar
     8     6     7 ar
     9     7     8 ar
    10     8     9 ar
    11     8    11 1
    12     9    10 ar
    13    12    13 am
    14    13    14 2
    15    13    15 1
    16    15    16 1
    17    16    17 1
    18    17    22 ar
    19    17    18 ar
    20    18    19 ar
    21    19    20 ar
    22    20    21 ar
    23    21    22 ar
    24    22    23 1
    25    23    24 2
    26    23    25 1

@<TRIPOS>MOLECULE
ZINC00353566_replica-1.pdb
 20 21 0 0 0
SMALL
GASTEIGER

@<TRIPOS>ATOM
       1  C1          7.8160   38.6050   56.8050  C.3       1 <0>         0.0260
       2  O1          7.6280   38.3650   58.2020  O.3       1 <0>        -0.3158
       3  C2          8.4480   37.4540   58.7880  C.ar      1 <0>         0.1230
       4  C3          9.0180   37.7300   60.0230  C.ar      1 <0>        -0.1387
       5  C4          9.8510   36.8090   60.6220  C.ar      1 <0>        -0.0592
       6  C5         10.1210   35.5960   59.9830  C.ar      1 <0>         0.0411
       7  C6          9.5490   35.3250   58.7380  C.ar      1 <0>        -0.1095
       8  C7          8.7140   36.2500   58.1490  C.ar      1 <0>        -0.1945
       9  N1         10.9480   34.6790   60.5740  N.2       1 <0>        -0.4490
      10  C8         11.5770   34.9830   61.6750  C.2       1 <0>         0.1890
      11  C9         12.4650   33.9990   62.3100  C.ar      1 <0>        -0.1056
      12  C10        13.7770   34.3490   62.6470  C.ar      1 <0>        -0.0767
      13  C11        14.6040   33.4210   63.2410  C.ar      1 <0>        -0.1335
      14  C12        14.1430   32.1420   63.5070  C.ar      1 <0>        -0.0808
      15  C13        12.8500   31.7830   63.1800  C.ar      1 <0>        -0.1156
      16  C14        12.0030   32.7020   62.5820  C.ar      1 <0>         0.1596
      17  O2         10.7320   32.3500   62.2600  O.3       1 <0>        -0.4682
      18  C15        12.3590   30.3890   63.4750  C.3       1 <0>        -0.0478
      19  C16        12.6760   30.0370   64.9060  C.2       1 <0>        -0.1419
      20  C17        12.2220   28.9220   65.4220  C.2       1 <0>        -0.1958
@<TRIPOS>BOND
     1     1     2 1
     2     2     3 1
     3     3     8 ar
     4     3     4 ar
     5     4     5 ar
     6     5     6 ar
     7     6     7 ar
     8     6     9 1
     9     7     8 ar
    10     9    10 2
    11    10    11 1
    12    11    16 ar
    13    11    12 ar
    14    12    13 ar
    15    13    14 ar
    16    14    15 ar
    17    15    16 ar
    18    15    18 1
    19    16    17 1
    20    18    19 1
    21    19    20 2

@<TRIPOS>MOLECULE
ZINC33025313_replica-1.pdb
 28 30 0 0 0
SMALL
GASTEIGER

@<TRIPOS>ATOM
       1  C1         14.0500   31.6510   63.8370  C.3       1 <0>        -0.1495
       2  C2         12.8510   30.7660   63.4900  C.3       1 <0>        -0.0937
       3  C3         12.5190   29.8680   64.6830  C.3       1 <0>        -0.1548
       4  C4         11.6430   31.6470   63.1640  C.3       1 <0>        -0.1274
       5  C5         12.1050   33.0920   62.9640  C.3       1 <0>         0.1182
       6  N1         11.2620   33.7400   61.9570  N.am      1 <0>        -0.7361
       7  C6         11.2590   35.0830   61.8420  C.2       1 <0>         0.5590
       8  O1         11.9570   35.7560   62.5750  O.2       1 <0>        -0.5405
       9  C7         10.4090   35.7360   60.8250  C.ar      1 <0>        -0.1120
      10  C8          9.9530   37.0400   61.0260  C.ar      1 <0>        -0.1038
      11  C9          9.1590   37.6490   60.0750  C.ar      1 <0>        -0.1055
      12  C10         8.8120   36.9700   58.9210  C.ar      1 <0>        -0.0920
      13  C11         9.2610   35.6710   58.7110  C.ar      1 <0>         0.1587
      14  C12        10.0550   35.0500   59.6630  C.ar      1 <0>        -0.0901
      15  N2          8.9080   34.9900   57.5430  N.pl3     1 <0>        -0.6646
      16  C13         7.7850   35.3760   56.8280  C.ar      1 <0>         0.4380
      17  C14         7.9070   35.8490   55.5180  C.ar      1 <0>        -0.2822
      18  C15         6.7600   36.2240   54.8440  C.ar      1 <0>         0.1832
      19  N3          5.5880   36.1250   55.4530  N.ar      1 <0>        -0.5459
      20  C16         5.5020   35.6720   56.6960  C.ar      1 <0>         0.3996
      21  N4          6.5780   35.3080   57.3790  N.ar      1 <0>        -0.5575
      22  C17         4.1700   35.5790   57.3400  C.ar      1 <0>        -0.0205
      23  C18         4.0450   35.0170   58.6100  C.ar      1 <0>        -0.0807
      24  C19         2.8040   34.9330   59.2070  C.ar      1 <0>        -0.1008
      25  C20         1.6820   35.4010   58.5470  C.ar      1 <0>        -0.1321
      26  C21         1.7980   35.9600   57.2840  C.ar      1 <0>         0.0893
      27  C22         3.0380   36.0500   56.6780  C.ar      1 <0>        -0.1040
      28  F1          0.7010   36.4220   56.6470  F         1 <0>        -0.1358
@<TRIPOS>BOND
     1     1     2 1
     2     2     3 1
     3     2     4 1
     4     4     5 1
     5     5     6 1
     6     6     7 am
     7     7     8 2
     8     7     9 1
     9     9    14 ar
    10     9    10 ar
    11    10    11 ar
    12    11    12 ar
    13    12    13 ar
    14    13    14 ar
    15    13    15 1
    16    15    16 1
    17    16    21 ar
    18    16    17 ar
    19    17    18 ar
    20    18    19 ar
    21    19    20 ar
    22    20    21 ar
    23    20    22 1
    24    22    27 ar
    25    22    23 ar
    26    23    24 ar
    27    24    25 ar
    28    25    26 ar
    29    26    27 ar
    30    26    28 1

@<TRIPOS>MOLECULE
ZINC28640779_replica-1.pdb
 25 26 0 0 0
SMALL
GASTEIGER

@<TRIPOS>ATOM
       1  C1          0.7700   35.1780   57.8630  C.3       1 <0>        -0.1608
       2  C2          1.7340   36.0270   57.0330  C.3       1 <0>        -0.1348
       3  C3          3.1660   35.7960   57.5210  C.3       1 <0>         0.1441
       4  C4          4.0860   35.6650   56.3340  C.2       1 <0>         0.5250
       5  O1          3.7360   35.0290   55.3630  O.2       1 <0>        -0.4988
       6  N1          5.2980   36.2560   56.3530  N.am      1 <0>        -0.5908
       7  N2          6.1530   36.1340   55.2500  N.2       1 <0>        -0.2269
       8  C5          7.3990   36.4830   55.3530  C.2       1 <0>         0.1128
       9  C6          8.0630   36.4630   56.6690  C.ar      1 <0>        -0.1090
      10  C7          8.6490   35.2860   57.1430  C.ar      1 <0>        -0.1256
      11  C8          9.2690   35.2750   58.3750  C.ar      1 <0>        -0.1127
      12  C9          9.3130   36.4270   59.1400  C.ar      1 <0>        -0.0577
      13  C10         8.7320   37.5950   58.6810  C.ar      1 <0>        -0.1116
      14  C11         8.1130   37.6220   57.4480  C.ar      1 <0>        -0.0827
      15  C12         9.9920   36.4070   60.4860  C.3       1 <0>        -0.0620
      16  C13        10.5440   35.0060   60.7580  C.3       1 <0>        -0.1469
      17  C14         8.9800   36.7770   61.5720  C.3       1 <0>        -0.1475
      18  N3          3.2190   34.5670   58.3180  N.pl3     1 <0>        -0.7396
      19  C15         4.4080   34.1970   58.9520  C.ar      1 <0>         0.2173
      20  C16         4.9730   32.9530   58.7040  C.ar      1 <0>        -0.1796
      21  C17         6.1500   32.5920   59.3290  C.ar      1 <0>        -0.1054
      22  C18         6.7630   33.4660   60.2100  C.ar      1 <0>         0.0349
      23  C19         6.1990   34.7050   60.4640  C.ar      1 <0>        -0.1024
      24  C20         5.0250   35.0720   59.8380  C.ar      1 <0>        -0.1658
      25  F1          7.9130   33.1100   60.8240  F         1 <0>        -0.1466
@<TRIPOS>BOND
     1     1     2 1
     2     2     3 1
     3     3     4 1
     4     3    18 1
     5     4     5 2
     6     4     6 am
     7     6     7 1
     8     7     8 2
     9     8     9 1
    10     9    14 ar
    11     9    10 ar
    12    10    11 ar
    13    11    12 ar
    14    12    13 ar
    15    12    15 1
    16    13    14 ar
    17    15    16 1
    18    15    17 1
    19    18    19 1
    20    19    24 ar
    21    19    20 ar
    22    20    21 ar
    23    21    22 ar
    24    22    23 ar
    25    22    25 1
    26    23    24 ar

@<TRIPOS>MOLECULE
ZINC60941555_replica-1.pdb
 20 21 0 0 0
SMALL
GASTEIGER

@<TRIPOS>ATOM
       1  C1         -2.4160   29.7060   54.6180  C.3       1 <0>        -0.1494
       2  C2         -1.1730   29.6990   53.7260  C.3       1 <0>        -0.0465
       3  C3          0.0760   29.8950   54.5880  C.3       1 <0>        -0.1244
       4  C4         -0.3250   30.4920   55.9390  C.3       1 <0>         0.1172
       5  N1          0.2110   29.6620   57.0190  N.pl3     1 <0>        -0.7331
       6  C5         -0.4720   28.5170   57.4230  C.ar      1 <0>         0.2218
       7  C6         -1.6990   28.6310   58.0680  C.ar      1 <0>        -0.1799
       8  C7         -2.3770   27.5030   58.4690  C.ar      1 <0>        -0.0231
       9  C8         -1.8330   26.2380   58.2260  C.ar      1 <0>        -0.0679
      10  C9         -0.6010   26.1240   57.5770  C.ar      1 <0>        -0.0533
      11  C10         0.0710   27.2580   57.1730  C.ar      1 <0>         0.0166
      12  F1          1.2610   27.1500   56.5410  F         1 <0>        -0.1368
      13  C11        -2.5370   25.0620   58.6420  C.1       1 <0>         0.2583
      14  N2         -3.0940   24.1290   58.9710  N.1       1 <0>        -0.4201
      15  C12        -1.0810   28.3800   53.0030  C.ar      1 <0>        -0.0793
      16  C13        -1.6830   28.2250   51.7690  C.ar      1 <0>        -0.1147
      17  C14        -1.5990   27.0150   51.1060  C.ar      1 <0>        -0.1183
      18  C15        -0.9110   25.9600   51.6760  C.ar      1 <0>        -0.1230
      19  C16        -0.3080   26.1150   52.9100  C.ar      1 <0>        -0.1178
      20  C17        -0.3890   27.3270   53.5710  C.ar      1 <0>        -0.1168
@<TRIPOS>BOND
     1     1     2 1
     2     2     3 1
     3     2    15 1
     4     3     4 1
     5     4     5 1
     6     5     6 1
     7     6    11 ar
     8     6     7 ar
     9     7     8 ar
    10     8     9 ar
    11     9    10 ar
    12     9    13 1
    13    10    11 ar
    14    11    12 1
    15    13    14 3
    16    15    20 ar
    17    15    16 ar
    18    16    17 ar
    19    17    18 ar
    20    18    19 ar
    21    19    20 ar

@<TRIPOS>MOLECULE
ZINC40753451_replica-1.pdb
 26 29 0 0 0
SMALL
GASTEIGER

@<TRIPOS>ATOM
       1  C1         10.0470   34.6860   60.3840  C.ar      1 <0>        -0.0463
       2  C2          8.9450   34.0050   60.8670  C.ar      1 <0>        -0.1617
       3  C3          7.8950   33.6940   60.0200  C.ar      1 <0>         0.1522
       4  C4          7.9490   34.0660   58.6870  C.ar      1 <0>        -0.1976
       5  C5          9.0530   34.7470   58.2040  C.ar      1 <0>         0.1491
       6  C6         10.1010   35.0570   59.0540  C.ar      1 <0>        -0.1622
       7  F1          9.1070   35.1100   56.9040  F         1 <0>        -0.1231
       8  C7          6.8080   33.7280   57.7640  C.3       1 <0>         0.1495
       9  N1          5.5970   34.4240   58.2080  N.pl3     1 <0>        -0.4609
      10  C8          4.4280   33.8370   58.6480  C.ar      1 <0>        -0.0075
      11  C9          3.9930   32.5340   58.8200  C.ar      1 <0>         0.1386
      12  N2          2.7780   32.2930   59.2730  N.ar      1 <0>        -0.4631
      13  C10         1.9330   33.2640   59.5790  C.ar      1 <0>         0.0729
      14  C11         2.2760   34.5780   59.4400  C.ar      1 <0>        -0.1132
      15  C12         3.5540   34.8960   58.9640  C.ar      1 <0>         0.0877
      16  N3          4.2080   36.0450   58.7110  N.2       1 <0>        -0.4630
      17  C13         5.4150   35.7790   58.2700  C.2       1 <0>         0.3366
      18  C14         6.4240   36.7900   57.8940  C.ar      1 <0>        -0.1034
      19  C15         7.1510   37.4600   58.8840  C.ar      1 <0>         0.1523
      20  C16         8.0930   38.4040   58.5250  C.ar      1 <0>        -0.1593
      21  C17         8.3180   38.6890   57.1890  C.ar      1 <0>        -0.0382
      22  C18         7.6040   38.0320   56.2050  C.ar      1 <0>        -0.1613
      23  C19         6.6620   37.0800   56.5470  C.ar      1 <0>         0.1770
      24  F2          5.9700   36.4340   55.5840  F         1 <0>        -0.1147
      25  F3          6.9320   37.1830   60.1880  F         1 <0>        -0.1234
      26  F4          6.8190   33.0290   60.4930  F         1 <0>        -0.1224
@<TRIPOS>BOND
     1     1     6 ar
     2     1     2 ar
     3     2     3 ar
     4     3     4 ar
     5     3    26 1
     6     4     5 ar
     7     4     8 1
     8     5     6 ar
     9     5     7 1
    10     8     9 1
    11     9    17 1
    12     9    10 1
    13    10    15 ar
    14    10    11 ar
    15    11    12 ar
    16    12    13 ar
    17    13    14 ar
    18    14    15 ar
    19    15    16 1
    20    16    17 2
    21    17    18 1
    22    18    23 ar
    23    18    19 ar
    24    19    20 ar
    25    19    25 1
    26    20    21 ar
    27    21    22 ar
    28    22    23 ar
    29    23    24 1

@<TRIPOS>MOLECULE
ZINC12769981_replica-1.pdb
 25 27 0 0 0
SMALL
GASTEIGER

@<TRIPOS>ATOM
       1  C1         -1.0040   26.4900   51.5890  C.ar      1 <0>        -0.1115
       2  C2         -1.4610   27.7770   51.8010  C.ar      1 <0>        -0.1140
       3  C3         -1.1910   28.4190   52.9940  C.ar      1 <0>        -0.0993
       4  C4         -0.4640   27.7750   53.9770  C.ar      1 <0>        -0.0964
       5  C5         -0.0030   26.4890   53.7650  C.ar      1 <0>        -0.1080
       6  C6         -0.2770   25.8440   52.5730  C.ar      1 <0>        -0.1137
       7  C7         -0.1700   28.4740   55.2790  C.3       1 <0>         0.2788
       8  C8         -1.0310   27.8920   56.3690  C.2       1 <0>        -0.1548
       9  C9         -2.2810   28.2490   56.7520  C.2       1 <0>        -0.1393
      10  C10        -2.8870   27.5630   57.7880  C.2       1 <0>        -0.1554
      11  C11        -2.2090   26.5600   58.3960  C.2       1 <0>        -0.1702
      12  S1         -0.6690   26.5530   57.4930  S.3       1 <0>         0.0427
      13  N1         -0.4580   29.9040   55.1410  N.am      1 <0>        -0.7204
      14  C12         0.1530   30.7950   55.9460  C.2       1 <0>         0.5148
      15  O1          0.9410   30.4140   56.7860  O.2       1 <0>        -0.5202
      16  C13        -0.1440   32.2660   55.8050  C.3       1 <0>         0.1060
      17  N2         -0.3310   32.8570   57.1330  N.pl3     1 <0>        -0.7307
      18  C14         0.5680   33.8230   57.6020  C.ar      1 <0>         0.1830
      19  C15         1.3360   34.5520   56.7060  C.ar      1 <0>        -0.1491
      20  C16         2.2220   35.5040   57.1710  C.ar      1 <0>        -0.1089
      21  C17         2.3430   35.7340   58.5310  C.ar      1 <0>         0.0690
      22  C18         1.5780   35.0090   59.4280  C.ar      1 <0>        -0.1396
      23  C19         0.6870   34.0580   58.9680  C.ar      1 <0>         0.0545
      24  F1         -0.0630   33.3520   59.8430  F         1 <0>        -0.1323
      25  F2          3.2110   36.6660   58.9820  F         1 <0>        -0.1363
@<TRIPOS>BOND
     1     1     6 ar
     2     1     2 ar
     3     2     3 ar
     4     3     4 ar
     5     4     5 ar
     6     4     7 1
     7     5     6 ar
     8     7     8 1
     9     7    13 1
    10     8    12 1
    11     8     9 2
    12     9    10 1
    13    10    11 2
    14    11    12 1
    15    13    14 am
    16    14    15 2
    17    14    16 1
    18    16    17 1
    19    17    18 1
    20    18    23 ar
    21    18    19 ar
    22    19    20 ar
    23    20    21 ar
    24    21    22 ar
    25    21    25 1
    26    22    23 ar
    27    23    24 1

@<TRIPOS>MOLECULE
ZINC11864433_replica-1.pdb
 25 26 0 0 0
SMALL
GASTEIGER

@<TRIPOS>ATOM
       1  C1          9.5730   35.1250   58.6970  C.3       1 <0>        -0.1187
       2  C2          8.0890   35.3820   58.7260  C.ar      1 <0>        -0.0436
       3  C3          7.3140   34.8430   59.7340  C.ar      1 <0>        -0.1489
       4  C4          5.9470   35.0810   59.7600  C.ar      1 <0>         0.1294
       5  C5          5.3620   35.8550   58.7680  C.ar      1 <0>        -0.2127
       6  C6          6.1420   36.3970   57.7650  C.ar      1 <0>        -0.0712
       7  C7          7.5030   36.1580   57.7420  C.ar      1 <0>        -0.1139
       8  C8          8.3510   36.7440   56.6420  C.3       1 <0>        -0.0577
       9  C9          7.6340   36.5780   55.3010  C.3       1 <0>        -0.1461
      10  C10         8.5820   38.2320   56.9150  C.3       1 <0>        -0.1449
      11  O1          5.1840   34.5520   60.7510  O.3       1 <0>        -0.3079
      12  C11         5.2060   33.1300   60.8980  C.3       1 <0>         0.0596
      13  C12         4.2100   32.5010   59.9220  C.3       1 <0>         0.0562
      14  O2          4.9050   31.6180   59.0370  O.3       1 <0>        -0.2977
      15  C13         5.3570   32.1460   57.8700  C.ar      1 <0>         0.1994
      16  C14         4.4790   32.7830   57.0100  C.ar      1 <0>        -0.2554
      17  C15         4.9430   33.3240   55.8210  C.ar      1 <0>         0.1845
      18  C16         6.2880   33.2210   55.4810  C.ar      1 <0>        -0.2537
      19  C17         7.1690   32.5850   56.3270  C.ar      1 <0>        -0.0038
      20  C18         6.7120   32.0410   57.5300  C.ar      1 <0>        -0.1781
      21  C19         7.6530   31.3590   58.4380  C.2       1 <0>         0.1606
      22  N1          7.8610   30.0870   58.3200  N.2       1 <0>        -0.3309
      23  O3          7.0610   29.3180   57.4400  O.3       1 <0>        -0.4370
      24  O4          4.0810   33.9530   54.9820  O.3       1 <0>        -0.3141
      25  C20         4.6510   34.7250   53.9240  C.3       1 <0>         0.0220
@<TRIPOS>BOND
     1     1     2 1
     2     2     7 ar
     3     2     3 ar
     4     3     4 ar
     5     4     5 ar
     6     4    11 1
     7     5     6 ar
     8     6     7 ar
     9     7     8 1
    10     8     9 1
    11     8    10 1
    12    11    12 1
    13    12    13 1
    14    13    14 1
    15    14    15 1
    16    15    20 ar
    17    15    16 ar
    18    16    17 ar
    19    17    18 ar
    20    17    24 1
    21    18    19 ar
    22    19    20 ar
    23    20    21 1
    24    21    22 2
    25    22    23 1
    26    24    25 1

@<TRIPOS>MOLECULE
ZINC32188380_replica-1.pdb
 22 23 0 0 0
SMALL
GASTEIGER

@<TRIPOS>ATOM
       1  C1         -1.9180   26.9390   50.8610  C.3       1 <0>        -0.1463
       2  C2         -0.6960   26.9610   51.7820  C.3       1 <0>        -0.0539
       3  C3         -0.4820   25.5680   52.3790  C.3       1 <0>        -0.1464
       4  C4         -0.9210   27.9550   52.8920  C.ar      1 <0>        -0.1136
       5  C5         -1.7970   29.0090   52.7080  C.ar      1 <0>        -0.0741
       6  C6         -2.0100   29.9180   53.7260  C.ar      1 <0>        -0.2072
       7  C7         -1.3350   29.7790   54.9310  C.ar      1 <0>         0.1250
       8  C8         -0.4520   28.7230   55.1110  C.ar      1 <0>        -0.1478
       9  C9         -0.2470   27.8140   54.0910  C.ar      1 <0>        -0.0778
      10  O1         -1.5380   30.6740   55.9320  O.3       1 <0>        -0.3053
      11  C10        -0.4060   31.0190   56.7340  C.3       1 <0>         0.0678
      12  C11         0.2170   32.3120   56.2080  C.3       1 <0>         0.1121
      13  C12         0.5120   33.2510   57.3800  C.3       1 <0>         0.0959
      14  N1          1.1990   32.5080   58.4400  N.pl3     1 <0>        -0.7524
      15  C13         0.7670   32.6220   59.7640  C.ar      1 <0>         0.2481
      16  C14         0.8160   31.5200   60.6090  C.ar      1 <0>        -0.2053
      17  C15         0.3880   31.6350   61.9170  C.ar      1 <0>        -0.0421
      18  C16        -0.0850   32.8450   62.3890  C.ar      1 <0>        -0.2138
      19  C17        -0.1340   33.9460   61.5500  C.ar      1 <0>         0.1467
      20  C18         0.2960   33.8390   60.2400  C.ar      1 <0>        -0.2396
      21  F1         -0.5970   35.1270   62.0140  F         1 <0>        -0.1390
      22  O2          1.4350   32.0100   55.5240  O.3       1 <0>        -0.5835
@<TRIPOS>BOND
     1     1     2 1
     2     2     3 1
     3     2     4 1
     4     4     9 ar
     5     4     5 ar
     6     5     6 ar
     7     6     7 ar
     8     7     8 ar
     9     7    10 1
    10     8     9 ar
    11    10    11 1
    12    11    12 1
    13    12    13 1
    14    12    22 1
    15    13    14 1
    16    14    15 1
    17    15    20 ar
    18    15    16 ar
    19    16    17 ar
    20    17    18 ar
    21    18    19 ar
    22    19    20 ar
    23    19    21 1

@<TRIPOS>MOLECULE
ZINC00345400_replica-1.pdb
 25 26 0 0 0
SMALL
GASTEIGER

@<TRIPOS>ATOM
       1  C1          4.7060   35.5070   59.4000  C.3       1 <0>        -0.1173
       2  C2          3.2770   35.1040   59.1430  C.ar      1 <0>        -0.0421
       3  C3          2.5590   35.7110   58.1300  C.ar      1 <0>        -0.1570
       4  C4          1.2500   35.3380   57.8890  C.ar      1 <0>        -0.0403
       5  C5          0.6550   34.3580   58.6600  C.ar      1 <0>        -0.1534
       6  C6          1.3740   33.7470   59.6770  C.ar      1 <0>         0.1351
       7  C7          2.6890   34.1220   59.9170  C.ar      1 <0>        -0.2185
       8  O1          0.7930   32.7820   60.4360  O.3       1 <0>        -0.2881
       9  C8          1.4440   31.5100   60.4820  C.3       1 <0>         0.0499
      10  C9          1.4330   30.8910   59.1080  C.2       1 <0>         0.5313
      11  O2          2.4790   30.6270   58.5540  O.2       1 <0>        -0.4749
      12  N1          0.2610   30.6320   58.4970  N.am      1 <0>        -0.5824
      13  N2          0.2500   30.0560   57.2190  N.2       1 <0>        -0.2287
      14  C10        -0.5790   29.0940   56.9470  C.2       1 <0>         0.1417
      15  C11        -1.5280   28.5980   58.0050  C.3       1 <0>        -0.1587
      16  C12        -0.5890   28.4880   55.6020  C.ar      1 <0>        -0.0570
      17  C13        -1.3210   29.0810   54.5720  C.ar      1 <0>        -0.0887
      18  C14        -1.3210   28.5120   53.3150  C.ar      1 <0>        -0.1196
      19  C15        -0.6080   27.3500   53.0780  C.ar      1 <0>        -0.0567
      20  C16         0.1150   26.7540   54.0960  C.ar      1 <0>        -0.1222
      21  C17         0.1280   27.3150   55.3560  C.ar      1 <0>        -0.0732
      22  C18        -0.6180   26.7320   51.7040  C.3       1 <0>        -0.0617
      23  C19        -0.7340   25.2110   51.8290  C.3       1 <0>        -0.1453
      24  C20        -1.8100   27.2700   50.9110  C.3       1 <0>        -0.1453
      25  C21         0.4690   36.0030   56.7840  C.3       1 <0>        -0.1173
@<TRIPOS>BOND
     1     1     2 1
     2     2     7 ar
     3     2     3 ar
     4     3     4 ar
     5     4     5 ar
     6     4    25 1
     7     5     6 ar
     8     6     7 ar
     9     6     8 1
    10     8     9 1
    11     9    10 1
    12    10    11 2
    13    10    12 am
    14    12    13 1
    15    13    14 2
    16    14    15 1
    17    14    16 1
    18    16    21 ar
    19    16    17 ar
    20    17    18 ar
    21    18    19 ar
    22    19    20 ar
    23    19    22 1
    24    20    21 ar
    25    22    23 1
    26    22    24 1

@<TRIPOS>MOLECULE
ZINC08444068_replica-1.pdb
 34 38 0 0 0
SMALL
GASTEIGER

@<TRIPOS>ATOM
       1  C1          2.5700   36.0420   58.5770  C.3       1 <0>        -0.1505
       2  C2          2.9470   35.4510   57.2180  C.3       1 <0>        -0.1217
       3  C3          3.0580   33.9300   57.3360  C.3       1 <0>         0.0592
       4  O1          4.2170   33.5940   58.1000  O.3       1 <0>        -0.3087
       5  C4          5.3700   33.3830   57.4130  C.ar      1 <0>         0.1490
       6  C5          5.3400   32.7280   56.1900  C.ar      1 <0>        -0.2118
       7  C6          6.5150   32.5100   55.4950  C.ar      1 <0>        -0.0809
       8  C7          7.7180   32.9530   56.0130  C.ar      1 <0>        -0.1593
       9  C8          7.7500   33.6070   57.2310  C.ar      1 <0>        -0.0674
      10  C9          6.5790   33.8220   57.9320  C.ar      1 <0>        -0.1060
      11  C10         6.6160   34.5330   59.2600  C.3       1 <0>         0.2871
      12  C11         8.0040   34.3970   59.8390  C.2       1 <0>        -0.2949
      13  C12         8.9100   35.3770   59.9650  C.2       1 <0>         0.2558
      14  C13        10.2880   35.0860   60.5350  C.3       1 <0>        -0.1016
      15  C14        10.1930   33.9820   61.5870  C.3       1 <0>        -0.0333
      16  C15         9.6270   32.7320   60.9020  C.3       1 <0>        -0.1520
      17  C16         8.3100   33.0840   60.2770  C.2       1 <0>         0.3965
      18  O2          7.4760   32.2110   60.1410  O.2       1 <0>        -0.4652
      19  C17        11.5620   33.6870   62.1420  C.ar      1 <0>        -0.1183
      20  C18        11.7830   32.5160   62.8450  C.ar      1 <0>        -0.0724
      21  C19        13.0390   32.2410   63.3500  C.ar      1 <0>        -0.2053
      22  C20        14.0760   33.1430   63.1620  C.ar      1 <0>         0.1275
      23  C21        13.8490   34.3190   62.4610  C.ar      1 <0>        -0.1493
      24  C22        12.5930   34.5880   61.9530  C.ar      1 <0>        -0.0705
      25  O3         15.3100   32.8760   63.6620  O.3       1 <0>        -0.3178
      26  C23        15.7850   33.7300   64.7060  C.3       1 <0>         0.0265
      27  N1          8.7090   36.6690   59.6000  N.pl3     1 <0>        -0.6847
      28  C24         8.1560   37.0740   58.3900  C.ar      1 <0>         0.1166
      29  C25         8.8600   37.8440   57.4790  C.ar      1 <0>        -0.1142
      30  C26         8.2170   38.3050   56.3420  C.ar      1 <0>        -0.1232
      31  C27         6.8870   37.9990   56.1190  C.ar      1 <0>        -0.1077
      32  C28         6.1900   37.2120   57.0190  C.ar      1 <0>        -0.1255
      33  C29         6.8340   36.7340   58.1490  C.ar      1 <0>         0.1761
      34  N2          6.1870   35.9020   59.0600  N.pl3     1 <0>        -0.7621
@<TRIPOS>BOND
     1     1     2 1
     2     2     3 1
     3     3     4 1
     4     4     5 1
     5     5    10 ar
     6     5     6 ar
     7     6     7 ar
     8     7     8 ar
     9     8     9 ar
    10     9    10 ar
    11    10    11 1
    12    11    34 1
    13    11    12 1
    14    12    17 1
    15    12    13 2
    16    13    14 1
    17    13    27 1
    18    14    15 1
    19    15    16 1
    20    15    19 1
    21    16    17 1
    22    17    18 2
    23    19    24 ar
    24    19    20 ar
    25    20    21 ar
    26    21    22 ar
    27    22    23 ar
    28    22    25 1
    29    23    24 ar
    30    25    26 1
    31    27    28 1
    32    28    33 ar
    33    28    29 ar
    34    29    30 ar
    35    30    31 ar
    36    31    32 ar
    37    32    33 ar
    38    33    34 1

@<TRIPOS>MOLECULE
ZINC04027722_replica-1.pdb
 29 31 0 0 0
SMALL
GASTEIGER

@<TRIPOS>ATOM
       1  C1          1.2190   27.8170   59.0790  C.3       1 <0>        -0.1372
       2  C2          0.0560   27.5840   58.1110  C.3       1 <0>         0.1126
       3  C3          0.3340   28.3140   56.7940  C.3       1 <0>        -0.1435
       4  C4         -0.8610   28.1250   55.8540  C.3       1 <0>        -0.0850
       5  C5         -2.1290   28.6350   56.5450  C.3       1 <0>        -0.1508
       6  C6         -2.3100   27.8940   57.8730  C.3       1 <0>         0.0583
       7  O1         -1.1510   28.0850   58.6870  O.3       1 <0>        -0.3750
       8  C7         -0.6270   28.9160   54.5650  C.3       1 <0>        -0.0400
       9  C8         -1.6000   30.0950   54.5060  C.3       1 <0>        -0.1261
      10  C9         -0.8140   31.4070   54.5520  C.3       1 <0>         0.1231
      11  N1         -0.7000   31.8590   55.9410  N.am      1 <0>        -0.7409
      12  C10         0.5160   31.9940   56.5080  C.2       1 <0>         0.5412
      13  O2          1.5170   31.7410   55.8660  O.2       1 <0>        -0.4728
      14  C11         0.6320   32.4510   57.9110  C.ar      1 <0>        -0.1218
      15  C12         0.4940   31.5410   58.9560  C.ar      1 <0>        -0.0979
      16  C13         0.6090   31.9710   60.2660  C.ar      1 <0>        -0.1457
      17  C14         0.8500   33.3040   60.5460  C.ar      1 <0>        -0.1042
      18  C15         0.9840   34.2220   59.5210  C.ar      1 <0>        -0.1059
      19  C16         0.8770   33.8060   58.1960  C.ar      1 <0>        -0.0367
      20  C17         1.0200   34.7840   57.0970  C.2       1 <0>         0.4972
      21  O3          0.0860   35.4990   56.7950  O.co2     1 <0>        -0.5973
      22  C18        -0.8540   28.0180   53.3760  C.ar      1 <0>        -0.0641
      23  C19        -1.5940   28.4700   52.3000  C.ar      1 <0>        -0.1141
      24  C20        -1.8040   27.6440   51.2110  C.ar      1 <0>        -0.1200
      25  C21        -1.2690   26.3710   51.1960  C.ar      1 <0>        -0.1268
      26  C22        -0.5260   25.9190   52.2710  C.ar      1 <0>        -0.1195
      27  C23        -0.3190   26.7430   53.3620  C.ar      1 <0>        -0.1156
      28  C24        -0.0900   26.0840   57.8430  C.3       1 <0>        -0.1824
      29  O4          2.1860   34.8830   56.4310  O.co2     1 <0>        -0.7608
@<TRIPOS>BOND
     1     1     2 1
     2     2     7 1
     3     2     3 1
     4     2    28 1
     5     3     4 1
     6     4     5 1
     7     4     8 1
     8     5     6 1
     9     6     7 1
    10     8     9 1
    11     8    22 1
    12     9    10 1
    13    10    11 1
    14    11    12 am
    15    12    13 2
    16    12    14 1
    17    14    19 ar
    18    14    15 ar
    19    15    16 ar
    20    16    17 ar
    21    17    18 ar
    22    18    19 ar
    23    19    20 1
    24    20    21 2
    25    20    29 1
    26    22    27 ar
    27    22    23 ar
    28    23    24 ar
    29    24    25 ar
    30    25    26 ar
    31    26    27 ar

@<TRIPOS>MOLECULE
ZINC49895612_replica-1.pdb
 22 23 0 0 0
SMALL
GASTEIGER

@<TRIPOS>ATOM
      1  C9        -1.3790   30.2530   54.9280 C.3     0  <0>0        0.0550
      2  C8        -0.1900   29.3140   55.1310 C.3     0  <0>0        0.1344
      3  C5        -0.2990   28.1510   54.1790 C.ar    0  <0>0        0.0043
      4  C4         0.2870   26.9410   54.4960 C.ar    0  <0>0       -0.0023
      5  C3         0.1860   25.8740   53.6230 C.ar    0  <0>0       -0.0045
      6  C2        -0.5030   26.0170   52.4330 C.ar    0  <0>0       -0.0219
      7  C1        -0.6130   24.8540   51.4810 C.3     0  <0>0        0.0310
      8  C7        -1.0840   27.2300   52.1140 C.ar    0  <0>0       -0.0045
      9  C6        -0.9870   28.2960   52.9890 C.ar    0  <0>0       -0.0023
     10  O1         1.0250   30.0220   54.8820 O.3     0  <0>0       -0.3800
     11  H17        0.9260   30.9840   54.8800 H       0  <0>0        0.2108
     12  C10       -1.4620   31.2340   56.1010 C.3     0  <0>0        0.0899
     13  N1        -0.4600   32.2880   55.9270 N.pl3   0  <0>0       -0.3325
     14  H13       -0.2870   32.6530   55.0450 H       0  <0>0        0.1468
     15  C11        0.2490   32.7680   57.0340 C.ar    0  <0>0        0.0456
     16  C16        0.8270   34.0290   56.9940 C.ar    0  <0>0        0.0280
     17  C15        1.5210   34.5040   58.0910 C.ar    0  <0>0        0.0863
     18  C14        1.6510   33.7160   59.2240 C.ar    0  <0>0        0.1507
     19 Cl          2.2380   36.0840   58.0480 Cl      0  <0>0       -0.0799
     20  C13        1.0800   32.4560   59.2620 C.ar    0  <0>0        0.0318
     21  F1         2.3350   34.1790   60.2940 F       0  <0>0       -0.2033
     22  C12        0.3800   31.9800   58.1700 C.ar    0  <0>0        0.0167
@<TRIPOS>BOND
     1     7     6    1
     2     8     6   ar
     3     8     9   ar
     4     6     5   ar
     5     9     3   ar
     6     5     4   ar
     7     3     4   ar
     8     3     2    1
     9    11    10    1
    10    10     2    1
    11     1     2    1
    12     1    12    1
    13    14    13    1
    14    13    12    1
    15    13    15    1
    16    16    15   ar
    17    16    17   ar
    18    15    22   ar
    19    19    17    1
    20    17    18   ar
    21    22    20   ar
    22    18    20   ar
    23    18    21    1


@<TRIPOS>MOLECULE
ZINC49921473_replica-1.pdb
 23 25 0 0 0
SMALL
GASTEIGER

@<TRIPOS>ATOM
       1  C1         -0.5030   24.8200   51.5620  C.3       1 <0>        -0.1083
       2  C2         -0.7700   26.2110   52.0780  C.ar      1 <0>        -0.1464
       3  C3         -1.4730   27.1110   51.3000  C.ar      1 <0>        -0.0690
       4  C4         -1.7190   28.3870   51.7680  C.ar      1 <0>        -0.1984
       5  C5         -1.2600   28.7640   53.0250  C.ar      1 <0>         0.2137
       6  C6         -0.5550   27.8560   53.8030  C.ar      1 <0>        -0.1944
       7  C7         -0.3170   26.5800   53.3300  C.ar      1 <0>        -0.0394
       8  C8          0.4440   25.5930   54.1780  C.3       1 <0>        -0.1180
       9  N1         -1.5070   30.0530   53.5020  N.pl3     1 <0>        -0.7513
      10  C9         -2.8810   30.4840   53.7730  C.3       1 <0>         0.1292
      11  C10        -3.0640   30.6900   55.2790  C.3       1 <0>        -0.1574
      12  C11        -1.7030   30.5950   55.9730  C.3       1 <0>         0.1548
      13  C12        -1.7780   29.5820   57.0870  C.ar      1 <0>        -0.1195
      14  C13        -2.5970   28.4740   56.9620  C.ar      1 <0>        -0.1134
      15  C14        -2.6630   27.5540   57.9880  C.ar      1 <0>        -0.1161
      16  C15        -1.9140   27.7290   59.1430  C.ar      1 <0>        -0.0734
      17  C16        -1.0960   28.8290   59.2650  C.ar      1 <0>        -0.0720
      18  C17        -1.0290   29.7540   58.2310  C.ar      1 <0>        -0.1090
      19  C18        -0.2440   29.0760   60.4820  C.3       1 <0>        -0.0828
      20  C19        -0.7360   28.2390   61.6620  C.3       1 <0>        -0.1211
      21  C20        -0.8670   26.7830   61.1990  C.3       1 <0>        -0.1209
      22  C21        -2.0400   26.6890   60.2250  C.3       1 <0>        -0.0832
      23  O1         -1.3550   31.8720   56.5130  O.3       1 <0>        -0.5516
@<TRIPOS>BOND
     1     1     2 1
     2     2     7 ar
     3     2     3 ar
     4     3     4 ar
     5     4     5 ar
     6     5     6 ar
     7     5     9 1
     8     6     7 ar
     9     7     8 1
    10     9    10 1
    11    10    11 1
    12    11    12 1
    13    12    13 1
    14    12    23 1
    15    13    18 ar
    16    13    14 ar
    17    14    15 ar
    18    15    16 ar
    19    16    22 1
    20    16    17 ar
    21    17    18 ar
    22    17    19 1
    23    19    20 1
    24    20    21 1
    25    21    22 1

@<TRIPOS>MOLECULE
ZINC03267477_replica-1.pdb
 23 24 0 0 0
SMALL
GASTEIGER

@<TRIPOS>ATOM
       1  C1          7.0770   37.3280   60.4110  C.3       1 <0>        -0.1183
       2  C2          7.3290   37.4530   58.9310  C.ar      1 <0>        -0.0855
       3  C3          8.3980   38.2000   58.4730  C.ar      1 <0>        -0.1162
       4  C4          8.6310   38.3140   57.1150  C.ar      1 <0>        -0.1071
       5  C5          7.7970   37.6820   56.2110  C.ar      1 <0>        -0.1162
       6  C6          6.7310   36.9290   56.6630  C.ar      1 <0>        -0.0679
       7  C7          6.4900   36.8170   58.0250  C.ar      1 <0>         0.1178
       8  N1          5.4080   36.0590   58.4860  N.pl3     1 <0>        -0.6087
       9  C8          5.1070   34.8870   57.8950  C.2       1 <0>         0.5856
      10  S1          3.8360   34.8080   56.7500  S.2       1 <0>        -0.5927
      11  N2          5.8060   33.7760   58.2030  N.pl3     1 <0>        -0.5347
      12  N3          6.8460   33.8410   59.1400  N.2       1 <0>        -0.2933
      13  C9          8.0800   33.7870   58.7440  C.2       1 <0>         0.1609
      14  C10         9.1750   33.8560   59.7300  C.ar      1 <0>        -0.0772
      15  C11        10.0260   34.9630   59.7570  C.ar      1 <0>        -0.0704
      16  C12        11.0460   35.0220   60.6840  C.ar      1 <0>        -0.1280
      17  C13        11.2320   33.9850   61.5800  C.ar      1 <0>        -0.0419
      18  C14        10.3950   32.8830   61.5560  C.ar      1 <0>        -0.1204
      19  C15         9.3690   32.8120   60.6370  C.ar      1 <0>        -0.0771
      20  C16        12.3530   34.0550   62.5860  C.3       1 <0>        -0.0349
      21  C17        12.1240   35.2420   63.5230  C.3       1 <0>        -0.1403
      22  C18        12.3860   32.7600   63.4000  C.3       1 <0>        -0.1473
      23  C19        13.6840   34.2320   61.8540  C.3       1 <0>        -0.1403
@<TRIPOS>BOND
     1     1     2 1
     2     2     7 ar
     3     2     3 ar
     4     3     4 ar
     5     4     5 ar
     6     5     6 ar
     7     6     7 ar
     8     7     8 1
     9     8     9 1
    10     9    10 2
    11     9    11 1
    12    11    12 1
    13    12    13 2
    14    13    14 1
    15    14    19 ar
    16    14    15 ar
    17    15    16 ar
    18    16    17 ar
    19    17    18 ar
    20    17    20 1
    21    18    19 ar
    22    20    21 1
    23    20    22 1
    24    20    23 1

@<TRIPOS>MOLECULE
ZINC64468063_replica-1.pdb
 26 27 0 0 0
SMALL
GASTEIGER

@<TRIPOS>ATOM
       1  C1          0.6740   27.4130   56.8140  C.3       1 <0>        -0.1527
       2  C2         -0.4250   27.6550   55.7760  C.3       1 <0>        -0.1168
       3  C3          0.2070   28.1170   54.4610  C.3       1 <0>        -0.0589
       4  C4         -0.1640   29.5790   54.2030  C.3       1 <0>         0.1298
       5  N1          0.7510   30.4530   54.9400  N.am      1 <0>        -0.7308
       6  C5          0.2650   31.3340   55.8370  C.2       1 <0>         0.4984
       7  O1         -0.9290   31.4020   56.0350  O.2       1 <0>        -0.5002
       8  C6          1.2070   32.2340   56.5950  C.3       1 <0>         0.1626
       9  C7          0.3990   33.2290   57.4320  C.3       1 <0>        -0.0979
      10  C8          0.6570   32.9800   58.8960  C.ar      1 <0>        -0.0817
      11  C9          1.1900   31.7730   59.3080  C.ar      1 <0>        -0.1172
      12  C10         1.4270   31.5460   60.6510  C.ar      1 <0>        -0.1180
      13  C11         1.1300   32.5250   61.5810  C.ar      1 <0>        -0.1203
      14  C12         0.5970   33.7310   61.1680  C.ar      1 <0>        -0.1171
      15  C13         0.3640   33.9600   59.8250  C.ar      1 <0>        -0.1049
      16  N2          2.0520   32.9660   55.6480  N.am      1 <0>        -0.6969
      17  C14         3.3450   33.2070   55.9450  C.2       1 <0>         0.6521
      18  O2          3.8100   32.8150   56.9970  O.2       1 <0>        -0.5416
      19  O3          4.1210   33.8800   55.0750  O.3       1 <0>        -0.3695
      20  C15         3.9180   35.2900   54.9800  C.3       1 <0>         0.0560
      21  C16        -0.3030   27.2620   53.3310  C.ar      1 <0>        -0.0740
      22  C17         0.0070   25.9160   53.2880  C.ar      1 <0>        -0.1126
      23  C18        -0.4610   25.1310   52.2510  C.ar      1 <0>        -0.1168
      24  C19        -1.2410   25.6930   51.2560  C.ar      1 <0>        -0.1213
      25  C20        -1.5520   27.0400   51.3000  C.ar      1 <0>        -0.1182
      26  C21        -1.0860   27.8230   52.3400  C.ar      1 <0>        -0.1138
@<TRIPOS>BOND
     1     1     2 1
     2     2     3 1
     3     3     4 1
     4     3    21 1
     5     4     5 1
     6     5     6 am
     7     6     7 2
     8     6     8 1
     9     8     9 1
    10     8    16 1
    11     9    10 1
    12    10    15 ar
    13    10    11 ar
    14    11    12 ar
    15    12    13 ar
    16    13    14 ar
    17    14    15 ar
    18    16    17 am
    19    17    18 2
    20    17    19 1
    21    19    20 1
    22    21    26 ar
    23    21    22 ar
    24    22    23 ar
    25    23    24 ar
    26    24    25 ar
    27    25    26 ar

@<TRIPOS>MOLECULE
CHEMBL217057_replica-1.pdb
 35 39 0 0 0
SMALL
GASTEIGER

@<TRIPOS>ATOM
       1  C1         -1.5130   28.5140   61.4020  C.ar      1 <0>        -0.1167
       2  C2         -2.0580   27.8590   60.3130  C.ar      1 <0>        -0.1178
       3  C3         -1.6860   28.2160   59.0330  C.ar      1 <0>        -0.1055
       4  C4         -0.7600   29.2400   58.8390  C.ar      1 <0>        -0.0391
       5  C5         -0.2160   29.8970   59.9400  C.ar      1 <0>        -0.0987
       6  C6         -0.5940   29.5310   61.2160  C.ar      1 <0>        -0.1173
       7  C7         -0.3570   29.6280   57.4650  C.ar      1 <0>        -0.0518
       8  C8          0.2610   30.8550   57.2400  C.ar      1 <0>        -0.1137
       9  C9          0.6390   31.2200   55.9560  C.ar      1 <0>         0.1373
      10  C10         0.4040   30.3630   54.8900  C.ar      1 <0>        -0.0897
      11  C11        -0.2130   29.1330   55.1050  C.ar      1 <0>        -0.0510
      12  C12        -0.5910   28.7600   56.3970  C.ar      1 <0>         0.1208
      13  O1         -1.1890   27.5600   56.6110  O.3       1 <0>        -0.4817
      14  C13        -0.4650   28.2190   53.9640  C.ar      1 <0>        -0.0492
      15  C14         0.1180   26.9540   53.9400  C.ar      1 <0>        -0.0849
      16  C15        -0.1190   26.1080   52.8760  C.ar      1 <0>        -0.1225
      17  C16        -0.9350   26.5130   51.8350  C.ar      1 <0>        -0.1143
      18  C17        -1.5180   27.7680   51.8540  C.ar      1 <0>        -0.1226
      19  C18        -1.2900   28.6210   52.9150  C.ar      1 <0>        -0.1041
      20  N1          1.2600   32.4560   55.7350  N.am      1 <0>        -0.6688
      21  C19         2.4400   32.7320   56.3270  C.2       1 <0>         0.5275
      22  O2          3.0040   31.8810   56.9820  O.2       1 <0>        -0.5072
      23  C20         3.0570   34.0980   56.1730  C.3       1 <0>        -0.1227
      24  C21         4.0950   34.1110   55.0270  C.3       1 <0>        -0.1477
      25  C22         5.1920   35.0230   55.5300  C.2       1 <0>         0.5207
      26  O3          6.0520   35.5230   54.8360  O.2       1 <0>        -0.5197
      27  N2          5.0750   35.1990   56.8570  N.am      1 <0>        -0.6181
      28  C23         3.9340   34.4490   57.3960  C.3       1 <0>         0.1163
      29  C24         5.9710   36.0330   57.6630  C.3       1 <0>         0.1685
      30  C25         7.3020   35.2810   57.8690  C.3       1 <0>        -0.1264
      31  C26         8.3670   36.2830   58.2240  C.3       1 <0>        -0.1167
      32  C27         8.5480   36.4350   59.7470  C.3       1 <0>        -0.1176
      33  C28         7.2080   36.4600   60.5080  C.3       1 <0>        -0.1232
      34  C29         6.1630   37.2860   59.8070  C.3       1 <0>        -0.1091
      35  C30         5.3130   36.3520   58.9210  C.3       1 <0>        -0.1421
@<TRIPOS>BOND
     1     1     6 ar
     2     1     2 ar
     3     2     3 ar
     4     3     4 ar
     5     4     5 ar
     6     4     7 1
     7     5     6 ar
     8     7    12 ar
     9     7     8 ar
    10     8     9 ar
    11     9    10 ar
    12     9    20 1
    13    10    11 ar
    14    11    12 ar
    15    11    14 1
    16    12    13 1
    17    14    19 ar
    18    14    15 ar
    19    15    16 ar
    20    16    17 ar
    21    17    18 ar
    22    18    19 ar
    23    20    21 am
    24    21    22 2
    25    21    23 1
    26    23    28 1
    27    23    24 1
    28    24    25 1
    29    25    26 2
    30    25    27 am
    31    27    28 1
    32    27    29 1
    33    29    35 1
    34    29    30 1
    35    30    31 1
    36    31    32 1
    37    32    33 1
    38    33    34 1
    39    34    35 1

@<TRIPOS>MOLECULE
ZINC10228724_replica-1.pdb
 28 30 0 0 0
SMALL
GASTEIGER

@<TRIPOS>ATOM
       1  C1         -2.8300   30.3610   53.2620  C.3       1 <0>        -0.1836
       2  C2         -1.4000   29.8340   53.3960  C.3       1 <0>         0.0853
       3  C3         -1.2910   28.4960   52.7110  C.ar      1 <0>        -0.1539
       4  C4         -0.4860   27.5090   53.2480  C.ar      1 <0>        -0.0913
       5  C5         -0.3900   26.2800   52.6240  C.ar      1 <0>        -0.1399
       6  C6         -1.0910   26.0420   51.4530  C.ar      1 <0>         0.1326
       7  C7         -1.8910   27.0340   50.9130  C.ar      1 <0>        -0.1421
       8  C8         -1.9900   28.2600   51.5430  C.ar      1 <0>        -0.0563
       9  F1         -0.9910   24.8430   50.8390  F         1 <0>        -0.1225
      10  C9         -0.3570   30.8530   55.3300  C.3       1 <0>        -0.0549
      11  C10        -2.3300   29.4760   55.6030  C.3       1 <0>        -0.0340
      12  C11        -2.0690   28.4870   56.7100  C.2       1 <0>         0.5076
      13  O1         -2.9350   28.2430   57.5220  O.2       1 <0>        -0.5170
      14  N1         -0.8720   27.8740   56.7970  N.am      1 <0>        -0.7001
      15  C12        -0.6180   26.9120   57.8720  C.3       1 <0>         0.2871
      16  C13        -0.2490   25.5770   57.2760  C.ar      1 <0>        -0.1204
      17  C14        -0.4770   24.4160   57.9900  C.ar      1 <0>        -0.0804
      18  C15        -0.1450   23.1910   57.4430  C.ar      1 <0>        -0.1466
      19  C16         0.4270   23.1290   56.1820  C.ar      1 <0>         0.1172
      20  C17         0.6580   24.2940   55.4700  C.ar      1 <0>        -0.1458
      21  C18         0.3200   25.5170   56.0180  C.ar      1 <0>        -0.0656
      22  F2          0.7560   21.9320   55.6480  F         1 <0>        -0.1301
      23  C19         0.5160   27.4080   58.7320  C.2       1 <0>        -0.1787
      24  C20         1.7270   27.8890   58.3550  C.2       1 <0>        -0.1225
      25  C21         2.6210   28.2910   59.3290  C.2       1 <0>        -0.1598
      26  C22         2.2620   28.1930   60.6320  C.2       1 <0>        -0.1537
      27  S1          0.6150   27.5150   60.5120  S.3       1 <0>         0.0381
      28  N2         -1.0840   29.6670   54.8300  N.4       1 <0>        -0.3817
@<TRIPOS>BOND
     1     1     2 1
     2     2     3 1
     3     2    28 1
     4     3     8 ar
     5     3     4 ar
     6     4     5 ar
     7     5     6 ar
     8     6     7 ar
     9     6     9 1
    10     7     8 ar
    11    10    28 1
    12    11    12 1
    13    11    28 1
    14    12    13 2
    15    12    14 am
    16    14    15 1
    17    15    16 1
    18    15    23 1
    19    16    21 ar
    20    16    17 ar
    21    17    18 ar
    22    18    19 ar
    23    19    20 ar
    24    19    22 1
    25    20    21 ar
    26    23    27 1
    27    23    24 2
    28    24    25 1
    29    25    26 2
    30    26    27 1

@<TRIPOS>MOLECULE
ZINC05174115_replica-1.pdb
 28 31 0 0 0
SMALL
GASTEIGER

@<TRIPOS>ATOM
       1  C1         12.2990   28.9700   65.3090  C.3       1 <0>         0.0243
       2  O1         13.0510   29.4330   64.1850  O.3       1 <0>        -0.3133
       3  C2         12.7820   30.6860   63.7370  C.ar      1 <0>         0.1481
       4  C3         13.8220   31.5840   63.5270  C.ar      1 <0>        -0.1567
       5  C4         13.5570   32.8500   63.0750  C.ar      1 <0>        -0.0472
       6  C5         12.2320   33.2400   62.8250  C.ar      1 <0>        -0.1237
       7  C6         11.1870   32.3300   63.0450  C.ar      1 <0>        -0.0539
       8  C7         11.4660   31.0660   63.4910  C.ar      1 <0>        -0.2152
       9  C8         11.9430   34.5910   62.3420  C.2       1 <0>         0.0390
      10  C9         10.9220   34.7950   61.4350  C.2       1 <0>        -0.1775
      11  C10        10.1330   33.7740   60.7290  C.2       1 <0>        -0.1891
      12  C11         9.2460   34.4340   59.9500  C.2       1 <0>         0.1596
      13  N1          9.4020   35.8030   60.0870  N.am      1 <0>        -0.4989
      14  C12        10.3840   36.0850   60.9630  C.2       1 <0>         0.5504
      15  O2         10.7590   37.1940   61.3000  O.2       1 <0>        -0.4990
      16  C13         8.6360   36.7640   59.4100  C.ar      1 <0>         0.1009
      17  C14         8.8280   36.9740   58.0520  C.ar      1 <0>        -0.0937
      18  C15         8.0730   37.9220   57.3870  C.ar      1 <0>        -0.1192
      19  C16         7.1260   38.6620   58.0720  C.ar      1 <0>        -0.0905
      20  C17         6.9260   38.4540   59.4240  C.ar      1 <0>        -0.1379
      21  C18         7.6830   37.5090   60.0990  C.ar      1 <0>         0.1246
      22  O3          7.4910   37.3070   61.4300  O.3       1 <0>        -0.4901
      23  C19         8.2510   33.7840   59.0730  C.ar      1 <0>        -0.0454
      24  C20         8.6290   33.3110   57.8140  C.ar      1 <0>        -0.0878
      25  C21         7.6960   32.7000   57.0030  C.ar      1 <0>        -0.1192
      26  C22         6.3860   32.5640   57.4280  C.ar      1 <0>        -0.1077
      27  C23         6.0040   33.0360   58.6720  C.ar      1 <0>        -0.1184
      28  C24         6.9270   33.6440   59.4970  C.ar      1 <0>        -0.0965
@<TRIPOS>BOND
     1     1     2 1
     2     2     3 1
     3     3     8 ar
     4     3     4 ar
     5     4     5 ar
     6     5     6 ar
     7     6     7 ar
     8     6     9 1
     9     7     8 ar
    10     9    10 2
    11    10    14 1
    12    10    11 1
    13    11    12 2
    14    12    13 1
    15    12    23 1
    16    13    14 am
    17    13    16 1
    18    14    15 2
    19    16    21 ar
    20    16    17 ar
    21    17    18 ar
    22    18    19 ar
    23    19    20 ar
    24    20    21 ar
    25    21    22 1
    26    23    28 ar
    27    23    24 ar
    28    24    25 ar
    29    25    26 ar
    30    26    27 ar
    31    27    28 ar

@<TRIPOS>MOLECULE
ZINC07742393_replica-1.pdb
 27 29 0 0 0
SMALL
GASTEIGER

@<TRIPOS>ATOM
       1  C1         -0.5770   25.0060   51.4760  C.3       1 <0>        -0.1183
       2  C2         -0.3760   25.9350   52.6450  C.ar      1 <0>        -0.0588
       3  C3          0.2860   25.4920   53.7750  C.ar      1 <0>        -0.1388
       4  C4          0.4730   26.3420   54.8490  C.ar      1 <0>        -0.0885
       5  C5         -0.0030   27.6380   54.7980  C.ar      1 <0>        -0.1576
       6  C6         -0.6690   28.0870   53.6640  C.ar      1 <0>         0.1617
       7  C7         -0.8540   27.2300   52.5860  C.ar      1 <0>        -0.1227
       8  C8         -1.5770   27.7120   51.3540  C.3       1 <0>        -0.1172
       9  N1         -1.1520   29.3970   53.6080  N.pl3     1 <0>        -0.5990
      10  C9         -1.0320   30.2300   54.7150  C.2       1 <0>         0.3340
      11  N2         -1.9110   30.4920   55.6630  N.2       1 <0>        -0.3531
      12  N3         -1.5800   31.3540   56.6830  N.2       1 <0>        -0.2802
      13  C10        -0.3890   31.9220   56.7020  C.2       1 <0>         0.0340
      14  S1          0.3520   31.2340   55.2290  S.3       1 <0>         0.0219
      15  S2          0.2890   33.0560   57.8690  S.3       1 <0>         0.1240
      16  C11         1.1250   34.2950   56.8420  C.3       1 <0>        -0.1208
      17  C12         0.8220   35.6940   57.3820  C.3       1 <0>        -0.1453
      18  C13         2.6120   34.0540   56.8750  C.2       1 <0>         0.5392
      19  O1          3.2070   33.7950   55.8500  O.2       1 <0>        -0.5191
      20  N4          3.2810   34.1270   58.0430  N.am      1 <0>        -0.7160
      21  C14         4.7270   33.8920   58.0750  C.3       1 <0>         0.1622
      22  C15         5.4340   35.1650   58.4600  C.ar      1 <0>        -0.1144
      23  C16         5.0230   35.8750   59.5730  C.ar      1 <0>        -0.0995
      24  C17         5.6760   37.0400   59.9280  C.ar      1 <0>        -0.1213
      25  C18         6.7340   37.5010   59.1660  C.ar      1 <0>        -0.1092
      26  C19         7.1410   36.7940   58.0500  C.ar      1 <0>        -0.1214
      27  C20         6.4910   35.6260   57.6970  C.ar      1 <0>        -0.0994
@<TRIPOS>BOND
     1     1     2 1
     2     2     7 ar
     3     2     3 ar
     4     3     4 ar
     5     4     5 ar
     6     5     6 ar
     7     6     7 ar
     8     6     9 1
     9     7     8 1
    10     9    10 1
    11    10    14 1
    12    10    11 2
    13    11    12 1
    14    12    13 2
    15    13    14 1
    16    13    15 1
    17    15    16 1
    18    16    17 1
    19    16    18 1
    20    18    19 2
    21    18    20 am
    22    20    21 1
    23    21    22 1
    24    22    27 ar
    25    22    23 ar
    26    23    24 ar
    27    24    25 ar
    28    25    26 ar
    29    26    27 ar

@<TRIPOS>MOLECULE
ZINC06899160_replica-1.pdb
 25 26 0 0 0
SMALL
GASTEIGER

@<TRIPOS>ATOM
       1  C1          8.3720   36.9840   56.6240  C.3       1 <0>        -0.1688
       2  C2          8.1880   36.5480   58.0790  C.3       1 <0>         0.0733
       3  C3          7.7230   35.1150   58.1200  C.2       1 <0>         0.5181
       4  O1          6.6750   34.8340   58.6610  O.2       1 <0>        -0.4941
       5  N1          8.4710   34.1480   57.5540  N.am      1 <0>        -0.6679
       6  C4          8.0890   32.8080   57.6770  C.ar      1 <0>         0.1395
       7  C5          7.2790   32.2240   56.7120  C.ar      1 <0>        -0.1418
       8  C6          6.9030   30.9010   56.8360  C.ar      1 <0>        -0.1018
       9  C7          7.3320   30.1580   57.9200  C.ar      1 <0>        -0.1310
      10  C8          8.1380   30.7360   58.8840  C.ar      1 <0>        -0.1017
      11  C9          8.5220   32.0570   58.7620  C.ar      1 <0>        -0.1201
      12  O2          9.4330   36.6660   58.7710  O.3       1 <0>        -0.3192
      13  C10         9.3800   36.7630   60.1140  C.2       1 <0>         0.5161
      14  O3          8.6420   37.5760   60.6350  O.2       1 <0>        -0.4986
      15  C11        10.2180   35.8840   60.9500  C.ar      1 <0>        -0.1479
      16  C12        10.1750   34.4990   60.7730  C.ar      1 <0>        -0.0186
      17  C13        10.9590   33.6810   61.5560  C.ar      1 <0>        -0.1363
      18  C14        11.7920   34.2330   62.5220  C.ar      1 <0>         0.1464
      19  C15        11.8380   35.6110   62.7020  C.ar      1 <0>        -0.2054
      20  C16        11.0620   36.4350   61.9190  C.ar      1 <0>        -0.0077
      21  O4         12.5630   33.4240   63.2920  O.3       1 <0>        -0.3062
      22  C17        13.9680   33.4210   63.0260  C.3       1 <0>         0.6042
      23  F1         14.6250   34.2020   63.9830  F         1 <0>        -0.1615
      24  F2         14.4500   32.1090   63.0850  F         1 <0>        -0.1264
      25  F3         14.2020   33.9480   61.7520  F         1 <0>        -0.1616
@<TRIPOS>BOND
     1     1     2 1
     2     2     3 1
     3     2    12 1
     4     3     4 2
     5     3     5 am
     6     5     6 1
     7     6    11 ar
     8     6     7 ar
     9     7     8 ar
    10     8     9 ar
    11     9    10 ar
    12    10    11 ar
    13    12    13 1
    14    13    14 2
    15    13    15 1
    16    15    20 ar
    17    15    16 ar
    18    16    17 ar
    19    17    18 ar
    20    18    19 ar
    21    18    21 1
    22    19    20 ar
    23    21    22 1
    24    22    23 1
    25    22    24 1
    26    22    25 1

@<TRIPOS>MOLECULE
ZINC00198257_replica-1.pdb
 26 28 0 0 0
SMALL
GASTEIGER

@<TRIPOS>ATOM
       1  C1          8.0470   38.5760   58.3480  C.3       1 <0>        -0.1095
       2  C2          8.6250   37.2010   58.5610  C.ar      1 <0>         0.2146
       3  C3          8.3650   36.1860   57.6580  C.ar      1 <0>        -0.2402
       4  C4          8.9240   34.9270   57.8910  C.ar      1 <0>         0.4351
       5  N1          9.6790   34.7480   58.9700  N.ar      1 <0>        -0.5546
       6  C5          9.9000   35.7450   59.8140  C.ar      1 <0>         0.4017
       7  N2          9.3820   36.9500   59.6170  N.ar      1 <0>        -0.5394
       8  C6         10.7490   35.5090   61.0080  C.ar      1 <0>        -0.0512
       9  C7         11.3190   34.2550   61.2230  C.ar      1 <0>        -0.0704
      10  C8         12.1110   34.0430   62.3330  C.ar      1 <0>        -0.1318
      11  C9         12.3310   35.0680   63.2360  C.ar      1 <0>        -0.0966
      12  C10        11.7640   36.3120   63.0300  C.ar      1 <0>        -0.1315
      13  C11        10.9740   36.5380   61.9200  C.ar      1 <0>        -0.0675
      14  N3          8.6950   33.8810   57.0110  N.pl3     1 <0>        -0.6484
      15  C12         7.9630   32.7730   57.4220  C.ar      1 <0>         0.1974
      16  C13         8.5510   31.8210   58.2510  C.ar      1 <0>        -0.1347
      17  C14         7.8340   30.7340   58.6620  C.ar      1 <0>        -0.0497
      18  C15         6.5080   30.5710   58.2400  C.ar      1 <0>        -0.1971
      19  C16         5.9220   31.5290   57.4010  C.ar      1 <0>        -0.0339
      20  C17         6.6450   32.6150   56.9990  C.ar      1 <0>        -0.1667
      21  C18         5.7350   29.4020   58.6750  C.2       1 <0>         0.3954
      22  O1          4.5230   29.4540   58.7080  O.2       1 <0>        -0.4631
      23  C19         6.4460   28.1370   59.0810  C.3       1 <0>        -0.1936
      24  C20         7.5020   36.4330   56.4480  C.3       1 <0>        -0.0415
      25  C21         6.0550   36.2170   56.8100  C.2       1 <0>        -0.1591
      26  C22         5.1280   36.3180   55.8890  C.2       1 <0>        -0.1786
@<TRIPOS>BOND
     1     1     2 1
     2     2     7 ar
     3     2     3 ar
     4     3     4 ar
     5     3    24 1
     6     4     5 ar
     7     4    14 1
     8     5     6 ar
     9     6     7 ar
    10     6     8 1
    11     8    13 ar
    12     8     9 ar
    13     9    10 ar
    14    10    11 ar
    15    11    12 ar
    16    12    13 ar
    17    14    15 1
    18    15    20 ar
    19    15    16 ar
    20    16    17 ar
    21    17    18 ar
    22    18    19 ar
    23    18    21 1
    24    19    20 ar
    25    21    22 2
    26    21    23 1
    27    24    25 1
    28    25    26 2

@<TRIPOS>MOLECULE
ZINC66166059_replica-1.pdb
 24 25 0 0 0
SMALL
GASTEIGER

@<TRIPOS>ATOM
       1  C1         12.0860   29.9330   64.0830  C.3       1 <0>        -0.1178
       2  C2         12.4010   31.2910   63.5110  C.ar      1 <0>        -0.0422
       3  C3         13.6820   31.8020   63.6110  C.ar      1 <0>        -0.1594
       4  C4         13.9740   33.0480   63.0860  C.ar      1 <0>        -0.0419
       5  C5         12.9870   33.7850   62.4610  C.ar      1 <0>        -0.1592
       6  C6         11.7010   33.2750   62.3600  C.ar      1 <0>         0.1363
       7  C7         11.4110   32.0220   62.8810  C.ar      1 <0>        -0.2170
       8  O1         10.7280   33.9970   61.7460  O.3       1 <0>        -0.3108
       9  C8         10.9880   35.3860   61.5310  C.3       1 <0>         0.0478
      10  C9         10.1150   35.8960   60.3840  C.3       1 <0>         0.1303
      11  N1          9.8450   34.8010   59.4500  N.pl3     1 <0>        -0.7481
      12  C10         9.0710   35.0300   58.3060  C.ar      1 <0>         0.1821
      13  C11         8.8880   36.3250   57.8400  C.ar      1 <0>        -0.1583
      14  C12         8.1240   36.5510   56.7120  C.ar      1 <0>        -0.1030
      15  C13         7.5410   35.4850   56.0440  C.ar      1 <0>         0.0740
      16  C14         7.7230   34.1910   56.5100  C.ar      1 <0>        -0.1585
      17  C15         8.4910   33.9620   57.6350  C.ar      1 <0>        -0.1545
      18  O2          6.7890   35.7080   54.9330  O.3       1 <0>        -0.3196
      19  C16         5.4240   35.2850   54.9770  C.3       1 <0>         0.0598
      20  C17         4.5970   36.3110   55.7530  C.3       1 <0>        -0.1147
      21  C18         3.8910   35.6200   56.9210  C.3       1 <0>        -0.0939
      22  C19         4.6180   35.9540   58.2260  C.3       1 <0>        -0.1537
      23  C20         2.4440   36.1100   57.0050  C.3       1 <0>        -0.1477
      24  C21        15.3720   33.6020   63.1970  C.3       1 <0>        -0.1169
@<TRIPOS>BOND
     1     1     2 1
     2     2     7 ar
     3     2     3 ar
     4     3     4 ar
     5     4     5 ar
     6     4    24 1
     7     5     6 ar
     8     6     7 ar
     9     6     8 1
    10     8     9 1
    11     9    10 1
    12    10    11 1
    13    11    12 1
    14    12    17 ar
    15    12    13 ar
    16    13    14 ar
    17    14    15 ar
    18    15    16 ar
    19    15    18 1
    20    16    17 ar
    21    18    19 1
    22    19    20 1
    23    20    21 1
    24    21    22 1
    25    21    23 1

@<TRIPOS>MOLECULE
ZINC33743198_replica-1.pdb
 30 33 0 0 0
SMALL
GASTEIGER

@<TRIPOS>ATOM
       1  C1          6.4420   33.4470   60.2780  C.3       1 <0>        -0.1553
       2  C2          5.5200   34.5510   60.8000  C.3       1 <0>        -0.1247
       3  C3          6.2190   35.9050   60.6640  C.3       1 <0>        -0.1159
       4  C4          5.3660   36.8340   59.7970  C.3       1 <0>        -0.0578
       5  C5          5.5600   36.4840   58.3440  C.2       1 <0>         0.0500
       6  C6          4.7120   35.7410   57.5880  C.2       1 <0>        -0.0970
       7  C7          5.3180   35.6700   56.2470  C.2       1 <0>        -0.2044
       8  C8          6.4800   36.3840   56.3180  C.2       1 <0>         0.0769
       9  N1          6.6180   36.8600   57.5720  N.pl3     1 <0>        -0.4255
      10  C9          7.7440   37.6730   58.0360  C.3       1 <0>         0.1404
      11  C10         8.7160   36.8020   58.7900  C.ar      1 <0>        -0.1052
      12  C11         9.0350   35.5450   58.3070  C.ar      1 <0>        -0.0891
      13  C12         9.9200   34.7400   58.9990  C.ar      1 <0>        -0.0986
      14  C13        10.4970   35.1930   60.1740  C.ar      1 <0>         0.0434
      15  C14        10.1810   36.4620   60.6570  C.ar      1 <0>         0.0346
      16  C15         9.2920   37.2630   59.9580  C.ar      1 <0>        -0.0823
      17  O1         10.8710   36.6720   61.8160  O.3       1 <0>        -0.3085
      18  C16        11.2950   35.3660   62.2520  C.3       1 <0>         0.2084
      19  O2         11.3840   34.6090   61.0310  O.3       1 <0>        -0.3025
      20  C17         7.4500   36.6010   55.1860  C.3       1 <0>        -0.0980
      21  C18         4.7780   34.9750   55.0690  C.2       1 <0>         0.6022
      22  O3          5.3160   33.9630   54.6590  O.2       1 <0>        -0.5492
      23  N2          3.6860   35.4590   54.4420  N.am      1 <0>        -0.8707
      24  C19         3.4340   35.1280   58.0240  C.ar      1 <0>        -0.0159
      25  C20         3.3410   33.7470   58.1880  C.ar      1 <0>        -0.0806
      26  C21         2.1520   33.1820   58.6000  C.ar      1 <0>        -0.1537
      27  C22         1.0470   33.9840   58.8380  C.ar      1 <0>         0.0955
      28  C23         1.1330   35.3560   58.6710  C.ar      1 <0>        -0.1513
      29  C24         2.3200   35.9310   58.2650  C.ar      1 <0>        -0.0711
      30  F1         -0.1180   33.4260   59.2350  F         1 <0>        -0.1410
@<TRIPOS>BOND
     1     1     2 1
     2     2     3 1
     3     3     4 1
     4     4     5 1
     5     5     9 1
     6     5     6 2
     7     6     7 1
     8     6    24 1
     9     7     8 2
    10     7    21 1
    11     8     9 1
    12     8    20 1
    13     9    10 1
    14    10    11 1
    15    11    16 ar
    16    11    12 ar
    17    12    13 ar
    18    13    14 ar
    19    14    19 1
    20    14    15 ar
    21    15    16 ar
    22    15    17 1
    23    17    18 1
    24    18    19 1
    25    21    22 2
    26    21    23 am
    27    24    29 ar
    28    24    25 ar
    29    25    26 ar
    30    26    27 ar
    31    27    28 ar
    32    27    30 1
    33    28    29 ar

@<TRIPOS>MOLECULE
ZINC13412878_replica-1.pdb
 28 30 0 0 0
SMALL
GASTEIGER

@<TRIPOS>ATOM
       1  C1         -1.4090   29.5830   57.5430  C.3       1 <0>        -0.1754
       2  C2          0.0400   29.4590   57.0690  C.3       1 <0>         0.0681
       3  C3          0.9230   30.3360   57.9170  C.2       1 <0>         0.5246
       4  O1          1.9710   29.9040   58.3510  O.2       1 <0>        -0.5063
       5  N1          0.5510   31.6010   58.1930  N.am      1 <0>        -0.7228
       6  C4          1.4100   32.4550   59.0180  C.3       1 <0>         0.2305
       7  C5          0.7580   32.6800   60.3580  C.ar      1 <0>        -0.0865
       8  C6          0.6870   31.6470   61.2740  C.ar      1 <0>        -0.1035
       9  C7          0.0900   31.8530   62.5030  C.ar      1 <0>        -0.1150
      10  C8         -0.4390   33.0910   62.8150  C.ar      1 <0>        -0.1172
      11  C9         -0.3690   34.1240   61.8990  C.ar      1 <0>        -0.1145
      12  C10         0.2290   33.9180   60.6700  C.ar      1 <0>        -0.1108
      13  C11         1.6110   33.7800   58.3290  C.ar      1 <0>        -0.0889
      14  C12         0.6320   34.2790   57.4890  C.ar      1 <0>        -0.1017
      15  C13         0.8150   35.4970   56.8610  C.ar      1 <0>        -0.1206
      16  C14         1.9800   36.2120   57.0650  C.ar      1 <0>        -0.1190
      17  C15         2.9620   35.7110   57.8990  C.ar      1 <0>        -0.1187
      18  C16         2.7770   34.4950   58.5320  C.ar      1 <0>        -0.1009
      19  O2          0.1310   29.8690   55.7030  O.3       1 <0>        -0.2877
      20  C17        -0.1430   28.9330   54.7590  C.ar      1 <0>         0.1164
      21  C18        -0.9980   29.2400   53.7060  C.ar      1 <0>        -0.2278
      22  C19        -1.2750   28.2940   52.7440  C.ar      1 <0>        -0.0390
      23  C20        -0.7020   27.0210   52.8330  C.ar      1 <0>        -0.1470
      24  C21         0.1520   26.7160   53.8960  C.ar      1 <0>        -0.0474
      25  C22         0.4280   27.6690   54.8510  C.ar      1 <0>        -0.1620
      26  C23        -1.0000   26.0050   51.8070  C.2       1 <0>         0.4915
      27  O3         -1.7440   26.2740   50.8840  O.co2     1 <0>        -0.6332
      28  O4         -0.4490   24.7780   51.8920  O.co2     1 <0>        -0.7580
@<TRIPOS>BOND
     1     1     2 1
     2     2     3 1
     3     2    19 1
     4     3     4 2
     5     3     5 am
     6     5     6 1
     7     6     7 1
     8     6    13 1
     9     7    12 ar
    10     7     8 ar
    11     8     9 ar
    12     9    10 ar
    13    10    11 ar
    14    11    12 ar
    15    13    18 ar
    16    13    14 ar
    17    14    15 ar
    18    15    16 ar
    19    16    17 ar
    20    17    18 ar
    21    19    20 1
    22    20    25 ar
    23    20    21 ar
    24    21    22 ar
    25    22    23 ar
    26    23    24 ar
    27    23    26 1
    28    24    25 ar
    29    26    27 2
    30    26    28 1

@<TRIPOS>MOLECULE
ZINC06795698_replica-1.pdb
 30 33 0 0 0
SMALL
GASTEIGER

@<TRIPOS>ATOM
       1  C1          8.8050   38.1880   59.4790  C.3       1 <0>        -0.1157
       2  C2          8.3940   37.0950   58.5260  C.ar      1 <0>        -0.0794
       3  C3          7.4740   37.3570   57.5280  C.ar      1 <0>        -0.1321
       4  C4          7.0990   36.3540   56.6530  C.ar      1 <0>        -0.0998
       5  C5          7.6430   35.0900   56.7760  C.ar      1 <0>        -0.1173
       6  C6          8.5640   34.8280   57.7730  C.ar      1 <0>        -0.0847
       7  C7          8.9430   35.8310   58.6440  C.ar      1 <0>        -0.1303
       8  C8          7.2320   33.9970   55.8240  C.3       1 <0>         0.1449
       9  N1          5.9400   33.4460   56.2410  N.pl3     1 <0>        -0.4336
      10  C9          5.7480   32.5200   57.2370  C.ar      1 <0>         0.0930
      11  C10         6.6160   31.8560   58.1000  C.ar      1 <0>        -0.1142
      12  C11         6.1180   30.9590   59.0180  C.ar      1 <0>        -0.0732
      13  C12         4.7530   30.7080   59.0920  C.ar      1 <0>        -0.1321
      14  C13         3.8820   31.3450   58.2590  C.ar      1 <0>        -0.0912
      15  C14         4.3650   32.2640   57.3160  C.ar      1 <0>        -0.0943
      16  C15         3.7390   33.0680   56.3340  C.2       1 <0>        -0.2489
      17  C16         4.7110   33.7790   55.7000  C.2       1 <0>         0.1061
      18  C17         4.4910   34.7400   54.6160  C.2       1 <0>         0.5378
      19  O1          3.9820   35.8280   54.8560  O.co2     1 <0>        -0.6462
      20  O2          4.8160   34.4560   53.4700  O.co2     1 <0>        -0.6701
      21  C18         2.2610   33.1300   56.0470  C.3       1 <0>         0.0893
      22  N2          1.7450   34.4550   56.4160  N.4       1 <0>        -0.5025
      23  C19         1.2730   34.4270   57.8070  C.3       1 <0>        -0.0039
      24  C20         1.8490   35.6240   58.5650  C.3       1 <0>        -0.0605
      25  C21         3.1630   35.2360   59.1930  C.2       1 <0>        -0.0335
      26  C22         4.3590   35.7850   58.9170  C.2       1 <0>        -0.1866
      27  C23         5.3100   35.1240   59.7280  C.2       1 <0>        -0.2178
      28  C24         4.6380   34.2110   60.4510  C.2       1 <0>        -0.0198
      29  O3          3.3370   34.2880   60.1270  O.3       1 <0>        -0.1708
      30  C25         7.0610   30.2420   59.9490  C.3       1 <0>        -0.1132
@<TRIPOS>BOND
     1     1     2 1
     2     2     7 ar
     3     2     3 ar
     4     3     4 ar
     5     4     5 ar
     6     5     6 ar
     7     5     8 1
     8     6     7 ar
     9     8     9 1
    10     9    17 1
    11     9    10 1
    12    10    15 ar
    13    10    11 ar
    14    11    12 ar
    15    12    13 ar
    16    12    30 1
    17    13    14 ar
    18    14    15 ar
    19    15    16 1
    20    16    17 2
    21    16    21 1
    22    17    18 1
    23    18    19 2
    24    18    20 1
    25    21    22 1
    26    22    23 1
    27    23    24 1
    28    24    25 1
    29    25    29 1
    30    25    26 2
    31    26    27 1
    32    27    28 2
    33    28    29 1

@<TRIPOS>MOLECULE
ZINC21220064_replica-1.pdb
 35 39 0 0 0
SMALL
GASTEIGER

@<TRIPOS>ATOM
       1  C1         -0.5070   25.0650   51.8840  C.3       1 <0>        -0.1524
       2  C2         -1.5950   25.8440   51.1400  C.3       1 <0>        -0.1252
       3  C3         -1.2260   27.3290   51.1060  C.3       1 <0>         0.0567
       4  O1         -2.0500   28.0460   52.0260  O.3       1 <0>        -0.3161
       5  C4         -1.4180   28.7560   52.9970  C.ar      1 <0>         0.1309
       6  C5         -0.3600   28.1900   53.6930  C.ar      1 <0>        -0.1498
       7  C6          0.2820   28.9130   54.6810  C.ar      1 <0>        -0.0712
       8  C7         -0.1290   30.2000   54.9740  C.ar      1 <0>        -0.1187
       9  C8         -1.1880   30.7650   54.2860  C.ar      1 <0>        -0.0720
      10  C9         -1.8290   30.0480   53.2940  C.ar      1 <0>        -0.2063
      11  C10         0.5720   30.9870   56.0520  C.3       1 <0>        -0.0296
      12  C11         0.2750   32.4760   55.8810  C.3       1 <0>        -0.1024
      13  C12         0.9680   33.2710   56.9760  C.2       1 <0>         0.2648
      14  C13         1.1460   32.7370   58.1960  C.2       1 <0>        -0.2984
      15  C14         1.8160   33.4130   59.3690  C.3       1 <0>         0.2924
      16  N1          2.0490   34.8310   59.1920  N.pl3     1 <0>        -0.7828
      17  C15         2.9230   35.2980   58.2120  C.ar      1 <0>         0.1763
      18  C16         4.1210   35.9120   58.5430  C.ar      1 <0>        -0.1245
      19  C17         5.0070   36.2590   57.5390  C.ar      1 <0>        -0.1090
      20  C18         4.7040   35.9970   56.2150  C.ar      1 <0>        -0.1257
      21  C19         3.4990   35.4040   55.8790  C.ar      1 <0>        -0.1171
      22  C20         2.6030   35.0730   56.8820  C.ar      1 <0>         0.1147
      23  N2          1.3560   34.5190   56.6120  N.pl3     1 <0>        -0.6991
      24  C21         3.1400   32.7390   59.6180  C.ar      1 <0>        -0.1360
      25  C22         3.8100   32.1270   58.5740  C.ar      1 <0>        -0.0556
      26  C23         5.0260   31.5130   58.7970  C.ar      1 <0>        -0.1974
      27  C24         5.5710   31.4990   60.0750  C.ar      1 <0>         0.2122
      28  C25         4.8940   32.1090   61.1230  C.ar      1 <0>        -0.1982
      29  C26         3.6800   32.7260   60.8910  C.ar      1 <0>        -0.0435
      30  N3          6.7990   30.8740   60.3050  N.pl3     1 <0>        -0.6399
      31  C27         7.1090   30.3340   61.6310  C.3       1 <0>         0.0944
      32  C28         7.7770   30.7580   59.2200  C.3       1 <0>         0.0952
      33  C29         0.7010   31.4220   58.4720  C.2       1 <0>         0.4005
      34  O2          0.8520   30.9750   59.5910  O.2       1 <0>        -0.4705
      35  C30         0.0500   30.5620   57.4300  C.3       1 <0>        -0.1598
@<TRIPOS>BOND
     1     1     2 1
     2     2     3 1
     3     3     4 1
     4     4     5 1
     5     5    10 ar
     6     5     6 ar
     7     6     7 ar
     8     7     8 ar
     9     8     9 ar
    10     8    11 1
    11     9    10 ar
    12    11    35 1
    13    11    12 1
    14    12    13 1
    15    13    23 1
    16    13    14 2
    17    14    15 1
    18    14    33 1
    19    15    16 1
    20    15    24 1
    21    16    17 1
    22    17    22 ar
    23    17    18 ar
    24    18    19 ar
    25    19    20 ar
    26    20    21 ar
    27    21    22 ar
    28    22    23 1
    29    24    29 ar
    30    24    25 ar
    31    25    26 ar
    32    26    27 ar
    33    27    28 ar
    34    27    30 1
    35    28    29 ar
    36    30    31 1
    37    30    32 1
    38    33    34 2
    39    33    35 1

@<TRIPOS>MOLECULE
ZINC13649407_replica-1.pdb
 25 26 0 0 0
SMALL
GASTEIGER

@<TRIPOS>ATOM
       1  C1         -0.5070   24.9160   51.2040  C.3       1 <0>        -0.1259
       2  C2         -0.5600   26.0250   52.2210  C.ar      1 <0>        -0.0171
       3  C3         -1.2380   27.1960   51.9350  C.ar      1 <0>        -0.1548
       4  C4         -1.2860   28.2130   52.8690  C.ar      1 <0>         0.0327
       5  C5         -0.6560   28.0610   54.0900  C.ar      1 <0>        -0.6952
       6  C6          0.0250   26.8940   54.3750  C.ar      1 <0>         0.0282
       7  C7          0.0690   25.8730   53.4430  C.ar      1 <0>        -0.1543
       8  C8          0.7180   26.7310   55.7040  C.3       1 <0>        -0.1593
       9  S1         -0.7190   29.3590   55.2810  S.o2      1 <0>         2.6883
      10  O1         -2.0460   29.8670   55.2590  O.2       1 <0>        -0.9550
      11  O2          0.4160   30.1810   55.0430  O.2       1 <0>        -0.9511
      12  N1         -0.5000   28.6690   56.7700  N.pl3     1 <0>        -1.1099
      13  C9         -1.4480   28.9460   57.8520  C.3       1 <0>         0.1582
      14  C10        -2.0840   27.6350   58.3200  C.3       1 <0>        -0.1643
      15  C11        -0.7110   29.6020   59.0200  C.3       1 <0>         0.0465
      16  O3          0.5340   30.1320   58.5610  O.3       1 <0>        -0.3062
      17  C12         0.7010   31.4790   58.6470  C.ar      1 <0>         0.0945
      18  C13         0.0100   32.3200   57.7880  C.ar      1 <0>        -0.1690
      19  C14         0.1760   33.6880   57.8780  C.ar      1 <0>        -0.1685
      20  C15         1.0420   34.2210   58.8220  C.ar      1 <0>         0.0916
      21  C16         1.7370   33.3800   59.6780  C.ar      1 <0>        -0.1107
      22  C17         1.5670   32.0110   59.5900  C.ar      1 <0>        -0.1097
      23  O4          1.2090   35.5670   58.9090  O.3       1 <0>        -0.3177
      24  C18         2.5090   36.0800   58.6150  C.3       1 <0>         0.0273
      25  C19        -2.0250   29.4890   52.5560  C.3       1 <0>        -0.1389
@<TRIPOS>BOND
     1     1     2 1
     2     2     7 ar
     3     2     3 ar
     4     3     4 ar
     5     4     5 ar
     6     4    25 1
     7     5     6 ar
     8     5     9 1
     9     6     7 ar
    10     6     8 1
    11     9    10 2
    12     9    11 2
    13     9    12 1
    14    12    13 1
    15    13    14 1
    16    13    15 1
    17    15    16 1
    18    16    17 1
    19    17    22 ar
    20    17    18 ar
    21    18    19 ar
    22    19    20 ar
    23    20    21 ar
    24    20    23 1
    25    21    22 ar
    26    23    24 1

@<TRIPOS>MOLECULE
ZINC17143075_replica-1.pdb
 24 25 0 0 0
SMALL
GASTEIGER

@<TRIPOS>ATOM
      1  N2         1.5810   31.4590   56.4690 N.am    0  <0>0       -0.2438
      2  H4         1.4550   30.8640   57.2240 H       0  <0>0        0.1696
      3  N1         0.7000   31.4080   55.3810 N.3     0  <0>0       -0.1292
      4  C2        -0.3320   30.6150   55.4170 C.3     0  <0>0        0.1157
      5  C1        -1.2460   30.6210   56.6150 C.3     0  <0>0        0.0256
      6  C10       -0.5960   29.7440   54.3290 C.2     0  <0>0       -0.0073
      7  C11       -0.3610   28.4220   54.4520 C.2     0  <0>0       -0.0031
      8  C12       -0.6340   27.5180   53.3210 C.ar    0  <0>0       -0.0003
      9  C17       -1.3760   27.9690   52.2260 C.ar    0  <0>0       -0.0000
     10  C16       -1.6270   27.1170   51.1710 C.ar    0  <0>0       -0.0000
     11  C15       -1.1480   25.8200   51.1950 C.ar    0  <0>0       -0.0000
     12  C14       -0.4130   25.3660   52.2760 C.ar    0  <0>0       -0.0000
     13  C13       -0.1480   26.2070   53.3370 C.ar    0  <0>0       -0.0000
     14  C3         2.6070   32.3340   56.4650 C.2     0  <0>0        0.1497
     15  S1         3.7900   32.2730   57.7010 S.2     0  <0>0       -0.0173
     16  N3         2.7020   33.2560   55.4860 N.am    0  <0>0       -0.2949
     17  H5         2.0680   33.2520   54.7520 H       0  <0>0        0.1539
     18  C4         3.7150   34.2200   55.5290 C.ar    0  <0>0        0.0496
     19  C9         4.8490   34.0730   54.7400 C.ar    0  <0>0        0.0155
     20  C8         5.8470   35.0250   54.7830 C.ar    0  <0>0        0.0127
     21  C7         5.7210   36.1260   55.6140 C.ar    0  <0>0        0.0578
     22  C6         4.5930   36.2740   56.4020 C.ar    0  <0>0        0.0127
     23 Cl          6.9790   37.3210   55.6670 Cl      0  <0>0       -0.0822
     24  C5         3.5880   35.3270   56.3560 C.ar    0  <0>0        0.0155
@<TRIPOS>BOND
     1    10    11   ar
     2    10     9   ar
     3    11    12   ar
     4     9     8   ar
     5    12    13   ar
     6     8    13   ar
     7     8     7    1
     8     6     7    2
     9     6     4    1
    10    19    20   ar
    11    19    18   ar
    12    17    16    1
    13    20    21   ar
    14     3     4    1
    15     3     1    1
    16     4     5    1
    17    16    18    1
    18    16    14    1
    19    18    24   ar
    20    21    23    1
    21    21    22   ar
    22    24    22   ar
    23    14     1    1
    24    14    15    2
    25     1     2    1


@<TRIPOS>MOLECULE
ZINC04970169_replica-1.pdb
 28 32 0 0 0
SMALL
GASTEIGER

@<TRIPOS>ATOM
       1  C1         14.2470   32.0430   63.9380  C.ar      1 <0>        -0.1013
       2  C2         14.2330   33.2500   63.2610  C.ar      1 <0>        -0.1191
       3  C3         13.1190   33.6250   62.5390  C.ar      1 <0>        -0.0826
       4  C4         12.0070   32.7850   62.4910  C.ar      1 <0>        -0.0303
       5  C5         12.0250   31.5720   63.1790  C.ar      1 <0>        -0.0903
       6  C6         13.1470   31.2050   63.8930  C.ar      1 <0>        -0.1172
       7  C7         10.8070   33.1830   61.7160  C.2       1 <0>         0.1757
       8  C8         10.4280   34.5480   61.3460  C.ar      1 <0>        -0.2270
       9  C9         10.9890   35.8160   61.5660  C.ar      1 <0>         0.2331
      10  N1         10.4190   36.9000   61.1060  N.ar      1 <0>        -0.4900
      11  C10         9.2750   36.8650   60.4070  C.ar      1 <0>         0.1727
      12  C11         8.6920   38.0490   59.9310  C.ar      1 <0>        -0.1031
      13  C12         7.5280   37.9970   59.2220  C.ar      1 <0>         0.1047
      14  C13         6.9010   36.7770   58.9600  C.ar      1 <0>         0.0736
      15  C14         7.4420   35.6080   59.4100  C.ar      1 <0>        -0.1151
      16  C15         8.6370   35.6300   60.1400  C.ar      1 <0>        -0.0843
      17  C16         9.2300   34.4390   60.6220  C.ar      1 <0>         0.1766
      18  N2          8.9130   33.1160   60.5610  N.pl3     1 <0>        -0.3255
      19  N3          9.8870   32.3750   61.2410  N.2       1 <0>        -0.2349
      20  C17         7.7870   32.5810   59.9240  C.ar      1 <0>         0.1236
      21  C18         7.8580   32.2010   58.5900  C.ar      1 <0>        -0.0671
      22  C19         6.7440   31.6800   57.9620  C.ar      1 <0>        -0.1358
      23  C20         5.5610   31.5240   58.6640  C.ar      1 <0>         0.1170
      24  C21         5.4880   31.9020   59.9950  C.ar      1 <0>        -0.1360
      25  C22         6.5980   32.4290   60.6250  C.ar      1 <0>        -0.0928
      26  F1          4.4740   31.0090   58.0490  F         1 <0>        -0.1274
      27  F2          5.7490   36.7540   58.2550  F         1 <0>        -0.1203
      28  F3          6.9730   39.1420   58.7670  F         1 <0>        -0.1172
@<TRIPOS>BOND
     1     1     6 ar
     2     1     2 ar
     3     2     3 ar
     4     3     4 ar
     5     4     5 ar
     6     4     7 1
     7     5     6 ar
     8     7    19 2
     9     7     8 1
    10     8    17 ar
    11     8     9 ar
    12     9    10 ar
    13    10    11 ar
    14    11    16 ar
    15    11    12 ar
    16    12    13 ar
    17    13    14 ar
    18    13    28 1
    19    14    15 ar
    20    14    27 1
    21    15    16 ar
    22    16    17 ar
    23    17    18 1
    24    18    19 1
    25    18    20 1
    26    20    25 ar
    27    20    21 ar
    28    21    22 ar
    29    22    23 ar
    30    23    24 ar
    31    23    26 1
    32    24    25 ar

@<TRIPOS>MOLECULE
ZINC31888846_replica-1.pdb
 21 23 0 0 0
SMALL
GASTEIGER

@<TRIPOS>ATOM
       1  C1          0.2540   22.1040   56.6670  C.ar      1 <0>        -0.1187
       2  C2         -0.2180   22.8630   57.7210  C.ar      1 <0>        -0.1179
       3  C3         -0.2650   24.2410   57.6150  C.ar      1 <0>        -0.1125
       4  C4          0.1610   24.8590   56.4540  C.ar      1 <0>        -0.0871
       5  C5          0.6280   24.1000   55.3970  C.ar      1 <0>        -0.1134
       6  C6          0.6800   22.7230   55.5060  C.ar      1 <0>        -0.1184
       7  C7          0.1090   26.3610   56.3370  C.3       1 <0>        -0.0799
       8  C8          0.8430   26.7980   55.0670  C.3       1 <0>         0.0603
       9  O1          0.1340   27.8780   54.4560  O.3       1 <0>        -0.3025
      10  C9         -0.5330   27.6050   53.3070  C.ar      1 <0>         0.2171
      11  C10        -0.2910   26.4260   52.6240  C.ar      1 <0>        -0.2472
      12  C11        -0.9720   26.1450   51.4500  C.ar      1 <0>        -0.0152
      13  C12        -1.9050   27.0280   50.9490  C.ar      1 <0>        -0.1672
      14  C13        -2.1630   28.2200   51.6140  C.ar      1 <0>         0.1251
      15  C14        -1.4730   28.5140   52.8030  C.ar      1 <0>        -0.2275
      16  C15        -1.9630   29.8170   53.2550  C.2       1 <0>         0.1572
      17  N1         -2.8420   30.2240   52.3910  N.2       1 <0>        -0.2834
      18  O2         -2.9860   29.2600   51.3680  O.3       1 <0>        -0.0883
      19  C16        -1.5230   30.5550   54.4930  C.3       1 <0>        -0.0315
      20  C17        -2.7130   30.7150   55.4410  C.3       1 <0>        -0.0541
      21  S1         -3.0940   29.1160   56.2090  S.3       1 <0>        -0.1555
@<TRIPOS>BOND
     1     1     6 ar
     2     1     2 ar
     3     2     3 ar
     4     3     4 ar
     5     4     5 ar
     6     4     7 1
     7     5     6 ar
     8     7     8 1
     9     8     9 1
    10     9    10 1
    11    10    15 ar
    12    10    11 ar
    13    11    12 ar
    14    12    13 ar
    15    13    14 ar
    16    14    18 1
    17    14    15 ar
    18    15    16 1
    19    16    17 2
    20    16    19 1
    21    17    18 1
    22    19    20 1
    23    20    21 1

@<TRIPOS>MOLECULE
ZINC59382142_replica-1.pdb
 32 36 0 0 0
SMALL
GASTEIGER

@<TRIPOS>ATOM
       1  C1          9.2860   34.8970   58.2060  C.3       1 <0>        -0.1298
       2  C2          8.0170   34.3830   58.8880  C.3       1 <0>        -0.0591
       3  C3          7.8440   34.9080   60.3150  C.3       1 <0>        -0.0046
       4  C4          7.0790   36.1850   60.3860  C.2       1 <0>        -0.1383
       5  C5          6.3280   36.6480   59.4440  C.2       1 <0>        -0.1373
       6  C6          6.1650   35.9760   58.1160  C.3       1 <0>         0.0021
       7  C7          6.7420   34.6200   58.0620  C.3       1 <0>        -0.1116
       8  C8          5.8420   33.5020   58.5070  C.2       1 <0>         0.5382
       9  O1          4.6300   33.5000   58.5040  O.2       1 <0>        -0.4336
      10  N1          6.6540   32.5000   58.9090  N.am      1 <0>        -0.5319
      11  C9          7.9520   32.8500   58.9970  C.2       1 <0>         0.5317
      12  O2          8.8930   32.0980   59.1370  O.2       1 <0>        -0.4554
      13  C10         6.1870   31.2100   59.2090  C.ar      1 <0>         0.0752
      14  C11         6.0050   30.2840   58.1920  C.ar      1 <0>        -0.0617
      15  C12         5.5450   29.0150   58.4900  C.ar      1 <0>        -0.1471
      16  C13         5.2680   28.6650   59.7990  C.ar      1 <0>        -0.0642
      17  C14         5.4480   29.5820   60.8160  C.ar      1 <0>        -0.2022
      18  C15         5.9130   30.8560   60.5270  C.ar      1 <0>         0.1474
      19  O3          6.0960   31.7580   61.5270  O.3       1 <0>        -0.3120
      20  C16         4.9730   32.5660   61.8850  C.3       1 <0>         0.0254
      21  C17         4.6960   35.9000   57.7910  C.ar      1 <0>        -0.0718
      22  C18         3.7570   36.0980   58.7870  C.ar      1 <0>        -0.0773
      23  C19         2.4090   36.0290   58.4890  C.ar      1 <0>        -0.1161
      24  C20         2.0000   35.7620   57.1960  C.ar      1 <0>        -0.1178
      25  C21         2.9380   35.5650   56.2010  C.ar      1 <0>        -0.1200
      26  C22         4.2870   35.6390   56.4970  C.ar      1 <0>        -0.1161
      27  C23         9.2080   35.1310   60.9170  C.ar      1 <0>        -0.0777
      28  C24         9.6100   36.4080   61.2610  C.ar      1 <0>        -0.1037
      29  C25        10.8610   36.6120   61.8130  C.ar      1 <0>        -0.1215
      30  C26        11.7090   35.5410   62.0210  C.ar      1 <0>        -0.1176
      31  C27        11.3060   34.2640   61.6780  C.ar      1 <0>        -0.1173
      32  C28        10.0540   34.0580   61.1300  C.ar      1 <0>        -0.1052
@<TRIPOS>BOND
     1     1     2 1
     2     2     7 1
     3     2    11 1
     4     2     3 1
     5     3     4 1
     6     3    27 1
     7     4     5 2
     8     5     6 1
     9     6     7 1
    10     6    21 1
    11     7     8 1
    12     8     9 2
    13     8    10 am
    14    10    11 am
    15    10    13 1
    16    11    12 2
    17    13    18 ar
    18    13    14 ar
    19    14    15 ar
    20    15    16 ar
    21    16    17 ar
    22    17    18 ar
    23    18    19 1
    24    19    20 1
    25    21    26 ar
    26    21    22 ar
    27    22    23 ar
    28    23    24 ar
    29    24    25 ar
    30    25    26 ar
    31    27    32 ar
    32    27    28 ar
    33    28    29 ar
    34    29    30 ar
    35    30    31 ar
    36    31    32 ar

@<TRIPOS>MOLECULE
ZINC45282274_replica-1.pdb
 28 30 0 0 0
SMALL
GASTEIGER

@<TRIPOS>ATOM
       1  C1          9.5730   37.0210   60.3810  C.3       1 <0>        -0.1479
       2  C2          8.7100   38.0460   59.6410  C.3       1 <0>        -0.0893
       3  C3          7.5660   37.3410   58.9600  C.ar      1 <0>        -0.0633
       4  C4          6.3770   37.1430   59.6380  C.ar      1 <0>        -0.1219
       5  C5          5.3250   36.4980   59.0180  C.ar      1 <0>        -0.0785
       6  C6          5.4640   36.0450   57.7070  C.ar      1 <0>        -0.0245
       7  C7          6.6650   36.2460   57.0300  C.ar      1 <0>        -0.0711
       8  C8          7.7080   36.8980   57.6570  C.ar      1 <0>        -0.1233
       9  C9          4.3370   35.3510   57.0360  C.2       1 <0>         0.2806
      10  N1          3.9660   34.0810   57.2530  N.2       1 <0>        -0.5320
      11  C10         2.9330   33.7870   56.4930  C.2       1 <0>         0.2549
      12  N2          2.6210   34.8840   55.7680  N.pl3     1 <0>        -0.4587
      13  N3          3.5380   35.8810   56.1400  N.2       1 <0>        -0.2942
      14  S1          2.1000   32.2360   56.4330  S.3       1 <0>         0.0763
      15  C11         0.3420   32.6820   56.4210  C.3       1 <0>        -0.1045
      16  C12        -0.1070   33.0280   57.8410  C.3       1 <0>        -0.1456
      17  C13        -0.4680   31.5180   55.9080  C.2       1 <0>         0.5370
      18  O1         -1.5080   31.2160   56.4540  O.2       1 <0>        -0.5188
      19  N4         -0.0370   30.8130   54.8440  N.am      1 <0>        -0.7194
      20  C14        -0.8240   29.6830   54.3460  C.3       1 <0>         0.1273
      21  C15         0.0180   28.4060   54.4110  C.3       1 <0>        -0.0620
      22  C16        -0.1890   27.7280   55.7680  C.3       1 <0>        -0.1473
      23  C17        -0.4050   27.4680   53.3100  C.ar      1 <0>        -0.0800
      24  C18        -1.1900   27.9320   52.2710  C.ar      1 <0>        -0.1123
      25  C19        -1.5770   27.0710   51.2600  C.ar      1 <0>        -0.1171
      26  C20        -1.1820   25.7480   51.2910  C.ar      1 <0>        -0.1200
      27  C21        -0.3970   25.2850   52.3300  C.ar      1 <0>        -0.1180
      28  C22        -0.0050   26.1460   53.3370  C.ar      1 <0>        -0.1132
@<TRIPOS>BOND
     1     1     2 1
     2     2     3 1
     3     3     8 ar
     4     3     4 ar
     5     4     5 ar
     6     5     6 ar
     7     6     7 ar
     8     6     9 1
     9     7     8 ar
    10     9    10 1
    11     9    13 2
    12    10    11 2
    13    11    14 1
    14    11    12 1
    15    12    13 1
    16    14    15 1
    17    15    16 1
    18    15    17 1
    19    17    18 2
    20    17    19 am
    21    19    20 1
    22    20    21 1
    23    21    22 1
    24    21    23 1
    25    23    28 ar
    26    23    24 ar
    27    24    25 ar
    28    25    26 ar
    29    26    27 ar
    30    27    28 ar

@<TRIPOS>MOLECULE
ZINC21250641_replica-1.pdb
 34 38 0 0 0
SMALL
GASTEIGER

@<TRIPOS>ATOM
       1  C1         15.3210   33.8220   64.5290  C.3       1 <0>        -0.1498
       2  C2         14.8790   33.0500   63.2850  C.3       1 <0>        -0.0949
       3  C3         13.9230   31.9270   63.6950  C.3       1 <0>        -0.1491
       4  C4         14.1660   34.0000   62.3220  C.3       1 <0>         0.0613
       5  O1         13.0330   34.5780   62.9740  O.3       1 <0>        -0.3126
       6  C5         11.8990   34.7130   62.2380  C.ar      1 <0>         0.1328
       7  C6         11.3880   35.9760   61.9760  C.ar      1 <0>        -0.1499
       8  C7         10.2360   36.1120   61.2260  C.ar      1 <0>        -0.0707
       9  C8          9.5920   34.9890   60.7380  C.ar      1 <0>        -0.1205
      10  C9         10.0960   33.7290   61.0030  C.ar      1 <0>        -0.0717
      11  C10        11.2520   33.5900   61.7470  C.ar      1 <0>        -0.2064
      12  C11         8.3340   35.1400   59.9210  C.3       1 <0>        -0.0299
      13  C12         7.1250   35.2530   60.8470  C.3       1 <0>        -0.1050
      14  C13         5.8570   35.4230   60.0270  C.2       1 <0>         0.2735
      15  C14         5.8890   36.0730   58.8510  C.2       1 <0>        -0.3076
      16  C15         4.7090   36.3100   57.9380  C.3       1 <0>         0.2872
      17  N1          3.4230   36.0080   58.5300  N.pl3     1 <0>        -0.7796
      18  C16         3.0940   34.7070   58.9010  C.ar      1 <0>         0.1711
      19  C17         2.0890   34.0050   58.2520  C.ar      1 <0>        -0.1269
      20  C18         1.8370   32.6920   58.6080  C.ar      1 <0>        -0.1095
      21  C19         2.5800   32.0800   59.6020  C.ar      1 <0>        -0.1226
      22  C20         3.5720   32.7830   60.2640  C.ar      1 <0>        -0.1155
      23  C21         3.8110   34.1020   59.9220  C.ar      1 <0>         0.1196
      24  N2          4.7430   34.8890   60.5910  N.pl3     1 <0>        -0.6983
      25  C22         4.8770   35.4560   56.7080  C.ar      1 <0>        -0.1048
      26  C23         5.5820   34.2690   56.7810  C.ar      1 <0>        -0.0766
      27  C24         5.7360   33.4850   55.6520  C.ar      1 <0>        -0.1320
      28  C25         5.1850   33.8870   54.4500  C.ar      1 <0>        -0.0920
      29  C26         4.4800   35.0730   54.3740  C.ar      1 <0>        -0.1577
      30  C27         4.3220   35.8580   55.5050  C.ar      1 <0>         0.1156
      31  F1          3.6280   37.0140   55.4340  F         1 <0>        -0.1377
      32  C28         7.1080   36.5930   58.3570  C.2       1 <0>         0.3984
      33  O2          7.1030   37.1980   57.3020  O.2       1 <0>        -0.4699
      34  C29         8.4060   36.4250   59.0880  C.3       1 <0>        -0.1606
@<TRIPOS>BOND
     1     1     2 1
     2     2     3 1
     3     2     4 1
     4     4     5 1
     5     5     6 1
     6     6    11 ar
     7     6     7 ar
     8     7     8 ar
     9     8     9 ar
    10     9    10 ar
    11     9    12 1
    12    10    11 ar
    13    12    34 1
    14    12    13 1
    15    13    14 1
    16    14    24 1
    17    14    15 2
    18    15    16 1
    19    15    32 1
    20    16    17 1
    21    16    25 1
    22    17    18 1
    23    18    23 ar
    24    18    19 ar
    25    19    20 ar
    26    20    21 ar
    27    21    22 ar
    28    22    23 ar
    29    23    24 1
    30    25    30 ar
    31    25    26 ar
    32    26    27 ar
    33    27    28 ar
    34    28    29 ar
    35    29    30 ar
    36    30    31 1
    37    32    33 2
    38    32    34 1

@<TRIPOS>MOLECULE
ZINC02151438_replica-1.pdb
 28 30 0 0 0
SMALL
GASTEIGER

@<TRIPOS>ATOM
       1  C1          8.6020   38.7320   57.6930  C.3       1 <0>        -0.1765
       2  C2          8.0320   38.1330   58.9810  C.3       1 <0>         0.0848
       3  C3          8.9440   37.0370   59.4730  C.ar      1 <0>        -0.1453
       4  C4          9.1850   35.9310   58.6810  C.ar      1 <0>        -0.0888
       5  C5         10.0210   34.9270   59.1330  C.ar      1 <0>        -0.1054
       6  C6         10.6100   35.0270   60.3790  C.ar      1 <0>        -0.0918
       7  C7         10.3730   36.1360   61.1690  C.ar      1 <0>        -0.1049
       8  C8          9.5380   37.1400   60.7170  C.ar      1 <0>        -0.1232
       9  C9          5.9610   37.3700   59.9760  C.3       1 <0>        -0.0063
      10  C10         5.4360   35.9340   60.0310  C.3       1 <0>        -0.1456
      11  C11         5.1470   35.4410   58.6120  C.3       1 <0>        -0.0254
      12  C12         3.6590   35.4270   58.3780  C.ar      1 <0>        -0.1266
      13  C13         2.8060   34.9890   59.3730  C.ar      1 <0>        -0.0817
      14  C14         1.4400   34.9770   59.1580  C.ar      1 <0>        -0.1512
      15  C15         0.9250   35.4020   57.9470  C.ar      1 <0>        -0.0733
      16  C16         1.7730   35.8400   56.9490  C.ar      1 <0>        -0.2032
      17  C17         3.1430   35.8580   57.1640  C.ar      1 <0>         0.1313
      18  O1          3.9790   36.2950   56.1860  O.3       1 <0>        -0.3170
      19  C18         3.9960   35.5500   54.9660  C.3       1 <0>         0.0242
      20  C19         5.7040   34.0260   58.4400  C.3       1 <0>        -0.0790
      21  C20         6.5490   33.9600   57.1630  C.3       1 <0>        -0.1456
      22  C21         7.1650   32.5640   57.0410  C.3       1 <0>         0.0563
      23  O2          7.9470   32.2860   58.2050  O.3       1 <0>        -0.3698
      24  C22         7.2010   32.2880   59.4230  C.3       1 <0>         0.1116
      25  C23         6.5860   33.6720   59.6420  C.3       1 <0>        -0.1388
      26  C24         6.0870   31.2420   59.3410  C.3       1 <0>        -0.1820
      27  C25         8.1300   31.9530   60.5910  C.3       1 <0>        -0.1418
      28  N1          6.6970   37.5670   58.7120  N.4       1 <0>        -0.5183
@<TRIPOS>BOND
     1     1     2 1
     2     2     3 1
     3     2    28 1
     4     3     8 ar
     5     3     4 ar
     6     4     5 ar
     7     5     6 ar
     8     6     7 ar
     9     7     8 ar
    10     9    10 1
    11     9    28 1
    12    10    11 1
    13    11    12 1
    14    11    20 1
    15    12    17 ar
    16    12    13 ar
    17    13    14 ar
    18    14    15 ar
    19    15    16 ar
    20    16    17 ar
    21    17    18 1
    22    18    19 1
    23    20    25 1
    24    20    21 1
    25    21    22 1
    26    22    23 1
    27    23    24 1
    28    24    25 1
    29    24    26 1
    30    24    27 1

@<TRIPOS>MOLECULE
ZINC20175390_replica-1.pdb
 22 23 0 0 0
SMALL
GASTEIGER

@<TRIPOS>ATOM
       1  C1         -1.5930   29.4150   53.0150  C.3       1 <0>        -0.1193
       2  C2         -1.1500   27.9970   52.7640  C.ar      1 <0>        -0.0791
       3  C3         -1.5490   27.3410   51.6140  C.ar      1 <0>        -0.1195
       4  C4         -1.1430   26.0410   51.3840  C.ar      1 <0>        -0.1132
       5  C5         -0.3380   25.3950   52.3030  C.ar      1 <0>        -0.1251
       6  C6          0.0660   26.0520   53.4490  C.ar      1 <0>        -0.0941
       7  C7         -0.3440   27.3520   53.6830  C.ar      1 <0>        -0.0840
       8  C8          0.0910   28.0660   54.9360  C.3       1 <0>         0.0810
       9  N1         -0.6020   27.4880   56.0960  N.3       1 <0>        -0.6383
      10  C9         -1.6290   28.4050   56.6060  C.3       1 <0>         0.2192
      11  C10        -2.4090   27.7320   57.6580  C.1       1 <0>         0.1685
      12  N2         -3.0100   27.2120   58.4700  N.1       1 <0>        -0.4085
      13  C11        -0.9680   29.6320   57.1780  C.ar      1 <0>        -0.0831
      14  C12        -0.2600   29.5470   58.3630  C.ar      1 <0>        -0.0829
      15  C13         0.3510   30.6720   58.8840  C.ar      1 <0>        -0.1221
      16  C14         0.2450   31.8850   58.2280  C.ar      1 <0>        -0.0590
      17  C15        -0.4680   31.9700   57.0470  C.ar      1 <0>        -0.1159
      18  C16        -1.0740   30.8450   56.5220  C.ar      1 <0>        -0.0999
      19  C17         0.9060   33.1110   58.8010  C.3       1 <0>        -0.0315
      20  C18         0.4120   34.3520   58.0530  C.3       1 <0>        -0.1413
      21  C19         0.5530   33.2360   60.2840  C.3       1 <0>        -0.1475
      22  C20         2.4230   32.9920   58.6460  C.3       1 <0>        -0.1407
@<TRIPOS>BOND
     1     1     2 1
     2     2     7 ar
     3     2     3 ar
     4     3     4 ar
     5     4     5 ar
     6     5     6 ar
     7     6     7 ar
     8     7     8 1
     9     8     9 1
    10     9    10 1
    11    10    11 1
    12    10    13 1
    13    11    12 3
    14    13    18 ar
    15    13    14 ar
    16    14    15 ar
    17    15    16 ar
    18    16    17 ar
    19    16    19 1
    20    17    18 ar
    21    19    20 1
    22    19    21 1
    23    19    22 1

@<TRIPOS>MOLECULE
ZINC00509134_replica-1.pdb
 24 25 0 0 0
SMALL
GASTEIGER

@<TRIPOS>ATOM
       1  C1          0.6680   25.5140   54.5170  C.3       1 <0>        -0.1164
       2  C2         -0.1090   26.1370   53.3860  C.ar      1 <0>        -0.0396
       3  C3         -0.4900   25.3700   52.3040  C.ar      1 <0>        -0.1288
       4  C4         -1.2030   25.9400   51.2650  C.ar      1 <0>        -0.0959
       5  C5         -1.5390   27.2820   51.3020  C.ar      1 <0>        -0.1331
       6  C6         -1.1640   28.0610   52.3760  C.ar      1 <0>        -0.0836
       7  C7         -0.4390   27.4930   53.4270  C.ar      1 <0>        -0.0686
       8  C8         -0.0300   28.3210   54.5770  C.2       1 <0>         0.1134
       9  N1          0.3850   29.5360   54.3870  N.2       1 <0>        -0.2197
      10  N2          0.7730   30.3220   55.4790  N.am      1 <0>        -0.5882
      11  C9         -0.0040   31.3460   55.8830  C.2       1 <0>         0.5321
      12  O1         -1.0400   31.5880   55.2990  O.2       1 <0>        -0.4750
      13  C10         0.4120   32.1910   57.0580  C.3       1 <0>         0.0496
      14  O2          0.7120   33.5150   56.6120  O.3       1 <0>        -0.2893
      15  C11         1.9080   34.0390   56.9920  C.ar      1 <0>         0.1217
      16  C12         1.9490   35.0970   57.8880  C.ar      1 <0>        -0.2078
      17  C13         3.1660   35.6230   58.2770  C.ar      1 <0>        -0.0809
      18  C14         4.3400   35.1040   57.7650  C.ar      1 <0>        -0.1039
      19  C15         4.3010   34.0520   56.8680  C.ar      1 <0>        -0.0742
      20  C16         3.0870   33.5190   56.4800  C.ar      1 <0>        -0.1417
      21  C17         5.6660   35.6830   58.1870  C.3       1 <0>        -0.0268
      22  C18         6.6280   34.5480   58.5420  C.3       1 <0>        -0.1400
      23  C19         6.2500   36.5080   57.0380  C.3       1 <0>        -0.1455
      24  C20         5.4650   36.5820   59.4090  C.3       1 <0>        -0.1400
@<TRIPOS>BOND
     1     1     2 1
     2     2     7 ar
     3     2     3 ar
     4     3     4 ar
     5     4     5 ar
     6     5     6 ar
     7     6     7 ar
     8     7     8 1
     9     8     9 2
    10     9    10 1
    11    10    11 am
    12    11    12 2
    13    11    13 1
    14    13    14 1
    15    14    15 1
    16    15    20 ar
    17    15    16 ar
    18    16    17 ar
    19    17    18 ar
    20    18    19 ar
    21    18    21 1
    22    19    20 ar
    23    21    22 1
    24    21    23 1
    25    21    24 1

@<TRIPOS>MOLECULE
ZINC14986657_replica-1.pdb
 29 32 0 0 0
SMALL
GASTEIGER

@<TRIPOS>ATOM
       1  C1         -1.4410   26.2460   60.3680  C.3       1 <0>         0.0267
       2  O1         -1.3980   27.6230   60.7510  O.3       1 <0>        -0.3156
       3  C2         -1.1270   28.5270   59.7730  C.ar      1 <0>         0.1101
       4  C3         -0.3220   29.6240   60.0430  C.ar      1 <0>        -0.1736
       5  C4         -0.0360   30.5500   59.0570  C.ar      1 <0>        -0.1303
       6  C5         -0.5610   30.3800   57.7800  C.ar      1 <0>         0.0971
       7  C6         -1.3680   29.2890   57.5200  C.ar      1 <0>        -0.1025
       8  C7         -1.6560   28.3560   58.4990  C.ar      1 <0>        -0.0902
       9  S1         -2.0470   29.1140   55.8880  S.3       1 <0>        -0.0686
      10  C8         -0.5470   28.8330   54.8890  C.3       1 <0>        -0.0515
      11  C9          0.1560   30.1570   54.6510  C.3       1 <0>        -0.1330
      12  C10         0.7730   30.8040   55.8720  C.3       1 <0>         0.0532
      13  N1         -0.2500   31.3310   56.7860  N.pl3     1 <0>        -0.4754
      14  C11         0.1840   32.5980   57.3870  C.3       1 <0>         0.1383
      15  C12         1.5830   32.9200   56.9280  C.2       1 <0>         0.2140
      16  N2          1.9050   33.6790   55.8580  N.pl3     1 <0>        -0.5573
      17  C13         3.2720   33.7230   55.7900  C.2       1 <0>        -0.0479
      18  C14         3.7370   32.9900   56.8200  C.2       1 <0>        -0.0278
      19  N3          2.6840   32.5160   57.5010  N.2       1 <0>        -0.4858
      20  C15        -0.9320   28.2260   53.5650  C.ar      1 <0>        -0.0115
      21  C16        -1.7100   28.9440   52.6760  C.ar      1 <0>        -0.1100
      22  C17        -2.0590   28.3890   51.4580  C.ar      1 <0>        -0.0814
      23  C18        -1.6380   27.1140   51.1340  C.ar      1 <0>        -0.1200
      24  C19        -0.8600   26.3960   52.0220  C.ar      1 <0>        -0.0667
      25  C20        -0.5070   26.9520   53.2380  C.ar      1 <0>        -0.1778
      26  C21         0.3420   26.1700   54.2070  C.3       1 <0>         0.4913
      27  F1          1.6450   26.6790   54.2010  F         1 <0>        -0.1421
      28  F2         -0.1960   26.2790   55.4930  F         1 <0>        -0.1300
      29  F3          0.3670   24.8250   53.8240  F         1 <0>        -0.1776
@<TRIPOS>BOND
     1     1     2 1
     2     2     3 1
     3     3     8 ar
     4     3     4 ar
     5     4     5 ar
     6     5     6 ar
     7     6    13 1
     8     6     7 ar
     9     7     8 ar
    10     7     9 1
    11     9    10 1
    12    10    11 1
    13    10    20 1
    14    11    12 1
    15    12    13 1
    16    13    14 1
    17    14    15 1
    18    15    19 2
    19    15    16 1
    20    16    17 1
    21    17    18 2
    22    18    19 1
    23    20    25 ar
    24    20    21 ar
    25    21    22 ar
    26    22    23 ar
    27    23    24 ar
    28    24    25 ar
    29    25    26 1
    30    26    27 1
    31    26    28 1
    32    26    29 1

@<TRIPOS>MOLECULE
ZINC62040003_replica-1.pdb
 32 36 0 0 0
SMALL
GASTEIGER

@<TRIPOS>ATOM
       1  C1          0.1250   30.2990   62.6950  C.3       1 <0>        -0.0714
       2  C2          0.4120   31.3230   61.6260  C.2       1 <0>        -0.1234
       3  C3          0.5490   31.1280   60.2940  C.2       1 <0>        -0.0565
       4  C4          0.8260   32.2780   59.4400  C.ar      1 <0>        -0.2431
       5  C5          1.0110   32.3390   58.0330  C.ar      1 <0>         0.4945
       6  N1          1.2560   33.5080   57.4640  N.ar      1 <0>        -0.5838
       7  C6          1.3350   34.6270   58.1610  C.ar      1 <0>         0.3873
       8  N2          1.1730   34.6320   59.4710  N.ar      1 <0>        -0.5206
       9  C7          0.9260   33.5110   60.1180  C.ar      1 <0>         0.1536
      10  S1          0.6420   33.0810   61.8150  S.3       1 <0>         0.1202
      11  C8          1.6170   35.9230   57.4470  C.3       1 <0>        -0.0843
      12  N3          0.9370   31.1900   57.2670  N.pl3     1 <0>        -0.7011
      13  C9          0.3060   31.2290   55.9450  C.3       1 <0>         0.1142
      14  C10        -0.7330   30.1110   55.8440  C.3       1 <0>         0.1138
      15  N4         -0.7400   29.5740   54.4800  N.pl3     1 <0>        -0.7363
      16  C11        -0.3910   28.2440   54.2540  C.ar      1 <0>         0.2299
      17  C12         0.3480   27.5500   55.1880  C.ar      1 <0>        -0.2166
      18  C13         0.7010   26.2210   54.9720  C.ar      1 <0>        -0.0604
      19  C14         0.3280   25.5710   53.8350  C.ar      1 <0>        -0.1686
      20  C15        -0.4270   26.2420   52.8580  C.ar      1 <0>        -0.0104
      21  C16        -0.7970   27.5930   53.0700  C.ar      1 <0>        -0.0955
      22  C17        -1.5540   28.2610   52.0940  C.ar      1 <0>        -0.0970
      23  C18        -1.9280   27.6020   50.9630  C.ar      1 <0>        -0.1287
      24  C19        -1.5690   26.2710   50.7570  C.ar      1 <0>        -0.1062
      25  C20        -0.8250   25.5960   51.6750  C.ar      1 <0>        -0.1155
      26  C21         0.4210   29.7700   59.7130  C.ar      1 <0>        -0.0560
      27  C22        -0.8400   29.2520   59.4180  C.ar      1 <0>        -0.0726
      28  C23        -0.9540   27.9880   58.8770  C.ar      1 <0>        -0.1490
      29  C24         0.1810   27.2340   58.6280  C.ar      1 <0>         0.1077
      30  C25         1.4350   27.7430   58.9200  C.ar      1 <0>        -0.1519
      31  C26         1.5600   29.0090   59.4540  C.ar      1 <0>        -0.0809
      32  F1          0.0640   25.9960   58.0990  F         1 <0>        -0.1329
@<TRIPOS>BOND
     1     1     2 1
     2     2    10 1
     3     2     3 2
     4     3     4 1
     5     3    26 1
     6     4     9 ar
     7     4     5 ar
     8     5     6 ar
     9     5    12 1
    10     6     7 ar
    11     7     8 ar
    12     7    11 1
    13     8     9 ar
    14     9    10 1
    15    12    13 1
    16    13    14 1
    17    14    15 1
    18    15    16 1
    19    16    21 ar
    20    16    17 ar
    21    17    18 ar
    22    18    19 ar
    23    19    20 ar
    24    20    25 ar
    25    20    21 ar
    26    21    22 ar
    27    22    23 ar
    28    23    24 ar
    29    24    25 ar
    30    26    31 ar
    31    26    27 ar
    32    27    28 ar
    33    28    29 ar
    34    29    30 ar
    35    29    32 1
    36    30    31 ar

@<TRIPOS>MOLECULE
ZINC09225696_replica-1.pdb
 31 35 0 0 0
SMALL
GASTEIGER

@<TRIPOS>ATOM
       1  C1          6.9980   30.3390   58.6040  C.ar      1 <0>        -0.1364
       2  C2          8.2480   30.7850   58.2140  C.ar      1 <0>        -0.0634
       3  C3          8.5400   32.1330   58.2260  C.ar      1 <0>        -0.1358
       4  C4          7.5780   33.0560   58.6320  C.ar      1 <0>         0.1673
       5  C5          6.3230   32.5950   59.0220  C.ar      1 <0>        -0.1536
       6  C6          6.0370   31.2470   59.0070  C.ar      1 <0>        -0.0360
       7  C7          5.5430   33.8190   59.3890  C.3       1 <0>         0.2090
       8  C8          6.4730   34.9730   59.1720  C.2       1 <0>         0.5490
       9  O1          6.2300   36.1470   59.3560  O.2       1 <0>        -0.4482
      10  N1          7.6340   34.4480   58.7300  N.am      1 <0>        -0.5417
      11  C9          8.8170   35.2450   58.3940  C.3       1 <0>         0.1538
      12  C10         9.6310   35.4850   59.6400  C.ar      1 <0>        -0.1325
      13  C11         9.5130   36.6800   60.3240  C.ar      1 <0>        -0.0684
      14  C12        10.2550   36.8980   61.4690  C.ar      1 <0>        -0.1551
      15  C13        11.1260   35.9230   61.9260  C.ar      1 <0>         0.1125
      16  C14        11.2470   34.7280   61.2370  C.ar      1 <0>        -0.1540
      17  C15        10.4990   34.5100   60.0950  C.ar      1 <0>        -0.0655
      18  F1         11.8560   36.1370   63.0410  F         1 <0>        -0.1349
      19  N2          4.2840   33.9440   58.6630  N.am      1 <0>        -0.5444
      20  C16         3.1440   33.6910   59.3050  C.2       1 <0>         0.5208
      21  O2          2.0720   33.7890   58.7470  O.2       1 <0>        -0.4829
      22  C17         3.2390   33.2750   60.7660  C.3       1 <0>        -0.0941
      23  S1          4.9860   33.7470   61.1370  S.3       1 <0>        -0.1753
      24  C18         4.2730   34.3210   57.3140  C.ar      1 <0>         0.1404
      25  C19         4.5740   33.3880   56.3310  C.ar      1 <0>        -0.0766
      26  C20         4.5690   33.7610   55.0000  C.ar      1 <0>        -0.1179
      27  C21         4.2540   35.0620   54.6460  C.ar      1 <0>         0.0862
      28  C22         3.9480   35.9930   55.6260  C.ar      1 <0>         0.0795
      29  C23         3.9570   35.6250   56.9590  C.ar      1 <0>        -0.1030
      30  F2          3.6400   37.2630   55.2790  F         1 <0>        -0.1193
      31  F3          4.2440   35.4220   53.3440  F         1 <0>        -0.1198
@<TRIPOS>BOND
     1     1     6 ar
     2     1     2 ar
     3     2     3 ar
     4     3     4 ar
     5     4    10 1
     6     4     5 ar
     7     5     6 ar
     8     5     7 1
     9     7    23 1
    10     7     8 1
    11     7    19 1
    12     8     9 2
    13     8    10 am
    14    10    11 1
    15    11    12 1
    16    12    17 ar
    17    12    13 ar
    18    13    14 ar
    19    14    15 ar
    20    15    16 ar
    21    15    18 1
    22    16    17 ar
    23    19    20 am
    24    19    24 1
    25    20    21 2
    26    20    22 1
    27    22    23 1
    28    24    29 ar
    29    24    25 ar
    30    25    26 ar
    31    26    27 ar
    32    27    28 ar
    33    27    31 1
    34    28    29 ar
    35    28    30 1

@<TRIPOS>MOLECULE
ZINC56146654_replica-1.pdb
 26 27 0 0 0
SMALL
GASTEIGER

@<TRIPOS>ATOM
       1  C1          7.1650   32.9230   57.6830  C.3       1 <0>        -0.1614
       2  C2          7.3520   34.4410   57.7090  C.3       1 <0>         0.1496
       3  C3          8.8430   34.7720   57.6160  C.3       1 <0>        -0.0873
       4  C4          9.2900   35.4390   58.8920  C.ar      1 <0>        -0.1107
       5  C5          9.9830   34.7150   59.8440  C.ar      1 <0>        -0.0864
       6  C6         10.3930   35.3260   61.0130  C.ar      1 <0>        -0.1283
       7  C7         10.1130   36.6620   61.2320  C.ar      1 <0>        -0.0954
       8  C8          9.4210   37.3880   60.2820  C.ar      1 <0>        -0.1513
       9  C9          9.0130   36.7770   59.1070  C.ar      1 <0>         0.1029
      10  F1          8.3410   37.4880   58.1740  F         1 <0>        -0.1361
      11  N1          6.6470   35.0400   56.5740  N.am      1 <0>        -0.7327
      12  C10         5.7190   35.9930   56.7840  C.2       1 <0>         0.5401
      13  O1          5.4650   36.3570   57.9180  O.2       1 <0>        -0.5055
      14  C11         5.0150   36.5920   55.6510  C.2       1 <0>        -0.2752
      15  C12         3.7480   36.2210   55.3700  C.2       1 <0>         0.0357
      16  C13         2.9870   35.4150   56.3340  C.ar      1 <0>        -0.2044
      17  C14         3.1530   34.0240   56.3710  C.ar      1 <0>         0.0051
      18  C15         2.4420   33.2750   57.2720  C.ar      1 <0>        -0.1955
      19  C16         1.5560   33.8930   58.1490  C.ar      1 <0>         0.3074
      20  C17         1.3870   35.2750   58.1160  C.ar      1 <0>        -0.2742
      21  C18         2.0990   36.0330   57.2220  C.ar      1 <0>        -0.0340
      22  N2          0.8360   33.1290   59.0630  N.2       1 <0>        -1.0949
      23  S1          1.0780   33.3350   60.6870  S.o2      1 <0>         2.5252
      24  O2          2.4740   33.5710   60.8200  O.2       1 <0>        -1.0304
      25  O3          0.1360   34.3270   61.0710  O.2       1 <0>        -1.0284
      26  C19         0.6420   31.7380   61.4300  C.3       1 <0>        -0.6380
@<TRIPOS>BOND
     1     1     2 1
     2     2     3 1
     3     2    11 1
     4     3     4 1
     5     4     9 ar
     6     4     5 ar
     7     5     6 ar
     8     6     7 ar
     9     7     8 ar
    10     8     9 ar
    11     9    10 1
    12    11    12 am
    13    12    13 2
    14    12    14 1
    15    14    15 2
    16    15    16 1
    17    16    21 ar
    18    16    17 ar
    19    17    18 ar
    20    18    19 ar
    21    19    20 ar
    22    19    22 1
    23    20    21 ar
    24    22    23 1
    25    23    24 2
    26    23    25 2
    27    23    26 1

@<TRIPOS>MOLECULE
ZINC04803109_replica-1.pdb
 27 29 0 0 0
SMALL
GASTEIGER

@<TRIPOS>ATOM
       1  C1         -0.2520   24.1890   57.6310  C.3       1 <0>        -0.1483
       2  C2         -1.1380   24.9360   58.6300  C.3       1 <0>        -0.0823
       3  C3         -0.8670   26.4160   58.5340  C.ar      1 <0>        -0.1164
       4  C4          0.3950   26.9060   58.8110  C.ar      1 <0>        -0.0766
       5  C5          0.6460   28.2610   58.7230  C.ar      1 <0>        -0.1410
       6  C6         -0.3720   29.1310   58.3570  C.ar      1 <0>         0.1231
       7  C7         -1.6370   28.6370   58.0800  C.ar      1 <0>        -0.2065
       8  C8         -1.8810   27.2800   58.1630  C.ar      1 <0>        -0.0771
       9  O1         -0.1270   30.4660   58.2710  O.3       1 <0>        -0.2924
      10  C9          1.2030   30.8600   57.9300  C.3       1 <0>         0.0743
      11  C10         1.1530   32.0890   57.0580  C.2       1 <0>         0.4668
      12  O2          2.1000   32.8440   57.0190  O.2       1 <0>        -0.4502
      13  O3          0.0600   32.3460   56.3250  O.3       1 <0>        -0.2338
      14  N1         -0.0430   31.5610   55.1510  N.2       1 <0>        -0.3627
      15  C11        -1.1520   30.9570   54.8720  C.2       1 <0>         0.3797
      16  C12        -1.2620   30.1210   53.6240  C.3       1 <0>        -0.0248
      17  C13        -0.6550   28.7640   53.8730  C.ar      1 <0>        -0.0660
      18  C14         0.0900   28.5420   54.9900  C.ar      1 <0>        -0.0938
      19  C15         0.6580   27.2950   55.2380  C.ar      1 <0>        -0.1148
      20  C16         0.4870   26.2620   54.3680  C.ar      1 <0>        -0.0980
      21  C17        -0.2770   26.4530   53.2040  C.ar      1 <0>        -0.0494
      22  C18        -0.8610   27.7210   52.9560  C.ar      1 <0>        -0.0254
      23  C19        -1.6280   27.9100   51.7930  C.ar      1 <0>        -0.1089
      24  C20        -1.8050   26.8750   50.9280  C.ar      1 <0>        -0.1134
      25  C21        -1.2370   25.6270   51.1760  C.ar      1 <0>        -0.1198
      26  C22        -0.4760   25.4100   52.2830  C.ar      1 <0>        -0.1017
      27  N2         -2.2320   31.0790   55.7160  N.pl3     1 <0>        -0.8676
@<TRIPOS>BOND
     1     1     2 1
     2     2     3 1
     3     3     8 ar
     4     3     4 ar
     5     4     5 ar
     6     5     6 ar
     7     6     7 ar
     8     6     9 1
     9     7     8 ar
    10     9    10 1
    11    10    11 1
    12    11    12 2
    13    11    13 1
    14    13    14 1
    15    14    15 2
    16    15    16 1
    17    15    27 1
    18    16    17 1
    19    17    22 ar
    20    17    18 ar
    21    18    19 ar
    22    19    20 ar
    23    20    21 ar
    24    21    26 ar
    25    21    22 ar
    26    22    23 ar
    27    23    24 ar
    28    24    25 ar
    29    25    26 ar

@<TRIPOS>MOLECULE
ZINC14021141_replica-1.pdb
 24 25 0 0 0
SMALL
GASTEIGER

@<TRIPOS>ATOM
       1  C1          0.6950   25.2170   54.2440  C.3       1 <0>        -0.1167
       2  C2         -0.0950   25.9300   53.1770  C.ar      1 <0>        -0.0404
       3  C3         -0.6840   25.2120   52.1570  C.ar      1 <0>        -0.1287
       4  C4         -1.4140   25.8650   51.1800  C.ar      1 <0>        -0.0972
       5  C5         -1.5520   27.2420   51.2130  C.ar      1 <0>        -0.1330
       6  C6         -0.9690   27.9720   52.2270  C.ar      1 <0>        -0.0848
       7  C7         -0.2350   27.3190   53.2200  C.ar      1 <0>        -0.0662
       8  C8          0.3920   28.0940   54.3080  C.2       1 <0>         0.1077
       9  N1          0.1960   29.3740   54.3880  N.2       1 <0>        -0.2184
      10  N2          0.7920   30.1100   55.4210  N.am      1 <0>        -0.5875
      11  C9          0.2860   31.3090   55.7720  C.2       1 <0>         0.5825
      12  O1         -0.6870   31.7520   55.1930  O.2       1 <0>        -0.5007
      13  C10         0.9130   32.0830   56.8600  C.ar      1 <0>        -0.1769
      14  C11         2.1320   31.6690   57.4030  C.ar      1 <0>        -0.0430
      15  C12         2.7160   32.3980   58.4150  C.ar      1 <0>        -0.2177
      16  C13         2.0890   33.5390   58.9040  C.ar      1 <0>         0.1646
      17  C14         0.8760   33.9510   58.3690  C.ar      1 <0>        -0.1590
      18  C15         0.2870   33.2310   57.3540  C.ar      1 <0>        -0.0121
      19  O2          2.6670   34.2510   59.9040  O.3       1 <0>        -0.3087
      20  C16         3.9710   34.7790   59.6580  C.3       1 <0>         0.0542
      21  C17         3.8550   36.0580   58.8270  C.3       1 <0>        -0.1159
      22  C18         4.6010   35.8760   57.5030  C.3       1 <0>        -0.0935
      23  C19         5.4630   34.6130   57.5740  C.3       1 <0>        -0.1545
      24  C20         3.5900   35.7390   56.3630  C.3       1 <0>        -0.1483
@<TRIPOS>BOND
     1     1     2 1
     2     2     7 ar
     3     2     3 ar
     4     3     4 ar
     5     4     5 ar
     6     5     6 ar
     7     6     7 ar
     8     7     8 1
     9     8     9 2
    10     9    10 1
    11    10    11 am
    12    11    12 2
    13    11    13 1
    14    13    18 ar
    15    13    14 ar
    16    14    15 ar
    17    15    16 ar
    18    16    17 ar
    19    16    19 1
    20    17    18 ar
    21    19    20 1
    22    20    21 1
    23    21    22 1
    24    22    23 1
    25    22    24 1

@<TRIPOS>MOLECULE
ZINC37197700_replica-1.pdb
 21 23 0 0 0
SMALL
GASTEIGER

@<TRIPOS>ATOM
       1  C1          9.2820   36.8860   61.8570  C.3       1 <0>        -0.1599
       2  C2         10.7450   36.4480   61.7700  C.3       1 <0>        -0.1337
       3  C3         10.8380   35.1200   61.0160  C.3       1 <0>         0.2000
       4  C4         11.7050   34.1620   61.7900  C.ar      1 <0>        -0.1201
       5  C5         13.0450   34.4420   61.9860  C.ar      1 <0>        -0.0764
       6  C6         13.8430   33.5710   62.6980  C.ar      1 <0>        -0.1336
       7  C7         13.3050   32.3990   63.2260  C.ar      1 <0>         0.1081
       8  C8         11.9590   32.1250   63.0160  C.ar      1 <0>        -0.1701
       9  C9         11.1630   33.0010   62.3120  C.ar      1 <0>        -0.0574
      10  C10        11.6700   30.7910   63.6760  C.3       1 <0>        -0.1118
      11  C11        13.0940   30.2290   63.9010  C.3       1 <0>         0.0507
      12  O1         13.9000   31.4190   63.9600  O.3       1 <0>        -0.3044
      13  N1          9.4960   34.5500   60.8650  N.pl3     1 <0>        -0.7395
      14  C12         8.8300   34.6450   59.6380  C.ar      1 <0>         0.2170
      15  C13         9.4700   35.2100   58.5410  C.ar      1 <0>        -0.1788
      16  C14         8.8130   35.3020   57.3310  C.ar      1 <0>        -0.0531
      17  C15         7.5110   34.8320   57.2090  C.ar      1 <0>        -0.1380
      18  C16         6.8700   34.2690   58.3050  C.ar      1 <0>        -0.0838
      19  C17         7.5310   34.1710   59.5140  C.ar      1 <0>        -0.1776
      20  S1          6.6710   34.9530   55.6640  S.3       1 <0>        -0.1338
      21  C18         7.4160   36.4030   54.8710  C.3       1 <0>        -0.1404
@<TRIPOS>BOND
     1     1     2 1
     2     2     3 1
     3     3     4 1
     4     3    13 1
     5     4     9 ar
     6     4     5 ar
     7     5     6 ar
     8     6     7 ar
     9     7    12 1
    10     7     8 ar
    11     8     9 ar
    12     8    10 1
    13    10    11 1
    14    11    12 1
    15    13    14 1
    16    14    19 ar
    17    14    15 ar
    18    15    16 ar
    19    16    17 ar
    20    17    18 ar
    21    17    20 1
    22    18    19 ar
    23    20    21 1

@<TRIPOS>MOLECULE
ZINC00516744_replica-1.pdb
 25 26 0 0 0
SMALL
GASTEIGER

@<TRIPOS>ATOM
       1  C1          8.6090   38.8490   57.4970  C.3       1 <0>        -0.1535
       2  C2          8.1150   37.4870   57.0040  C.3       1 <0>         0.0520
       3  O1          7.3090   36.8780   58.0150  O.3       1 <0>        -0.3138
       4  C3          6.1030   36.3860   57.6300  C.ar      1 <0>         0.1511
       5  C4          5.1420   36.0810   58.5860  C.ar      1 <0>        -0.1581
       6  C5          3.9180   35.5810   58.1990  C.ar      1 <0>        -0.0459
       7  C6          3.6430   35.3810   56.8440  C.ar      1 <0>        -0.1022
       8  C7          4.6140   35.6840   55.8860  C.ar      1 <0>        -0.0336
       9  C8          5.8350   36.1890   56.2810  C.ar      1 <0>        -0.2155
      10  C9          2.3340   34.8470   56.4250  C.2       1 <0>         0.1242
      11  N1          2.0620   33.5890   56.5940  N.2       1 <0>        -0.2343
      12  N2          0.8180   33.0820   56.1960  N.am      1 <0>        -0.5830
      13  C10         0.4160   31.8700   56.6270  C.2       1 <0>         0.5322
      14  O2          1.1320   31.2190   57.3590  O.2       1 <0>        -0.4758
      15  C11        -0.9220   31.3240   56.1990  C.3       1 <0>         0.0501
      16  O3         -0.9350   29.9060   56.3720  O.3       1 <0>        -0.2894
      17  C12        -0.8710   29.1470   55.2470  C.ar      1 <0>         0.1220
      18  C13        -0.1390   27.9680   55.2440  C.ar      1 <0>        -0.1418
      19  C14        -0.0770   27.1980   54.0990  C.ar      1 <0>        -0.0764
      20  C15        -0.7420   27.6020   52.9560  C.ar      1 <0>        -0.1106
      21  C16        -1.4720   28.7760   52.9560  C.ar      1 <0>        -0.0742
      22  C17        -1.5370   29.5500   54.0980  C.ar      1 <0>        -0.2073
      23  C18        -0.6720   26.7600   51.7080  C.3       1 <0>        -0.0544
      24  C19        -0.5900   25.2820   52.0930  C.3       1 <0>        -0.1453
      25  C20        -1.9230   26.9990   50.8600  C.3       1 <0>        -0.1454
@<TRIPOS>BOND
     1     1     2 1
     2     2     3 1
     3     3     4 1
     4     4     9 ar
     5     4     5 ar
     6     5     6 ar
     7     6     7 ar
     8     7     8 ar
     9     7    10 1
    10     8     9 ar
    11    10    11 2
    12    11    12 1
    13    12    13 am
    14    13    14 2
    15    13    15 1
    16    15    16 1
    17    16    17 1
    18    17    22 ar
    19    17    18 ar
    20    18    19 ar
    21    19    20 ar
    22    20    21 ar
    23    20    23 1
    24    21    22 ar
    25    23    24 1
    26    23    25 1

@<TRIPOS>MOLECULE
ZINC08775406_replica-1.pdb
 30 33 0 0 0
SMALL
GASTEIGER

@<TRIPOS>ATOM
       1  C1          7.8480   39.0970   57.3140  C.3       1 <0>        -0.1262
       2  C2          8.3970   37.9610   58.1390  C.ar      1 <0>        -0.0589
       3  C3          8.7310   36.7650   57.5280  C.ar      1 <0>        -0.1042
       4  C4          9.2350   35.7220   58.2780  C.ar      1 <0>        -0.0733
       5  C5          9.4080   35.8750   59.6530  C.ar      1 <0>        -0.0341
       6  C6          9.0650   37.0810   60.2630  C.ar      1 <0>        -0.1108
       7  C7          8.5670   38.1190   59.5020  C.ar      1 <0>        -0.1088
       8  C8          9.9480   34.7570   60.4640  C.2       1 <0>         0.1421
       9  C9          9.2850   33.5470   60.7520  C.2       1 <0>        -0.2992
      10  C10        10.1040   32.7970   61.5210  C.2       1 <0>         0.1095
      11  N1         11.2530   33.4970   61.7110  N.pl3     1 <0>        -0.2950
      12  N2         11.1310   34.7220   61.0430  N.2       1 <0>        -0.2527
      13  C11        12.3630   33.0690   62.4510  C.ar      1 <0>         0.1295
      14  C12        12.3520   31.8260   63.0680  C.ar      1 <0>        -0.1312
      15  C13        13.4510   31.4050   63.7920  C.ar      1 <0>        -0.0920
      16  C14        14.5570   32.2270   63.9120  C.ar      1 <0>        -0.1099
      17  C15        14.5680   33.4690   63.3030  C.ar      1 <0>        -0.0933
      18  C16        13.4750   33.8920   62.5730  C.ar      1 <0>        -0.1067
      19  C17         7.9030   33.1620   60.2880  C.3       1 <0>         0.0865
      20  C18         6.6010   32.6010   58.3260  C.3       1 <0>         0.0894
      21  C19         6.5390   31.3180   57.4950  C.3       1 <0>        -0.1722
      22  C20         6.2630   33.7820   57.4530  C.ar      1 <0>        -0.1743
      23  C21         6.7030   33.8220   56.1440  C.ar      1 <0>        -0.0971
      24  C22         6.3900   34.9030   55.3410  C.ar      1 <0>        -0.1368
      25  C23         5.6450   35.9520   55.8490  C.ar      1 <0>        -0.0540
      26  C24         5.2070   35.9190   57.1580  C.ar      1 <0>        -0.1931
      27  C25         5.5160   34.8320   57.9650  C.ar      1 <0>         0.1604
      28  O1          5.0860   34.7980   59.2530  O.3       1 <0>        -0.3160
      29  C26         5.4970   35.8700   60.1040  C.3       1 <0>         0.0223
      30  N3          7.9620   32.7710   58.8670  N.4       1 <0>        -0.5312
@<TRIPOS>BOND
     1     1     2 1
     2     2     7 ar
     3     2     3 ar
     4     3     4 ar
     5     4     5 ar
     6     5     6 ar
     7     5     8 1
     8     6     7 ar
     9     8    12 2
    10     8     9 1
    11     9    10 2
    12     9    19 1
    13    10    11 1
    14    11    12 1
    15    11    13 1
    16    13    18 ar
    17    13    14 ar
    18    14    15 ar
    19    15    16 ar
    20    16    17 ar
    21    17    18 ar
    22    19    30 1
    23    20    21 1
    24    20    22 1
    25    20    30 1
    26    22    27 ar
    27    22    23 ar
    28    23    24 ar
    29    24    25 ar
    30    25    26 ar
    31    26    27 ar
    32    27    28 1
    33    28    29 1

@<TRIPOS>MOLECULE
ZINC14480003_replica-1.pdb
 26 29 0 0 0
SMALL
GASTEIGER

@<TRIPOS>ATOM
       1  C1         -0.4510   25.0800   51.6250  C.3       1 <0>        -0.1176
       2  C2         -0.7820   26.4600   52.1340  C.ar      1 <0>        -0.0817
       3  C3         -1.6100   27.2870   51.3980  C.ar      1 <0>        -0.1151
       4  C4         -1.9090   28.5550   51.8630  C.ar      1 <0>        -0.1130
       5  C5         -1.3840   28.9930   53.0650  C.ar      1 <0>        -0.1113
       6  C6         -0.5590   28.1640   53.8010  C.ar      1 <0>        -0.0939
       7  C7         -0.2610   26.8960   53.3370  C.ar      1 <0>        -0.1050
       8  C8          0.0130   28.6420   55.1100  C.3       1 <0>         0.2041
       9  C9         -1.0960   28.8360   56.1290  C.3       1 <0>        -0.1001
      10  C10        -1.7890   27.5650   56.6280  C.3       1 <0>        -0.0854
      11  C11        -2.2320   28.0060   58.0250  C.2       1 <0>        -0.1636
      12  C12        -1.4290   28.9620   58.4760  C.2       1 <0>        -0.1520
      13  C13        -0.3790   29.2180   57.4570  C.3       1 <0>        -0.0282
      14  C14         0.2310   30.5530   57.2790  C.ar      1 <0>        -0.1586
      15  C15         0.3240   31.4680   58.3060  C.ar      1 <0>         0.0308
      16  C16         0.9250   32.6950   58.0940  C.ar      1 <0>        -0.7296
      17  C17         1.4330   33.0100   56.8470  C.ar      1 <0>         0.0265
      18  C18         1.3380   32.1040   55.8110  C.ar      1 <0>        -0.2146
      19  C19         0.7330   30.8700   56.0120  C.ar      1 <0>         0.2749
      20  N1          0.6350   29.9720   54.9410  N.pl3     1 <0>        -0.7339
      21  S1          1.0400   33.8590   59.4120  S.o2      1 <0>         2.6958
      22  O1          0.7910   35.1380   58.8470  O.2       1 <0>        -0.9596
      23  O2          0.2660   33.3360   60.4840  O.2       1 <0>        -0.9593
      24  N2          2.6140   33.8640   59.9240  N.pl3     1 <0>        -1.0066
      25  C20         3.5540   34.8540   59.3890  C.3       1 <0>         0.0851
      26  C21         3.0680   32.8820   60.9110  C.3       1 <0>         0.0823
@<TRIPOS>BOND
     1     1     2 1
     2     2     7 ar
     3     2     3 ar
     4     3     4 ar
     5     4     5 ar
     6     5     6 ar
     7     6     7 ar
     8     6     8 1
     9     8    20 1
    10     8     9 1
    11     9    13 1
    12     9    10 1
    13    10    11 1
    14    11    12 2
    15    12    13 1
    16    13    14 1
    17    14    19 ar
    18    14    15 ar
    19    15    16 ar
    20    16    17 ar
    21    16    21 1
    22    17    18 ar
    23    18    19 ar
    24    19    20 1
    25    21    22 2
    26    21    23 2
    27    21    24 1
    28    24    25 1
    29    24    26 1

@<TRIPOS>MOLECULE
ZINC40845788_replica-1.pdb
 25 26 0 0 0
SMALL
GASTEIGER

@<TRIPOS>ATOM
       1  C1         -0.4780   33.6350   62.6270  C.3       1 <0>        -0.1175
       2  C2          0.4980   33.1150   61.6040  C.ar      1 <0>        -0.0419
       3  C3          0.9200   31.7990   61.6570  C.ar      1 <0>        -0.1572
       4  C4          1.8150   31.3180   60.7200  C.ar      1 <0>        -0.0402
       5  C5          2.2900   32.1510   59.7260  C.ar      1 <0>        -0.1538
       6  C6          1.8690   33.4720   59.6690  C.ar      1 <0>         0.1361
       7  C7          0.9660   33.9510   60.6080  C.ar      1 <0>        -0.2200
       8  O1          2.3350   34.2950   58.6940  O.3       1 <0>        -0.2834
       9  C8          1.4350   34.6170   57.6310  C.3       1 <0>         0.0761
      10  C9          1.8980   35.9030   56.9440  C.3       1 <0>        -0.1792
      11  C10         1.4170   33.4910   56.6300  C.2       1 <0>         0.5349
      12  O2          2.4510   33.1180   56.1170  O.2       1 <0>        -0.4740
      13  N1          0.2510   32.8980   56.3050  N.am      1 <0>        -0.5815
      14  N2          0.2330   31.8500   55.3740  N.2       1 <0>        -0.2277
      15  C11        -0.5480   30.8310   55.5590  C.2       1 <0>         0.1164
      16  C12        -0.5670   29.7300   54.5790  C.ar      1 <0>        -0.0659
      17  C13         0.3350   28.6700   54.6970  C.ar      1 <0>        -0.0730
      18  C14         0.3100   27.6430   53.7770  C.ar      1 <0>        -0.1234
      19  C15        -0.6050   27.6600   52.7390  C.ar      1 <0>        -0.0561
      20  C16        -1.5010   28.7070   52.6160  C.ar      1 <0>        -0.1207
      21  C17        -1.4920   29.7380   53.5320  C.ar      1 <0>        -0.0850
      22  C18        -0.6240   26.5350   51.7370  C.3       1 <0>        -0.0619
      23  C19        -0.5110   25.1960   52.4710  C.3       1 <0>        -0.1453
      24  C20        -1.9360   26.5750   50.9500  C.3       1 <0>        -0.1453
      25  C21         2.2720   29.8830   60.7820  C.3       1 <0>        -0.1172
@<TRIPOS>BOND
     1     1     2 1
     2     2     7 ar
     3     2     3 ar
     4     3     4 ar
     5     4     5 ar
     6     4    25 1
     7     5     6 ar
     8     6     7 ar
     9     6     8 1
    10     8     9 1
    11     9    10 1
    12     9    11 1
    13    11    12 2
    14    11    13 am
    15    13    14 1
    16    14    15 2
    17    15    16 1
    18    16    21 ar
    19    16    17 ar
    20    17    18 ar
    21    18    19 ar
    22    19    20 ar
    23    19    22 1
    24    20    21 ar
    25    22    23 1
    26    22    24 1

@<TRIPOS>MOLECULE
ZINC02502976_replica-1.pdb
 29 32 0 0 0
SMALL
GASTEIGER

@<TRIPOS>ATOM
       1  C1          3.0540   34.8030   57.0460  C.ar      1 <0>        -0.1105
       2  C2          2.9650   35.8930   57.8920  C.ar      1 <0>        -0.1147
       3  C3          3.6850   35.9130   59.0710  C.ar      1 <0>        -0.1109
       4  C4          4.4930   34.8430   59.4060  C.ar      1 <0>        -0.1212
       5  C5          4.5860   33.7550   58.5590  C.ar      1 <0>        -0.0999
       6  C6          3.8620   33.7330   57.3810  C.ar      1 <0>        -0.1181
       7  C7          5.2780   34.8640   60.6930  C.3       1 <0>         0.1667
       8  N1          6.6190   35.3990   60.4390  N.pl3     1 <0>        -0.9961
       9  C8          6.9160   36.8430   60.5250  C.3       1 <0>         0.4239
      10  N2          7.9680   37.0460   61.5180  N.pl3     1 <0>        -0.7520
      11  C9          9.1600   36.3270   61.5280  C.ar      1 <0>         0.2896
      12  C10        10.2660   36.8680   62.1830  C.ar      1 <0>        -0.1928
      13  C11        11.4560   36.1730   62.2250  C.ar      1 <0>        -0.0280
      14  C12        11.5620   34.9340   61.6200  C.ar      1 <0>        -0.1732
      15  C13        10.4710   34.3940   60.9610  C.ar      1 <0>         0.0110
      16  C14         9.2820   35.0900   60.9100  C.ar      1 <0>        -0.7119
      17  S1          7.9030   34.4140   60.0350  S.o2      1 <0>         2.6778
      18  O1          8.1550   34.6080   58.6490  O.2       1 <0>        -0.9399
      19  O2          7.6420   33.1350   60.5960  O.2       1 <0>        -0.9531
      20  C15         7.3840   37.3430   59.1820  C.ar      1 <0>        -0.1616
      21  C16         8.4020   38.2760   59.1090  C.ar      1 <0>        -0.0174
      22  C17         8.8350   38.7300   57.8770  C.ar      1 <0>        -0.1179
      23  C18         8.2430   38.2600   56.7200  C.ar      1 <0>        -0.0538
      24  C19         7.2250   37.3270   56.7930  C.ar      1 <0>        -0.1953
      25  C20         6.7960   36.8690   58.0260  C.ar      1 <0>        -0.0341
      26  C21         6.5840   36.8100   55.5310  C.3       1 <0>         0.5096
      27  F1          5.4670   37.5920   55.2220  F         1 <0>        -0.1764
      28  F2          7.5050   36.8760   54.4800  F         1 <0>        -0.1774
      29  F3          6.1860   35.4820   55.7200  F         1 <0>        -0.1760
@<TRIPOS>BOND
     1     1     6 ar
     2     1     2 ar
     3     2     3 ar
     4     3     4 ar
     5     4     5 ar
     6     4     7 1
     7     5     6 ar
     8     7     8 1
     9     8    17 1
    10     8     9 1
    11     9    10 1
    12     9    20 1
    13    10    11 1
    14    11    16 ar
    15    11    12 ar
    16    12    13 ar
    17    13    14 ar
    18    14    15 ar
    19    15    16 ar
    20    16    17 1
    21    17    18 2
    22    17    19 2
    23    20    25 ar
    24    20    21 ar
    25    21    22 ar
    26    22    23 ar
    27    23    24 ar
    28    24    25 ar
    29    24    26 1
    30    26    27 1
    31    26    28 1
    32    26    29 1

@<TRIPOS>MOLECULE
ZINC12651926_replica-1.pdb
 26 28 0 0 0
SMALL
GASTEIGER

@<TRIPOS>ATOM
       1  C1          1.1570   31.0990   59.7140  C.3       1 <0>        -0.1086
       2  C2          1.3990   31.5490   58.2960  C.ar      1 <0>         0.2125
       3  C3          0.4950   31.2320   57.2990  C.ar      1 <0>        -0.2490
       4  C4          0.7580   31.6690   55.9980  C.ar      1 <0>         0.4644
       5  N1          1.8620   32.3720   55.7640  N.ar      1 <0>        -0.5354
       6  C5          2.7030   32.6550   56.7490  C.ar      1 <0>         0.3991
       7  N2          2.4760   32.2570   57.9930  N.ar      1 <0>        -0.5432
       8  C6          3.9260   33.4400   56.4520  C.ar      1 <0>        -0.0496
       9  C7          4.9070   33.6000   57.4270  C.ar      1 <0>        -0.0686
      10  C8          6.0430   34.3330   57.1470  C.ar      1 <0>        -0.1332
      11  C9          6.2070   34.9070   55.8990  C.ar      1 <0>        -0.0982
      12  C10         5.2350   34.7520   54.9270  C.ar      1 <0>        -0.1328
      13  C11         4.0990   34.0160   55.1950  C.ar      1 <0>        -0.0672
      14  N3         -0.1190   31.3740   54.9660  N.pl3     1 <0>        -0.5557
      15  N4         -0.0310   30.1440   54.3020  N.2       1 <0>        -0.2136
      16  C12        -1.0930   29.6100   53.7830  C.2       1 <0>         0.1230
      17  C13        -2.4210   30.3120   53.8930  C.3       1 <0>        -0.1562
      18  C14        -1.0000   28.3140   53.0830  C.ar      1 <0>        -0.0446
      19  C15        -1.5900   28.1510   51.8280  C.ar      1 <0>        -0.0960
      20  C16        -1.4990   26.9370   51.1790  C.ar      1 <0>        -0.1233
      21  C17        -0.8250   25.8830   51.7700  C.ar      1 <0>        -0.1052
      22  C18        -0.2390   26.0370   53.0130  C.ar      1 <0>        -0.1233
      23  C19        -0.3170   27.2470   53.6710  C.ar      1 <0>        -0.0796
      24  C20        -0.7440   30.4320   57.6070  C.3       1 <0>        -0.0407
      25  C21        -0.4260   28.9620   57.5230  C.2       1 <0>        -0.1488
      26  C22        -1.3730   28.1020   57.2370  C.2       1 <0>        -0.1923
@<TRIPOS>BOND
     1     1     2 1
     2     2     7 ar
     3     2     3 ar
     4     3     4 ar
     5     3    24 1
     6     4     5 ar
     7     4    14 1
     8     5     6 ar
     9     6     7 ar
    10     6     8 1
    11     8    13 ar
    12     8     9 ar
    13     9    10 ar
    14    10    11 ar
    15    11    12 ar
    16    12    13 ar
    17    14    15 1
    18    15    16 2
    19    16    17 1
    20    16    18 1
    21    18    23 ar
    22    18    19 ar
    23    19    20 ar
    24    20    21 ar
    25    21    22 ar
    26    22    23 ar
    27    24    25 1
    28    25    26 2

@<TRIPOS>MOLECULE
ZINC05253221_replica-1.pdb
 29 33 0 0 0
SMALL
GASTEIGER

@<TRIPOS>ATOM
       1  C1         12.8390   29.9710   63.7340  C.3       1 <0>         0.0264
       2  O1         11.7010   30.8350   63.7020  O.3       1 <0>        -0.3162
       3  C2         11.8450   32.0200   63.0510  C.ar      1 <0>         0.1278
       4  C3         13.0420   32.7170   63.1370  C.ar      1 <0>        -0.1996
       5  C4         13.1930   33.9250   62.4810  C.ar      1 <0>        -0.0781
       6  C5         12.1580   34.4410   61.7280  C.ar      1 <0>        -0.1342
       7  C6         10.9510   33.7430   61.6320  C.ar      1 <0>         0.0215
       8  C7         10.7990   32.5270   62.2990  C.ar      1 <0>        -0.1225
       9  C8          9.8420   34.2910   60.8280  C.2       1 <0>         0.0861
      10  N1          9.0910   33.6060   60.0290  N.2       1 <0>        -0.1930
      11  N2          8.1440   34.3700   59.3730  N.pl3     1 <0>        -0.5534
      12  C9          8.1310   35.7280   59.9590  C.3       1 <0>         0.1578
      13  C10         9.4050   35.7410   60.8150  C.3       1 <0>        -0.1129
      14  C11         8.2150   36.6930   58.8040  C.ar      1 <0>        -0.1659
      15  C12         8.5480   38.0110   59.0500  C.ar      1 <0>        -0.0777
      16  C13         8.6160   38.9190   58.0100  C.ar      1 <0>        -0.1492
      17  C14         8.3490   38.5030   56.7190  C.ar      1 <0>        -0.0814
      18  C15         8.0220   37.1880   56.4700  C.ar      1 <0>        -0.1498
      19  C16         7.9570   36.2620   57.5120  C.ar      1 <0>         0.1518
      20  O2          7.6550   34.9800   57.1880  O.3       1 <0>        -0.3250
      21  C17         7.3030   34.0440   58.2130  C.3       1 <0>         0.4217
      22  C18         5.8470   34.1910   58.5720  C.ar      1 <0>        -0.1421
      23  C19         5.0100   34.9430   57.7680  C.ar      1 <0>        -0.0648
      24  C20         3.6740   35.0760   58.0920  C.ar      1 <0>        -0.1380
      25  C21         3.1730   34.4600   59.2330  C.ar      1 <0>        -0.0699
      26  C22         4.0180   33.7090   60.0410  C.ar      1 <0>        -0.1015
      27  C23         5.3510   33.5770   59.7080  C.ar      1 <0>        -0.0665
      28  S1          1.4700   34.6330   59.6540  S.3       1 <0>        -0.1125
      29  C24         0.6470   34.8890   58.0580  C.3       1 <0>        -0.1454
@<TRIPOS>BOND
     1     1     2 1
     2     2     3 1
     3     3     8 ar
     4     3     4 ar
     5     4     5 ar
     6     5     6 ar
     7     6     7 ar
     8     7     8 ar
     9     7     9 1
    10     9    13 1
    11     9    10 2
    12    10    11 1
    13    11    21 1
    14    11    12 1
    15    12    13 1
    16    12    14 1
    17    14    19 ar
    18    14    15 ar
    19    15    16 ar
    20    16    17 ar
    21    17    18 ar
    22    18    19 ar
    23    19    20 1
    24    20    21 1
    25    21    22 1
    26    22    27 ar
    27    22    23 ar
    28    23    24 ar
    29    24    25 ar
    30    25    26 ar
    31    25    28 1
    32    26    27 ar
    33    28    29 1

@<TRIPOS>MOLECULE
ZINC65149023_replica-1.pdb
 26 29 0 0 0
SMALL
GASTEIGER

@<TRIPOS>ATOM
       1  C1         -0.8530   25.2720   51.5890  C.3       1 <0>        -0.1507
       2  C2         -1.2890   26.7360   51.5250  C.3       1 <0>        -0.1413
       3  C3         -0.2070   27.6190   52.1490  C.3       1 <0>         0.1115
       4  N1         -0.4550   27.7540   53.5870  N.pl3     1 <0>        -0.4869
       5  C4          0.2010   27.0480   54.5700  C.2       1 <0>         0.0660
       6  C5         -0.2340   27.4240   55.7640  C.2       1 <0>        -0.1713
       7  C6         -1.2230   28.4950   55.5390  C.ar      1 <0>        -0.0968
       8  C7         -1.3710   28.6110   54.1520  C.ar      1 <0>         0.1095
       9  C8         -2.3520   29.4750   53.6780  C.ar      1 <0>        -0.1231
      10  C9         -3.0940   30.2190   54.5730  C.ar      1 <0>        -0.0972
      11  C10        -2.8690   30.1490   55.9450  C.ar      1 <0>        -0.1417
      12  C11        -1.9090   29.3110   56.4260  C.ar      1 <0>        -0.0686
      13  C12        -1.4870   29.3410   57.8790  C.3       1 <0>         0.1523
      14  N2         -0.0160   29.3150   57.9280  N.am      1 <0>        -0.6100
      15  C13         0.7500   28.0710   57.9380  C.3       1 <0>         0.1349
      16  C14         0.0960   26.9410   57.1560  C.3       1 <0>        -0.0518
      17  C15         0.6500   30.4860   57.9660  C.2       1 <0>         0.7077
      18  O1          1.8660   30.4920   58.0070  O.2       1 <0>        -0.5713
      19  N3         -0.0310   31.6480   57.9570  N.am      1 <0>        -0.6843
      20  C16         0.6560   32.8620   58.0950  C.ar      1 <0>         0.1550
      21  C17         1.1050   33.5380   56.9690  C.ar      1 <0>        -0.1192
      22  C18         1.7810   34.7350   57.1060  C.ar      1 <0>        -0.1333
      23  C19         2.0110   35.2600   58.3660  C.ar      1 <0>         0.0803
      24  C20         1.5650   34.5880   59.4910  C.ar      1 <0>        -0.1341
      25  C21         0.8830   33.3940   59.3570  C.ar      1 <0>        -0.0907
      26  F1          2.6720   36.4310   58.4980  F         1 <0>        -0.1405
@<TRIPOS>BOND
     1     1     2 1
     2     2     3 1
     3     3     4 1
     4     4     8 1
     5     4     5 1
     6     5     6 2
     7     6    16 1
     8     6     7 1
     9     7    12 ar
    10     7     8 ar
    11     8     9 ar
    12     9    10 ar
    13    10    11 ar
    14    11    12 ar
    15    12    13 1
    16    13    14 1
    17    14    15 1
    18    14    17 am
    19    15    16 1
    20    17    18 2
    21    17    19 am
    22    19    20 1
    23    20    25 ar
    24    20    21 ar
    25    21    22 ar
    26    22    23 ar
    27    23    24 ar
    28    23    26 1
    29    24    25 ar

@<TRIPOS>MOLECULE
ZINC08905744_replica-1.pdb
 29 30 0 0 0
SMALL
GASTEIGER

@<TRIPOS>ATOM
       1  C1          7.3920   38.5490   55.9930  C.3       1 <0>        -0.1581
       2  C2          7.1430   37.1030   55.5590  C.3       1 <0>        -0.1161
       3  C3          6.8860   36.2370   56.7940  C.3       1 <0>        -0.0218
       4  C4          7.5180   36.8980   58.0210  C.3       1 <0>        -0.1419
       5  C5          7.5040   34.8530   56.5850  C.3       1 <0>        -0.1418
       6  C6          5.4010   36.0970   57.0090  C.ar      1 <0>        -0.1026
       7  C7          4.5370   36.1890   55.9310  C.ar      1 <0>        -0.0744
       8  C8          3.1760   36.0610   56.1250  C.ar      1 <0>        -0.1415
       9  C9          2.6740   35.8420   57.4000  C.ar      1 <0>         0.1210
      10  C10         3.5420   35.7550   58.4780  C.ar      1 <0>        -0.2068
      11  C11         4.9030   35.8770   58.2790  C.ar      1 <0>        -0.0808
      12  O1          1.3340   35.7150   57.5920  O.3       1 <0>        -0.2896
      13  C12         0.8820   34.5280   58.2440  C.3       1 <0>         0.0543
      14  C13         0.9290   33.3740   57.2770  C.2       1 <0>         0.5177
      15  O2          1.8460   32.5810   57.3230  O.2       1 <0>        -0.5114
      16  N1         -0.0500   33.2200   56.3630  N.am      1 <0>        -0.5189
      17  N2         -0.0050   32.1470   55.4630  N.am      1 <0>        -0.5175
      18  C14        -0.9640   31.1990   55.4970  C.2       1 <0>         0.5654
      19  O3         -1.8670   31.2770   56.3070  O.2       1 <0>        -0.5338
      20  C15        -0.9160   30.0670   54.5470  C.ar      1 <0>        -0.1380
      21  C16         0.0620   29.0810   54.6800  C.ar      1 <0>        -0.0807
      22  C17         0.0980   28.0250   53.7920  C.ar      1 <0>        -0.1270
      23  C18        -0.8270   27.9490   52.7670  C.ar      1 <0>        -0.0355
      24  C19        -1.7970   28.9260   52.6260  C.ar      1 <0>        -0.1228
      25  C20        -1.8470   29.9840   53.5090  C.ar      1 <0>        -0.0488
      26  C21        -0.7790   26.7960   51.7980  C.3       1 <0>        -0.0356
      27  C22        -0.5070   25.4980   52.5610  C.3       1 <0>        -0.1406
      28  C23        -2.1180   26.6860   51.0670  C.3       1 <0>        -0.1477
      29  C24         0.3400   27.0310   50.7800  C.3       1 <0>        -0.1407
@<TRIPOS>BOND
     1     1     2 1
     2     2     3 1
     3     3     4 1
     4     3     5 1
     5     3     6 1
     6     6    11 ar
     7     6     7 ar
     8     7     8 ar
     9     8     9 ar
    10     9    10 ar
    11     9    12 1
    12    10    11 ar
    13    12    13 1
    14    13    14 1
    15    14    15 2
    16    14    16 am
    17    16    17 1
    18    17    18 am
    19    18    19 2
    20    18    20 1
    21    20    25 ar
    22    20    21 ar
    23    21    22 ar
    24    22    23 ar
    25    23    24 ar
    26    23    26 1
    27    24    25 ar
    28    26    27 1
    29    26    28 1
    30    26    29 1

@<TRIPOS>MOLECULE
ZINC62123727_replica-1.pdb
 27 28 0 0 0
SMALL
GASTEIGER

@<TRIPOS>ATOM
       1  C1         -0.5390   24.6160   51.4240  C.3       1 <0>        -0.0881
       2  C2         -0.7650   26.0040   51.9650  C.ar      1 <0>        -0.2045
       3  C3         -0.1720   26.3850   53.1550  C.ar      1 <0>        -0.0785
       4  C4         -0.3770   27.6570   53.6540  C.ar      1 <0>        -0.1851
       5  C5         -1.1800   28.5520   52.9590  C.ar      1 <0>         0.2787
       6  C6         -1.7750   28.1660   51.7650  C.ar      1 <0>        -0.2571
       7  C7         -1.5600   26.8950   51.2690  C.ar      1 <0>        -0.0669
       8  N1         -1.3900   29.8390   53.4610  N.2       1 <0>        -1.0990
       9  S1         -1.3190   30.1130   55.0930  S.o2      1 <0>         2.5278
      10  O1         -2.2620   31.1480   55.3290  O.2       1 <0>        -1.0283
      11  O2         -1.4880   28.8310   55.6830  O.2       1 <0>        -1.0227
      12  C8          0.3640   30.7210   55.3900  C.3       1 <0>        -0.5817
      13  C9          0.3440   31.7330   56.5380  C.3       1 <0>        -0.0951
      14  C10         0.0720   31.0060   57.8550  C.3       1 <0>        -0.1737
      15  C11         1.6780   32.4290   56.6150  C.2       1 <0>         0.5269
      16  O3          2.5530   31.9870   57.3300  O.2       1 <0>        -0.5093
      17  N2          1.9000   33.5440   55.8910  N.am      1 <0>        -0.6771
      18  C12         3.1020   34.2460   56.0360  C.ar      1 <0>         0.1441
      19  C13         4.1150   34.0920   55.1000  C.ar      1 <0>        -0.1442
      20  C14         5.3010   34.7860   55.2460  C.ar      1 <0>        -0.0981
      21  C15         5.4770   35.6340   56.3230  C.ar      1 <0>        -0.0897
      22  C16         4.4700   35.7900   57.2580  C.ar      1 <0>        -0.1024
      23  C17         3.2810   35.1040   57.1140  C.ar      1 <0>        -0.1189
      24  C18         6.7720   36.3900   56.4800  C.3       1 <0>        -0.0274
      25  C19         6.9050   36.8780   57.9250  C.3       1 <0>        -0.1386
      26  C20         7.9460   35.4680   56.1440  C.3       1 <0>        -0.1454
      27  C21         6.7800   37.5920   55.5340  C.3       1 <0>        -0.1376
@<TRIPOS>BOND
     1     1     2 1
     2     2     7 ar
     3     2     3 ar
     4     3     4 ar
     5     4     5 ar
     6     5     6 ar
     7     5     8 1
     8     6     7 ar
     9     8     9 1
    10     9    10 2
    11     9    11 2
    12     9    12 1
    13    12    13 1
    14    13    14 1
    15    13    15 1
    16    15    16 2
    17    15    17 am
    18    17    18 1
    19    18    23 ar
    20    18    19 ar
    21    19    20 ar
    22    20    21 ar
    23    21    22 ar
    24    21    24 1
    25    22    23 ar
    26    24    25 1
    27    24    26 1
    28    24    27 1

@<TRIPOS>MOLECULE
ZINC00407760_replica-1.pdb
 25 28 0 0 0
SMALL
GASTEIGER

@<TRIPOS>ATOM
       1  C1         14.8140   32.9510   63.9740  C.3       1 <0>        -0.1246
       2  C2         13.5560   33.1470   63.1670  C.ar      1 <0>        -0.0531
       3  C3         13.3670   34.3230   62.4610  C.ar      1 <0>        -0.1246
       4  C4         12.2190   34.5100   61.7210  C.ar      1 <0>        -0.0836
       5  C5         11.2440   33.5060   61.6840  C.ar      1 <0>        -0.0877
       6  C6         11.4420   32.3210   62.3990  C.ar      1 <0>        -0.0525
       7  C7         12.5980   32.1480   63.1310  C.ar      1 <0>        -0.0954
       8  C8         12.8180   30.8700   63.8980  C.3       1 <0>        -0.1195
       9  C9         10.0160   33.6970   60.8960  C.2       1 <0>         0.2664
      10  C10         9.9700   34.8170   59.8940  C.3       1 <0>        -0.1503
      11  C11         9.1190   34.4360   58.6770  C.3       1 <0>         0.2095
      12  N1          7.9220   33.7460   59.1580  N.pl3     1 <0>        -0.4084
      13  C12         7.9090   33.0070   60.3090  C.2       1 <0>         0.4304
      14  N2          6.7030   32.5140   60.4460  N.2       1 <0>        -0.4952
      15  C13         5.9360   32.9150   59.4310  C.2       1 <0>         0.2204
      16  N3          6.6400   33.6720   58.6230  N.2       1 <0>        -0.2838
      17  C14         4.4860   32.5540   59.2410  C.3       1 <0>        -0.0585
      18  N4          9.0130   32.8850   61.0930  N.2       1 <0>        -0.4353
      19  C15         8.7230   35.6790   57.9240  C.ar      1 <0>        -0.1089
      20  C16         8.6170   36.8870   58.5890  C.ar      1 <0>        -0.0587
      21  C17         8.2550   38.0280   57.9000  C.ar      1 <0>        -0.1505
      22  C18         7.9970   37.9620   56.5410  C.ar      1 <0>         0.1150
      23  C19         8.1040   36.7530   55.8750  C.ar      1 <0>        -0.1512
      24  C20         8.4720   35.6140   56.5650  C.ar      1 <0>        -0.0629
      25  F1          7.6430   39.0770   55.8660  F         1 <0>        -0.1344
@<TRIPOS>BOND
     1     1     2 1
     2     2     7 ar
     3     2     3 ar
     4     3     4 ar
     5     4     5 ar
     6     5     6 ar
     7     5     9 1
     8     6     7 ar
     9     7     8 1
    10     9    18 2
    11     9    10 1
    12    10    11 1
    13    11    12 1
    14    11    19 1
    15    12    16 1
    16    12    13 1
    17    13    14 2
    18    13    18 1
    19    14    15 1
    20    15    16 2
    21    15    17 1
    22    19    24 ar
    23    19    20 ar
    24    20    21 ar
    25    21    22 ar
    26    22    23 ar
    27    22    25 1
    28    23    24 ar

@<TRIPOS>MOLECULE
ZINC15084706_replica-1.pdb
 25 28 0 0 0
SMALL
GASTEIGER

@<TRIPOS>ATOM
       1  C1          7.2890   38.3230   55.8100  C.3       1 <0>        -0.0786
       2  C2          7.6910   37.2820   56.8220  C.2       1 <0>         0.1182
       3  C3          7.1810   35.9950   56.9070  C.2       1 <0>        -0.2583
       4  C4          7.8070   35.3550   57.9640  C.2       1 <0>         0.2711
       5  N1          8.6740   36.2500   58.5090  N.pl3     1 <0>        -0.2940
       6  N2          8.5820   37.4410   57.7730  N.2       1 <0>        -0.2669
       7  C5          9.5070   36.0250   59.6140  C.ar      1 <0>         0.1352
       8  C6          9.5630   36.9540   60.6440  C.ar      1 <0>        -0.0779
       9  C7         10.3800   36.7270   61.7340  C.ar      1 <0>        -0.1355
      10  C8         11.1520   35.5790   61.7940  C.ar      1 <0>         0.1048
      11  C9         11.1020   34.6530   60.7660  C.ar      1 <0>        -0.1380
      12  C10        10.2810   34.8730   59.6770  C.ar      1 <0>        -0.0767
      13  F1         11.9550   35.3620   62.8590  F         1 <0>        -0.1324
      14  N3          7.5390   34.0820   58.3550  N.2       1 <0>        -0.4748
      15  C11         6.9720   33.2170   57.5740  C.2       1 <0>         0.2171
      16  S1          6.5560   33.5780   55.9020  S.3       1 <0>        -0.1045
      17  C12         6.1340   35.3370   56.0420  C.3       1 <0>         0.0569
      18  C13         4.7780   35.4870   56.6810  C.ar      1 <0>        -0.0914
      19  C14         3.6370   35.2080   55.9530  C.ar      1 <0>        -0.0856
      20  C15         2.3930   35.3400   56.5400  C.ar      1 <0>        -0.1458
      21  C16         2.2880   35.7630   57.8540  C.ar      1 <0>         0.1065
      22  C17         3.4320   36.0480   58.5810  C.ar      1 <0>        -0.1477
      23  C18         4.6750   35.9090   57.9940  C.ar      1 <0>        -0.0689
      24  F2          1.0720   35.8980   58.4260  F         1 <0>        -0.1360
      25  C19         6.6520   31.8490   58.1190  C.3       1 <0>        -0.1088
@<TRIPOS>BOND
     1     1     2 1
     2     2     6 2
     3     2     3 1
     4     3    17 1
     5     3     4 2
     6     4     5 1
     7     4    14 1
     8     5     6 1
     9     5     7 1
    10     7    12 ar
    11     7     8 ar
    12     8     9 ar
    13     9    10 ar
    14    10    11 ar
    15    10    13 1
    16    11    12 ar
    17    14    15 2
    18    15    16 1
    19    15    25 1
    20    16    17 1
    21    17    18 1
    22    18    23 ar
    23    18    19 ar
    24    19    20 ar
    25    20    21 ar
    26    21    22 ar
    27    21    24 1
    28    22    23 ar

@<TRIPOS>MOLECULE
ZINC08685106_replica-1.pdb
 22 23 0 0 0
SMALL
GASTEIGER

@<TRIPOS>ATOM
       1  C1          7.1130   37.4890   55.8420  C.3       1 <0>        -0.1442
       2  C2          7.9830   36.3200   56.3100  C.3       1 <0>        -0.0868
       3  C3          8.5130   36.6100   57.6910  C.ar      1 <0>        -0.0430
       4  C4          8.3060   37.8490   58.2650  C.ar      1 <0>        -0.1182
       5  C5          8.7920   38.1160   59.5310  C.ar      1 <0>        -0.0987
       6  C6          9.4880   37.1460   60.2270  C.ar      1 <0>        -0.1187
       7  C7          9.6990   35.9040   59.6590  C.ar      1 <0>        -0.0593
       8  C8          9.2070   35.6310   58.3890  C.ar      1 <0>         0.1386
       9  N1          9.4140   34.3730   57.8130  N.pl3     1 <0>        -0.6455
      10  C9          8.4420   33.4140   57.8950  C.cat     1 <0>         0.5509
      11  N2          8.0030   32.9890   59.1170  N.pl3     1 <0>        -0.6843
      12  C10         6.5670   32.9500   59.4070  C.3       1 <0>         0.1626
      13  C11         6.3340   32.2180   60.7300  C.3       1 <0>        -0.1672
      14  C12         6.0380   34.3570   59.5110  C.ar      1 <0>        -0.0973
      15  C13         5.2580   34.8790   58.4970  C.ar      1 <0>        -0.1112
      16  C14         4.7730   36.1700   58.5920  C.ar      1 <0>        -0.1118
      17  C15         5.0670   36.9380   59.7030  C.ar      1 <0>        -0.1126
      18  C16         5.8470   36.4170   60.7190  C.ar      1 <0>        -0.1138
      19  C17         6.3290   35.1240   60.6240  C.ar      1 <0>        -0.1059
      20  S1          7.7970   32.7660   56.5100  S.3       1 <0>        -0.5627
      21  C18        10.4580   34.8460   60.4180  C.3       1 <0>        -0.0851
      22  C19        11.1100   35.4740   61.6520  C.3       1 <0>        -0.1436
@<TRIPOS>BOND
     1     1     2 1
     2     2     3 1
     3     3     8 ar
     4     3     4 ar
     5     4     5 ar
     6     5     6 ar
     7     6     7 ar
     8     7     8 ar
     9     7    21 1
    10     8     9 1
    11     9    10 1
    12    10    11 2
    13    10    20 1
    14    11    12 1
    15    12    13 1
    16    12    14 1
    17    14    19 ar
    18    14    15 ar
    19    15    16 ar
    20    16    17 ar
    21    17    18 ar
    22    18    19 ar
    23    21    22 1

@<TRIPOS>MOLECULE
ZINC57270745_replica-1.pdb
 27 29 0 0 0
SMALL
GASTEIGER

@<TRIPOS>ATOM
       1  C1          5.8890   37.3870   60.0300  C.3       1 <0>        -0.1735
       2  C2          6.3030   36.1310   59.2620  C.3       1 <0>        -0.0090
       3  N1          6.2060   36.3850   57.8180  N.4       1 <0>        -0.2799
       4  C3          7.5060   36.1220   57.1850  C.3       1 <0>        -0.0090
       5  C4          8.3210   37.4150   57.1370  C.3       1 <0>        -0.1702
       6  C5          5.2390   35.5440   57.2610  C.ar      1 <0>        -0.2290
       7  C6          3.9310   35.9780   57.1460  C.ar      1 <0>        -0.1177
       8  C7          2.9730   35.1490   56.5950  C.ar      1 <0>        -0.0770
       9  C8          3.3250   33.8790   56.1560  C.ar      1 <0>         0.0681
      10  C9          4.6400   33.4460   56.2730  C.ar      1 <0>        -0.1437
      11  C10         5.5940   34.2820   56.8200  C.ar      1 <0>        -0.0914
      12  N2          2.3570   33.0370   55.5980  N.pl3     1 <0>        -0.5978
      13  C11         1.6430   32.1720   56.4080  C.ar      1 <0>         0.4813
      14  N3          1.8180   32.2390   57.7140  N.ar      1 <0>        -0.5835
      15  C12         1.1450   31.4170   58.5330  C.ar      1 <0>         0.2227
      16  C13         1.3060   31.4620   59.9240  C.ar      1 <0>        -0.1639
      17  C14         0.5970   30.6040   60.7110  C.ar      1 <0>        -0.0675
      18  C15        -0.2860   29.6820   60.1550  C.ar      1 <0>        -0.1887
      19  C16        -0.4660   29.6120   58.8050  C.ar      1 <0>        -0.0621
      20  C17         0.2460   30.4790   57.9690  C.ar      1 <0>        -0.2004
      21  C18         0.0990   30.4520   56.5590  C.ar      1 <0>         0.4331
      22  N4          0.8060   31.3100   55.8380  N.ar      1 <0>        -0.5576
      23  N5         -0.7620   29.5610   55.9550  N.pl3     1 <0>        -0.6507
      24  C19        -2.1490   29.9490   55.6860  C.3       1 <0>         0.1432
      25  C20        -3.0940   28.9100   56.2900  C.3       1 <0>        -0.1697
      26  C21        -0.2880   28.2260   55.5810  C.3       1 <0>         0.1462
      27  C22        -0.1660   28.1360   54.0590  C.3       1 <0>        -0.1748
@<TRIPOS>BOND
     1     1     2 1
     2     2     3 1
     3     3     4 1
     4     3     6 1
     5     4     5 1
     6     6    11 ar
     7     6     7 ar
     8     7     8 ar
     9     8     9 ar
    10     9    10 ar
    11     9    12 1
    12    10    11 ar
    13    12    13 1
    14    13    22 ar
    15    13    14 ar
    16    14    15 ar
    17    15    20 ar
    18    15    16 ar
    19    16    17 ar
    20    17    18 ar
    21    18    19 ar
    22    19    20 ar
    23    20    21 ar
    24    21    22 ar
    25    21    23 1
    26    23    24 1
    27    23    26 1
    28    24    25 1
    29    26    27 1

@<TRIPOS>MOLECULE
ZINC32101645_replica-1.pdb
 21 23 0 0 0
SMALL
GASTEIGER

@<TRIPOS>ATOM
       1  C1         -3.0900   24.8070   58.7300  C.3       1 <0>        -0.1147
       2  C2         -2.3460   26.0580   58.3410  C.ar      1 <0>        -0.0903
       3  C3         -1.0040   26.1860   58.6520  C.ar      1 <0>        -0.1077
       4  C4         -0.3170   27.3280   58.3000  C.ar      1 <0>        -0.1270
       5  C5         -0.9790   28.3590   57.6280  C.ar      1 <0>         0.0790
       6  C6         -2.3340   28.2230   57.3170  C.ar      1 <0>        -0.0843
       7  C7         -3.0070   27.0720   57.6710  C.ar      1 <0>        -0.1082
       8  C8         -3.0570   29.3280   56.5920  C.3       1 <0>        -0.1122
       9  N1         -0.3040   29.4950   57.2760  N.2       1 <0>        -0.4697
      10  C9          0.2960   29.5660   56.1200  C.2       1 <0>         0.2123
      11  C10         0.0870   28.5120   55.1180  C.ar      1 <0>        -0.1522
      12  C11         0.6480   27.2360   55.3160  C.ar      1 <0>        -0.0775
      13  C12         0.4700   26.2470   54.4070  C.ar      1 <0>        -0.1160
      14  C13        -0.2850   26.4840   53.2410  C.ar      1 <0>        -0.0222
      15  C14        -0.4800   25.4710   52.2880  C.ar      1 <0>        -0.1137
      16  C15        -1.2150   25.7280   51.1700  C.ar      1 <0>        -0.1026
      17  C16        -1.7790   26.9830   50.9550  C.ar      1 <0>        -0.1207
      18  C17        -1.6110   27.9890   51.8570  C.ar      1 <0>        -0.0921
      19  C18        -0.8590   27.7610   53.0220  C.ar      1 <0>        -0.0835
      20  C19        -0.6710   28.7790   53.9780  C.ar      1 <0>         0.1604
      21  O1         -1.2160   30.0050   53.7890  O.3       1 <0>        -0.4859
@<TRIPOS>BOND
     1     1     2 1
     2     2     7 ar
     3     2     3 ar
     4     3     4 ar
     5     4     5 ar
     6     5     6 ar
     7     5     9 1
     8     6     7 ar
     9     6     8 1
    10     9    10 2
    11    10    11 1
    12    11    20 ar
    13    11    12 ar
    14    12    13 ar
    15    13    14 ar
    16    14    19 ar
    17    14    15 ar
    18    15    16 ar
    19    16    17 ar
    20    17    18 ar
    21    18    19 ar
    22    19    20 ar
    23    20    21 1

@<TRIPOS>MOLECULE
ZINC25678381_replica-1.pdb
 24 26 0 0 0
SMALL
GASTEIGER

@<TRIPOS>ATOM
       1  C1          0.5620   31.6870   61.2770  C.3       1 <0>        -0.1308
       2  C2          0.6910   32.7100   60.1780  C.ar      1 <0>         0.0111
       3  C3          1.0270   34.0160   60.4840  C.ar      1 <0>        -0.1578
       4  C4          1.1460   34.9560   59.4780  C.ar      1 <0>        -0.0138
       5  C5          0.9300   34.5920   58.1620  C.ar      1 <0>        -0.0880
       6  C6          0.5940   33.2820   57.8520  C.ar      1 <0>         0.2078
       7  C7          0.4690   32.3420   58.8650  C.ar      1 <0>        -0.2188
       8  O1          0.3790   32.9220   56.5600  O.3       1 <0>        -0.2773
       9  C8          0.6720   31.5700   56.2050  C.3       1 <0>         0.1311
      10  C9         -0.5370   30.9470   55.5580  C.2       1 <0>         0.0756
      11  C10        -1.7390   30.9520   56.1840  C.2       1 <0>        -0.2136
      12  S1         -2.7500   30.1120   54.9730  S.3       1 <0>         0.0640
      13  C11        -1.5050   29.8350   53.7930  C.2       1 <0>         0.3404
      14  N1         -0.4510   30.3830   54.3680  N.2       1 <0>        -0.5684
      15  N2         -1.5970   29.2050   52.5610  N.pl3     1 <0>        -0.6274
      16  C12        -1.2130   27.8680   52.4300  C.ar      1 <0>         0.1642
      17  C13        -0.4150   27.2750   53.4010  C.ar      1 <0>        -0.1456
      18  C14        -0.0390   25.9520   53.2690  C.ar      1 <0>        -0.0871
      19  C15        -0.4500   25.2200   52.1700  C.ar      1 <0>        -0.1384
      20  C16        -1.2490   25.8060   51.2050  C.ar      1 <0>        -0.0816
      21  C17        -1.6290   27.1280   51.3300  C.ar      1 <0>        -0.1617
      22  N3          1.0570   35.5990   57.0850  N.pl3     1 <0>         0.0379
      23  O2          0.0590   36.1120   56.6100  O.2       1 <0>        -0.1786
      24  O3          2.1590   35.9140   56.6720  O.3       1 <0>        -0.1407
@<TRIPOS>BOND
     1     1     2 1
     2     2     7 ar
     3     2     3 ar
     4     3     4 ar
     5     4     5 ar
     6     5     6 ar
     7     5    22 1
     8     6     7 ar
     9     6     8 1
    10     8     9 1
    11     9    10 1
    12    10    14 1
    13    10    11 2
    14    11    12 1
    15    12    13 1
    16    13    14 2
    17    13    15 1
    18    15    16 1
    19    16    21 ar
    20    16    17 ar
    21    17    18 ar
    22    18    19 ar
    23    19    20 ar
    24    20    21 ar
    25    22    23 2
    26    22    24 1

@<TRIPOS>MOLECULE
ZINC32975121_replica-1.pdb
 31 35 0 0 0
SMALL
GASTEIGER

@<TRIPOS>ATOM
       1  C1          1.8120   27.6910   58.4420  C.3       1 <0>        -0.1301
       2  C2          0.3330   27.4150   58.3810  C.ar      1 <0>        -0.0360
       3  C3         -0.1260   26.2130   57.8830  C.ar      1 <0>        -0.1174
       4  C4         -1.4860   25.9560   57.8300  C.ar      1 <0>        -0.0951
       5  C5         -2.3930   26.9000   58.2790  C.ar      1 <0>        -0.1258
       6  C6         -1.9480   28.1050   58.7790  C.ar      1 <0>        -0.0963
       7  C7         -0.5780   28.3720   58.8350  C.ar      1 <0>        -0.0165
       8  C8         -0.0950   29.6600   59.3700  C.2       1 <0>        -0.1998
       9  C9          0.0840   30.8550   58.7090  C.2       1 <0>         0.3353
      10  N1         -0.1940   31.0030   57.3390  N.am      1 <0>        -0.5187
      11  C10        -0.0200   32.1660   56.6940  C.2       1 <0>         0.5646
      12  O1         -0.2690   32.2630   55.5080  O.2       1 <0>        -0.4918
      13  C11         0.4810   33.3240   57.4570  C.ar      1 <0>        -0.1553
      14  C12         0.6820   34.5610   56.8470  C.ar      1 <0>        -0.0385
      15  C13         1.1290   35.6240   57.6040  C.ar      1 <0>        -0.1218
      16  C14         1.4060   35.4590   58.9510  C.ar      1 <0>        -0.0630
      17  C15         1.2150   34.2360   59.5630  C.ar      1 <0>        -0.1554
      18  C16         0.7410   33.1630   58.8210  C.ar      1 <0>         0.1315
      19  N2          0.5470   31.9140   59.4460  N.pl3     1 <0>        -0.4129
      20  C17         0.8100   31.7190   60.7750  C.2       1 <0>         0.1886
      21  S1          1.3960   32.8520   61.9170  S.2       1 <0>        -0.3980
      22  S2          0.4110   30.0560   61.0280  S.3       1 <0>         0.2501
      23  C18        -0.6920   29.8460   56.5900  C.3       1 <0>         0.0665
      24  C19         0.2400   29.5650   55.4080  C.3       1 <0>         0.0349
      25  O2         -0.5380   29.3200   54.2350  O.3       1 <0>        -0.3060
      26  C20        -0.4580   28.0790   53.6900  C.ar      1 <0>         0.1301
      27  C21         0.2040   27.0640   54.3650  C.ar      1 <0>        -0.2074
      28  C22         0.2800   25.8000   53.8110  C.ar      1 <0>        -0.0787
      29  C23        -0.2940   25.5490   52.5790  C.ar      1 <0>        -0.1575
      30  C24        -0.9500   26.5600   51.9010  C.ar      1 <0>        -0.0802
      31  C25        -1.0330   27.8240   52.4530  C.ar      1 <0>        -0.1546
@<TRIPOS>BOND
     1     1     2 1
     2     2     7 ar
     3     2     3 ar
     4     3     4 ar
     5     4     5 ar
     6     5     6 ar
     7     6     7 ar
     8     7     8 1
     9     8    22 1
    10     8     9 2
    11     9    19 1
    12     9    10 1
    13    10    11 am
    14    10    23 1
    15    11    12 2
    16    11    13 1
    17    13    18 ar
    18    13    14 ar
    19    14    15 ar
    20    15    16 ar
    21    16    17 ar
    22    17    18 ar
    23    18    19 1
    24    19    20 1
    25    20    21 2
    26    20    22 1
    27    23    24 1
    28    24    25 1
    29    25    26 1
    30    26    31 ar
    31    26    27 ar
    32    27    28 ar
    33    28    29 ar
    34    29    30 ar
    35    30    31 ar

@<TRIPOS>MOLECULE
ZINC66588452_replica-1.pdb
 26 27 0 0 0
SMALL
GASTEIGER

@<TRIPOS>ATOM
       1  C1         14.2550   33.7980   62.4280  C.2       1 <0>        -0.1663
       2  C2         13.6170   32.8100   63.0060  C.2       1 <0>        -0.1759
       3  C3         12.1210   32.6920   62.8620  C.3       1 <0>         0.1458
       4  N1         11.5990   33.8870   62.1940  N.am      1 <0>        -0.7286
       5  C4         10.5250   33.7920   61.3850  C.2       1 <0>         0.5629
       6  O1          9.9900   32.7140   61.2090  O.2       1 <0>        -0.5289
       7  C5          9.9990   34.9980   60.7120  C.ar      1 <0>        -0.1658
       8  C6         10.2020   36.2600   61.2730  C.ar      1 <0>        -0.0504
       9  C7          9.7070   37.3800   60.6390  C.ar      1 <0>        -0.1517
      10  C8          9.0120   37.2570   59.4490  C.ar      1 <0>         0.0041
      11  C9          8.8080   36.0090   58.8870  C.ar      1 <0>        -0.6220
      12  C10         9.3010   34.8800   59.5090  C.ar      1 <0>         0.0389
      13  S1          7.9200   35.8620   57.3720  S.o2      1 <0>         2.6026
      14  O2          8.6020   36.6690   56.4220  O.2       1 <0>        -1.0223
      15  O3          7.6920   34.4750   57.1680  O.2       1 <0>        -1.0258
      16  N2          6.4360   36.5570   57.6050  N.2       1 <0>        -1.0865
      17  C11         5.2950   35.9700   57.0520  C.ar      1 <0>         0.2923
      18  C12         4.9980   36.1570   55.7080  C.ar      1 <0>        -0.2550
      19  C13         3.8700   35.5780   55.1590  C.ar      1 <0>        -0.0488
      20  C14         3.0320   34.8100   55.9460  C.ar      1 <0>        -0.2219
      21  C15         3.3230   34.6180   57.2920  C.ar      1 <0>        -0.0494
      22  C16         4.4590   35.1950   57.8440  C.ar      1 <0>        -0.1483
      23  S2          2.2550   33.6380   58.2930  S.3       1 <0>        -0.1233
      24  C17         1.0430   34.8240   58.9340  C.3       1 <0>         0.2754
      25  F1          1.0140   34.7540   60.3320  F         1 <0>        -0.1835
      26  F2          1.4030   36.1180   58.5410  F         1 <0>        -0.1838
@<TRIPOS>BOND
     1     1     2 2
     2     2     3 1
     3     3     4 1
     4     4     5 am
     5     5     6 2
     6     5     7 1
     7     7    12 ar
     8     7     8 ar
     9     8     9 ar
    10     9    10 ar
    11    10    11 ar
    12    11    12 ar
    13    11    13 1
    14    13    14 2
    15    13    15 2
    16    13    16 1
    17    16    17 1
    18    17    22 ar
    19    17    18 ar
    20    18    19 ar
    21    19    20 ar
    22    20    21 ar
    23    21    22 ar
    24    21    23 1
    25    23    24 1
    26    24    25 1
    27    24    26 1

@<TRIPOS>MOLECULE
ZINC21467671_replica-1.pdb
 27 29 0 0 0
SMALL
GASTEIGER

@<TRIPOS>ATOM
       1  C1          7.3030   38.3550   59.1520  C.3       1 <0>        -0.1418
       2  C2          7.4410   37.2360   58.1180  C.3       1 <0>        -0.0261
       3  C3          8.6230   36.3390   58.4920  C.3       1 <0>        -0.1474
       4  C4          7.6820   37.8470   56.7360  C.3       1 <0>        -0.1411
       5  C5          6.1770   36.4160   58.0920  C.ar      1 <0>        -0.1028
       6  C6          5.6350   35.9460   59.2730  C.ar      1 <0>        -0.0746
       7  C7          4.4770   35.1930   59.2520  C.ar      1 <0>        -0.1439
       8  C8          3.8570   34.9090   58.0430  C.ar      1 <0>         0.1232
       9  C9          4.4070   35.3770   56.8590  C.ar      1 <0>        -0.2059
      10  C10         5.5620   36.1350   56.8860  C.ar      1 <0>        -0.0799
      11  O1          2.7180   34.1690   58.0190  O.3       1 <0>        -0.3099
      12  C11         2.7730   32.8750   58.6220  C.3       1 <0>         0.1560
      13  C12         1.8150   31.9510   57.9150  C.2       1 <0>         0.1503
      14  N1          1.0590   31.0480   58.4720  N.2       1 <0>        -0.2429
      15  N2          0.3620   30.4420   57.5780  N.2       1 <0>        -0.2763
      16  C13         0.6460   30.9240   56.3900  C.2       1 <0>         0.1365
      17  N3          1.5790   31.9040   56.5680  N.pl3     1 <0>        -0.2023
      18  N4          2.1570   32.6780   55.6020  N.3       1 <0>        -0.7615
      19  S1         -0.0530   30.4090   54.8560  S.3       1 <0>         0.0087
      20  C14        -0.0340   28.6130   55.0890  C.3       1 <0>        -0.0597
      21  C15        -0.4570   27.9370   53.8120  C.ar      1 <0>        -0.1207
      22  C16        -1.2530   28.6100   52.9030  C.ar      1 <0>        -0.0698
      23  C17        -1.6400   27.9900   51.7310  C.ar      1 <0>        -0.1294
      24  C18        -1.2340   26.6950   51.4650  C.ar      1 <0>        -0.0794
      25  C19        -0.4390   26.0200   52.3710  C.ar      1 <0>        -0.1544
      26  C20        -0.0500   26.6410   53.5470  C.ar      1 <0>         0.1192
      27  F1          0.7320   25.9840   54.4310  F         1 <0>        -0.1307
@<TRIPOS>BOND
     1     1     2 1
     2     2     3 1
     3     2     4 1
     4     2     5 1
     5     5    10 ar
     6     5     6 ar
     7     6     7 ar
     8     7     8 ar
     9     8     9 ar
    10     8    11 1
    11     9    10 ar
    12    11    12 1
    13    12    13 1
    14    13    17 1
    15    13    14 2
    16    14    15 1
    17    15    16 2
    18    16    17 1
    19    16    19 1
    20    17    18 1
    21    19    20 1
    22    20    21 1
    23    21    26 ar
    24    21    22 ar
    25    22    23 ar
    26    23    24 ar
    27    24    25 ar
    28    25    26 ar
    29    26    27 1

@<TRIPOS>MOLECULE
ZINC55591348_replica-1.pdb
 25 26 0 0 0
SMALL
GASTEIGER

@<TRIPOS>ATOM
       1  C1         -0.6610   30.9550   63.5190  C.3       1 <0>        -0.1485
       2  C2         -0.2890   31.6110   62.1870  C.3       1 <0>        -0.1364
       3  C3          0.3240   32.9880   62.4520  C.3       1 <0>         0.1190
       4  N1          0.5550   33.6730   61.1780  N.am      1 <0>        -0.7348
       5  C4          1.7660   33.6120   60.5900  C.2       1 <0>         0.5646
       6  O1          2.6660   32.9880   61.1170  O.2       1 <0>        -0.5444
       7  C5          2.0000   34.3030   59.3040  C.ar      1 <0>        -0.1046
       8  C6          1.0060   35.1160   58.7550  C.ar      1 <0>        -0.1961
       9  C7          1.2260   35.7610   57.5550  C.ar      1 <0>        -0.0723
      10  C8          2.4280   35.6030   56.8910  C.ar      1 <0>        -0.2410
      11  C9          3.4240   34.7960   57.4280  C.ar      1 <0>         0.2735
      12  C10         3.2140   34.1490   58.6370  C.ar      1 <0>        -0.1149
      13  N2          4.6360   34.6390   56.7530  N.2       1 <0>        -1.0926
      14  S1          6.0410   35.1920   57.4330  S.o2      1 <0>         2.5905
      15  O2          5.7110   36.3790   58.1420  O.2       1 <0>        -1.0095
      16  O3          6.6540   34.0750   58.0630  O.2       1 <0>        -1.0393
      17  C11         7.1060   35.6730   56.1140  C.2       1 <0>        -0.6877
      18  C12         8.2100   36.3600   56.3710  C.2       1 <0>         0.0165
      19  C13         8.7570   36.3940   57.7440  C.ar      1 <0>        -0.0774
      20  C14         8.5870   37.5290   58.5380  C.ar      1 <0>        -0.0485
      21  C15         9.0990   37.5540   59.8190  C.ar      1 <0>        -0.1178
      22  C16         9.7820   36.4580   60.3160  C.ar      1 <0>        -0.0785
      23  C17         9.9540   35.3290   59.5340  C.ar      1 <0>        -0.1295
      24  C18         9.4400   35.2900   58.2530  C.ar      1 <0>        -0.0870
      25  C19        10.3390   36.4920   61.7160  C.3       1 <0>        -0.1112
@<TRIPOS>BOND
     1     1     2 1
     2     2     3 1
     3     3     4 1
     4     4     5 am
     5     5     6 2
     6     5     7 1
     7     7    12 ar
     8     7     8 ar
     9     8     9 ar
    10     9    10 ar
    11    10    11 ar
    12    11    12 ar
    13    11    13 1
    14    13    14 1
    15    14    15 2
    16    14    16 2
    17    14    17 1
    18    17    18 2
    19    18    19 1
    20    19    24 ar
    21    19    20 ar
    22    20    21 ar
    23    21    22 ar
    24    22    23 ar
    25    22    25 1
    26    23    24 ar

@<TRIPOS>MOLECULE
ZINC05688730_replica-1.pdb
 29 32 0 0 0
SMALL
GASTEIGER

@<TRIPOS>ATOM
       1  C1          6.5230   37.9530   59.8570  C.3       1 <0>         0.0639
       2  N1          7.2760   36.7540   59.4800  N.pl3     1 <0>        -0.4655
       3  C2          8.4880   36.3810   60.0260  C.ar      1 <0>         0.0987
       4  C3          9.3000   36.9510   61.0020  C.ar      1 <0>        -0.1216
       5  C4         10.4840   36.3420   61.3540  C.ar      1 <0>        -0.0977
       6  C5         10.8800   35.1590   60.7460  C.ar      1 <0>        -0.1337
       7  C6         10.0900   34.5780   59.7780  C.ar      1 <0>        -0.0774
       8  C7          8.8900   35.1840   59.4110  C.ar      1 <0>        -0.0669
       9  C8          7.8340   34.8450   58.4410  C.2       1 <0>        -0.2405
      10  C9          6.8770   35.8470   58.5420  C.2       1 <0>         0.1775
      11  C10         5.6290   35.9210   57.7580  C.ar      1 <0>        -0.0507
      12  C11         5.6640   36.3180   56.4190  C.ar      1 <0>        -0.0908
      13  C12         4.4940   36.3790   55.6910  C.ar      1 <0>        -0.1138
      14  C13         3.2860   36.0600   56.2870  C.ar      1 <0>        -0.1047
      15  C14         3.2430   35.6720   57.6140  C.ar      1 <0>        -0.1168
      16  C15         4.4060   35.6000   58.3530  C.ar      1 <0>        -0.1045
      17  C16         7.7980   33.6810   57.5510  C.2       1 <0>         0.4972
      18  O1          8.2430   33.7650   56.4200  O.2       1 <0>        -0.4337
      19  C17         7.2220   32.4110   58.0240  C.2       1 <0>        -0.1403
      20  C18         8.0230   31.4890   58.6660  C.2       1 <0>         0.0672
      21  C19         7.4260   30.2960   59.2690  C.ar      1 <0>        -0.1189
      22  C20         7.1180   29.1840   58.4730  C.ar      1 <0>        -0.0683
      23  C21         6.5640   28.0720   59.0420  C.ar      1 <0>        -0.1470
      24  C22         6.2970   28.0470   60.4070  C.ar      1 <0>         0.1349
      25  C23         6.5960   29.1490   61.2020  C.ar      1 <0>        -0.1508
      26  C24         7.1530   30.2640   60.6440  C.ar      1 <0>        -0.0610
      27  O2          5.7430   26.9410   60.9670  O.3       1 <0>        -0.4970
      28  C25         5.8340   32.1320   57.8190  C.1       1 <0>         0.2562
      29  N2          4.7310   31.9120   57.6550  N.1       1 <0>        -0.4047
@<TRIPOS>BOND
     1     1     2 1
     2     2    10 1
     3     2     3 1
     4     3     8 ar
     5     3     4 ar
     6     4     5 ar
     7     5     6 ar
     8     6     7 ar
     9     7     8 ar
    10     8     9 1
    11     9    10 2
    12     9    17 1
    13    10    11 1
    14    11    16 ar
    15    11    12 ar
    16    12    13 ar
    17    13    14 ar
    18    14    15 ar
    19    15    16 ar
    20    17    18 2
    21    17    19 1
    22    19    20 2
    23    19    28 1
    24    20    21 1
    25    21    26 ar
    26    21    22 ar
    27    22    23 ar
    28    23    24 ar
    29    24    25 ar
    30    24    27 1
    31    25    26 ar
    32    28    29 3

@<TRIPOS>MOLECULE
ZINC37127548_replica-1.pdb
 21 23 0 0 0
SMALL
GASTEIGER

@<TRIPOS>ATOM
       1  C1          8.5690   32.5610   60.5700  C.3       1 <0>        -0.1596
       2  C2          9.7780   32.3360   61.4800  C.3       1 <0>        -0.1339
       3  C3         10.5720   33.6380   61.6050  C.3       1 <0>         0.1936
       4  C4         11.9250   33.3470   62.2000  C.ar      1 <0>        -0.0931
       5  C5         12.1310   32.1790   62.9110  C.ar      1 <0>        -0.1130
       6  C6         13.3720   31.9130   63.4580  C.ar      1 <0>        -0.1155
       7  C7         14.4080   32.8130   63.2930  C.ar      1 <0>        -0.1178
       8  C8         14.2020   33.9800   62.5820  C.ar      1 <0>        -0.1154
       9  C9         12.9620   34.2450   62.0320  C.ar      1 <0>        -0.1087
      10  N1         10.7400   34.2370   60.2780  N.pl3     1 <0>        -0.7355
      11  C10        10.0720   35.4200   59.9560  C.ar      1 <0>         0.2425
      12  C11         9.9870   36.4470   60.8890  C.ar      1 <0>        -0.2069
      13  C12         9.3260   37.6170   60.5710  C.ar      1 <0>        -0.0482
      14  C13         8.7500   37.7730   59.3240  C.ar      1 <0>        -0.1996
      15  C14         8.8330   36.7500   58.3870  C.ar      1 <0>         0.2045
      16  C15         9.4990   35.5750   58.7020  C.ar      1 <0>        -0.1986
      17  N2          8.2470   36.9080   57.1240  N.pl3     1 <0>        -0.3225
      18  C16         8.2800   36.0100   56.1130  C.2       1 <0>         0.0550
      19  C17         7.5990   36.5400   55.0700  C.2       1 <0>        -0.2630
      20  C18         7.1360   37.8030   55.4540  C.2       1 <0>         0.0545
      21  N3          7.5200   38.0220   56.6860  N.2       1 <0>        -0.2909
@<TRIPOS>BOND
     1     1     2 1
     2     2     3 1
     3     3     4 1
     4     3    10 1
     5     4     9 ar
     6     4     5 ar
     7     5     6 ar
     8     6     7 ar
     9     7     8 ar
    10     8     9 ar
    11    10    11 1
    12    11    16 ar
    13    11    12 ar
    14    12    13 ar
    15    13    14 ar
    16    14    15 ar
    17    15    16 ar
    18    15    17 1
    19    17    21 1
    20    17    18 1
    21    18    19 2
    22    19    20 1
    23    20    21 2

@<TRIPOS>MOLECULE
ZINC13457407_replica-1.pdb
 26 27 0 0 0
SMALL
GASTEIGER

@<TRIPOS>ATOM
       1  C1          7.6860   39.1220   58.1310  C.3       1 <0>        -0.1455
       2  C2          7.8720   38.0300   59.1860  C.3       1 <0>        -0.0987
       3  C3          6.5050   37.4740   59.5930  C.3       1 <0>        -0.1423
       4  C4          8.7280   36.9020   58.6070  C.3       1 <0>         0.1948
       5  C5          9.5870   36.3140   59.6970  C.ar      1 <0>        -0.1205
       6  C6          9.8510   37.0490   60.8380  C.ar      1 <0>        -0.0739
       7  C7         10.6340   36.5100   61.8410  C.ar      1 <0>        -0.2040
       8  C8         11.1630   35.2350   61.6980  C.ar      1 <0>         0.1251
       9  C9         10.9010   34.5030   60.5500  C.ar      1 <0>        -0.1474
      10  C10        10.1140   35.0430   59.5510  C.ar      1 <0>        -0.0650
      11  O1         11.9390   34.7060   62.6810  O.3       1 <0>        -0.3185
      12  C11        12.0060   33.2810   62.7590  C.3       1 <0>         0.0270
      13  N1          7.8580   35.8610   58.0550  N.am      1 <0>        -0.7282
      14  C12         7.8180   35.6510   56.7240  C.2       1 <0>         0.5379
      15  O2          8.5020   36.3250   55.9840  O.2       1 <0>        -0.5073
      16  C13         6.9220   34.5810   56.1570  C.3       1 <0>        -0.2303
      17  S1          6.1030   33.6990   57.5080  S.3       1 <0>         0.1011
      18  C14         4.6080   34.6250   57.6170  C.ar      1 <0>        -0.0899
      19  C15         4.1410   35.3310   56.5140  C.ar      1 <0>        -0.1574
      20  C16         2.9680   36.0510   56.6000  C.ar      1 <0>        -0.1044
      21  C17         2.2500   36.0860   57.7850  C.ar      1 <0>        -0.1504
      22  C18         2.6990   35.3980   58.8920  C.ar      1 <0>        -0.0581
      23  C19         3.8830   34.6590   58.8200  C.ar      1 <0>        -0.1054
      24  C20         4.3690   33.9210   59.9980  C.2       1 <0>         0.4840
      25  O3          5.1220   34.4600   60.7850  O.co2     1 <0>        -0.5941
      26  O4          3.9780   32.6480   60.2040  O.co2     1 <0>        -0.7479
@<TRIPOS>BOND
     1     1     2 1
     2     2     3 1
     3     2     4 1
     4     4     5 1
     5     4    13 1
     6     5    10 ar
     7     5     6 ar
     8     6     7 ar
     9     7     8 ar
    10     8     9 ar
    11     8    11 1
    12     9    10 ar
    13    11    12 1
    14    13    14 am
    15    14    15 2
    16    14    16 1
    17    16    17 1
    18    17    18 1
    19    18    23 ar
    20    18    19 ar
    21    19    20 ar
    22    20    21 ar
    23    21    22 ar
    24    22    23 ar
    25    23    24 1
    26    24    25 2
    27    24    26 1

@<TRIPOS>MOLECULE
ZINC11959091_replica-1.pdb
 24 25 0 0 0
SMALL
GASTEIGER

@<TRIPOS>ATOM
       1  C1         14.4880   33.6040   62.9370  C.3       1 <0>        -0.1580
       2  C2         13.5880   34.3320   61.9370  C.3       1 <0>        -0.1160
       3  C3         12.1890   34.4950   62.5350  C.3       1 <0>        -0.0214
       4  C4         12.2580   35.4290   63.7450  C.3       1 <0>        -0.1418
       5  C5         11.6600   33.1280   62.9760  C.3       1 <0>        -0.1415
       6  C6         11.2650   35.0810   61.5000  C.ar      1 <0>        -0.1047
       7  C7         10.7270   36.3410   61.6880  C.ar      1 <0>        -0.0750
       8  C8          9.8790   36.8800   60.7400  C.ar      1 <0>        -0.1468
       9  C9          9.5680   36.1560   59.5980  C.ar      1 <0>         0.1237
      10  C10        10.1050   34.8910   59.4140  C.ar      1 <0>        -0.2069
      11  C11        10.9560   34.3580   60.3620  C.ar      1 <0>        -0.0811
      12  O1          8.7350   36.6860   58.6640  O.3       1 <0>        -0.3093
      13  C12         8.0500   37.8900   59.0140  C.3       1 <0>         0.0608
      14  C13         6.5440   37.6250   59.0610  C.3       1 <0>         0.0582
      15  O2          6.2500   36.4150   58.3610  O.3       1 <0>        -0.2992
      16  C14         4.9460   36.1640   58.0820  C.ar      1 <0>         0.1689
      17  C15         4.0240   36.0560   59.1160  C.ar      1 <0>        -0.1555
      18  C16         2.7000   35.8020   58.8370  C.ar      1 <0>        -0.0046
      19  C17         2.2830   35.6530   57.5100  C.ar      1 <0>        -0.1550
      20  C18         3.2150   35.7560   56.4730  C.ar      1 <0>        -0.0401
      21  C19         4.5370   36.0170   56.7620  C.ar      1 <0>        -0.2174
      22  C20         0.8670   35.3800   57.2060  C.2       1 <0>         0.4024
      23  S1          0.1420   33.9250   57.7430  S.2       1 <0>        -0.5588
      24  N1          0.1410   36.2770   56.5100  N.pl3     1 <0>        -0.7639
@<TRIPOS>BOND
     1     1     2 1
     2     2     3 1
     3     3     4 1
     4     3     5 1
     5     3     6 1
     6     6    11 ar
     7     6     7 ar
     8     7     8 ar
     9     8     9 ar
    10     9    10 ar
    11     9    12 1
    12    10    11 ar
    13    12    13 1
    14    13    14 1
    15    14    15 1
    16    15    16 1
    17    16    21 ar
    18    16    17 ar
    19    17    18 ar
    20    18    19 ar
    21    19    20 ar
    22    19    22 1
    23    20    21 ar
    24    22    23 2
    25    22    24 1

@<TRIPOS>MOLECULE
ZINC06644290_replica-1.pdb
 30 33 0 0 0
SMALL
GASTEIGER

@<TRIPOS>ATOM
       1  C1          7.1850   31.8460   56.6840  C.ar      1 <0>        -0.0602
       2  C2          7.9780   32.5370   57.5820  C.ar      1 <0>        -0.1384
       3  C3          7.4120   33.1070   58.7070  C.ar      1 <0>        -0.0229
       4  C4          6.0550   32.9840   58.9360  C.ar      1 <0>        -0.6566
       5  C5          5.2630   32.2880   58.0420  C.ar      1 <0>        -0.0166
       6  C6          5.8280   31.7220   56.9140  C.ar      1 <0>        -0.1400
       7  S1          5.3330   33.7100   60.3700  S.o2      1 <0>         2.5798
       8  O1          6.2300   34.7220   60.8080  O.2       1 <0>        -0.9335
       9  O2          4.9270   32.6360   61.2090  O.2       1 <0>        -0.9150
      10  C7          3.8610   34.5300   59.8560  C.2       1 <0>        -0.6698
      11  C8          3.9400   35.6950   59.1720  C.2       1 <0>         0.1996
      12  C9          5.2110   36.1100   58.5750  C.2       1 <0>        -0.2385
      13  C10         6.2290   36.7730   59.1970  C.2       1 <0>         0.1831
      14  N1          7.2420   36.9870   58.3190  N.pl3     1 <0>        -0.4520
      15  C11         6.9270   36.4590   57.0840  C.ar      1 <0>         0.0976
      16  C12         5.6480   35.8880   57.1830  C.ar      1 <0>        -0.0547
      17  C13         5.0680   35.2760   56.0750  C.ar      1 <0>        -0.0849
      18  C14         5.7560   35.2320   54.8820  C.ar      1 <0>        -0.1307
      19  C15         7.0200   35.7970   54.7820  C.ar      1 <0>        -0.1038
      20  C16         7.6050   36.4060   55.8700  C.ar      1 <0>        -0.1156
      21  C17         8.4960   37.6740   58.6390  C.3       1 <0>         0.1459
      22  C18         9.2810   36.8530   59.6300  C.ar      1 <0>        -0.1559
      23  C19         9.4230   37.2920   60.9330  C.ar      1 <0>        -0.0692
      24  C20        10.1420   36.5390   61.8420  C.ar      1 <0>        -0.1285
      25  C21        10.7200   35.3460   61.4490  C.ar      1 <0>        -0.0784
      26  C22        10.5800   34.9060   60.1460  C.ar      1 <0>        -0.1536
      27  C23         9.8560   35.6560   59.2360  C.ar      1 <0>         0.1174
      28  F1          9.7120   35.2240   57.9640  F         1 <0>        -0.1349
      29  C24         2.5820   33.9640   60.1620  C.1       1 <0>         0.2710
      30  N2          1.5670   33.5150   60.4050  N.1       1 <0>        -0.4054
@<TRIPOS>BOND
     1     1     6 ar
     2     1     2 ar
     3     2     3 ar
     4     3     4 ar
     5     4     5 ar
     6     4     7 1
     7     5     6 ar
     8     7     8 2
     9     7     9 2
    10     7    10 1
    11    10    11 2
    12    10    29 1
    13    11    12 1
    14    12    16 1
    15    12    13 2
    16    13    14 1
    17    14    15 1
    18    14    21 1
    19    15    20 ar
    20    15    16 ar
    21    16    17 ar
    22    17    18 ar
    23    18    19 ar
    24    19    20 ar
    25    21    22 1
    26    22    27 ar
    27    22    23 ar
    28    23    24 ar
    29    24    25 ar
    30    25    26 ar
    31    26    27 ar
    32    27    28 1
    33    29    30 3

@<TRIPOS>MOLECULE
ZINC32230478_replica-1.pdb
 23 24 0 0 0
SMALL
GASTEIGER

@<TRIPOS>ATOM
       1  C1          7.8430   32.9120   56.5390  C.3       1 <0>        -0.1085
       2  C2          6.3540   33.0150   56.3300  C.ar      1 <0>        -0.1493
       3  C3          5.8530   33.8270   55.3290  C.ar      1 <0>        -0.0706
       4  C4          4.4890   33.9230   55.1340  C.ar      1 <0>        -0.1934
       5  C5          3.6210   33.2020   55.9450  C.ar      1 <0>         0.2173
       6  C6          4.1270   32.3910   56.9520  C.ar      1 <0>        -0.2004
       7  C7          5.4920   32.2960   57.1380  C.ar      1 <0>        -0.0711
       8  N1          2.2400   33.2970   55.7500  N.pl3     1 <0>        -0.7517
       9  C8          1.3830   33.8020   56.8260  C.3       1 <0>         0.1396
      10  C9          1.4300   35.3310   56.8400  C.3       1 <0>         0.1145
      11  C10         2.2200   35.8060   58.0600  C.3       1 <0>         0.0284
      12  O1          3.4930   36.3000   57.6410  O.3       1 <0>        -0.3166
      13  C11         4.5780   35.8880   58.3490  C.ar      1 <0>         0.1311
      14  C12         4.4210   35.0160   59.4160  C.ar      1 <0>        -0.2128
      15  C13         5.5260   34.5990   60.1340  C.ar      1 <0>        -0.0771
      16  C14         6.7870   35.0460   59.7860  C.ar      1 <0>        -0.1571
      17  C15         6.9450   35.9190   58.7270  C.ar      1 <0>        -0.0298
      18  C16         5.8440   36.3400   58.0060  C.ar      1 <0>        -0.1471
      19  C17         8.3210   36.4100   58.3540  C.3       1 <0>        -0.0300
      20  C18         9.3680   35.3950   58.8180  C.3       1 <0>        -0.1414
      21  C19         8.5820   37.7570   59.0290  C.3       1 <0>        -0.1415
      22  C20         8.4080   36.5740   56.8350  C.3       1 <0>        -0.1469
      23  O2          0.0980   35.8470   56.9040  O.3       1 <0>        -0.5910
@<TRIPOS>BOND
     1     1     2 1
     2     2     7 ar
     3     2     3 ar
     4     3     4 ar
     5     4     5 ar
     6     5     6 ar
     7     5     8 1
     8     6     7 ar
     9     8     9 1
    10     9    10 1
    11    10    11 1
    12    10    23 1
    13    11    12 1
    14    12    13 1
    15    13    18 ar
    16    13    14 ar
    17    14    15 ar
    18    15    16 ar
    19    16    17 ar
    20    17    18 ar
    21    17    19 1
    22    19    20 1
    23    19    21 1
    24    19    22 1

@<TRIPOS>MOLECULE
ZINC13415440_replica-1.pdb
 27 29 0 0 0
SMALL
GASTEIGER

@<TRIPOS>ATOM
       1  C1         12.3070   35.1290   63.0400  C.ar      1 <0>        -0.1056
       2  C2         12.1920   34.1330   62.0870  C.ar      1 <0>        -0.1165
       3  C3         11.3870   34.3280   60.9800  C.ar      1 <0>        -0.0868
       4  C4         10.6990   35.5160   60.8240  C.ar      1 <0>        -0.1006
       5  C5         10.8160   36.5110   61.7760  C.ar      1 <0>        -0.0864
       6  C6         11.6200   36.3190   62.8840  C.ar      1 <0>        -0.1182
       7  C7          9.8280   35.7300   59.6130  C.3       1 <0>        -0.0973
       8  C8          8.8930   34.5590   59.4540  C.2       1 <0>         0.5514
       9  O1          8.1040   34.2890   60.3340  O.2       1 <0>        -0.4929
      10  N1          8.9330   33.8120   58.3320  N.am      1 <0>        -0.6626
      11  C9          8.1330   32.6680   58.2250  C.ar      1 <0>         0.1371
      12  C10         8.5590   31.4680   58.7770  C.ar      1 <0>        -0.1130
      13  C11         7.7670   30.3420   58.6750  C.ar      1 <0>        -0.1350
      14  C12         6.5530   30.4060   58.0130  C.ar      1 <0>         0.0831
      15  C13         6.1290   31.6010   57.4560  C.ar      1 <0>        -0.1328
      16  C14         6.9160   32.7300   57.5600  C.ar      1 <0>        -0.0910
      17  F1          5.7820   29.3020   57.9090  F         1 <0>        -0.1405
      18  S1          8.8640   37.2480   59.8240  S.3       1 <0>         0.1249
      19  C15         8.1550   37.3870   58.2160  C.2       1 <0>         0.0315
      20  N2          7.3630   36.5420   57.5830  N.2       1 <0>        -0.4363
      21  C16         6.9160   36.8050   56.3690  C.2       1 <0>         0.1185
      22  C17         7.2900   37.9650   55.7810  C.2       1 <0>        -0.2305
      23  S2          8.3150   38.6740   57.0620  S.3       1 <0>         0.0206
      24  C18         6.0110   35.8350   55.6560  C.3       1 <0>        -0.1010
      25  C19         4.6030   35.9890   56.1710  C.2       1 <0>         0.4684
      26  O2          3.7910   36.6110   55.5290  O.co2     1 <0>        -0.6205
      27  O3          4.2520   35.4360   57.3420  O.co2     1 <0>        -0.7750
@<TRIPOS>BOND
     1     1     6 ar
     2     1     2 ar
     3     2     3 ar
     4     3     4 ar
     5     4     5 ar
     6     4     7 1
     7     5     6 ar
     8     7     8 1
     9     7    18 1
    10     8     9 2
    11     8    10 am
    12    10    11 1
    13    11    16 ar
    14    11    12 ar
    15    12    13 ar
    16    13    14 ar
    17    14    15 ar
    18    14    17 1
    19    15    16 ar
    20    18    19 1
    21    19    23 1
    22    19    20 2
    23    20    21 1
    24    21    22 2
    25    21    24 1
    26    22    23 1
    27    24    25 1
    28    25    26 2
    29    25    27 1

@<TRIPOS>MOLECULE
ZINC13467712_replica-1.pdb
 23 26 0 0 0
SMALL
GASTEIGER

@<TRIPOS>ATOM
       1  C1          9.7810   34.1790   60.5760  C.ar      1 <0>        -0.1164
       2  C2         10.9920   34.4550   61.1760  C.ar      1 <0>        -0.1319
       3  C3         11.1960   35.6730   61.8060  C.ar      1 <0>         0.1001
       4  C4         10.1870   36.6220   61.8300  C.ar      1 <0>        -0.1377
       5  C5          8.9720   36.3580   61.2300  C.ar      1 <0>        -0.0662
       6  C6          8.7630   35.1330   60.5940  C.ar      1 <0>         0.0850
       7  N1          7.5600   34.8660   59.9960  N.2       1 <0>        -0.4517
       8  C7          7.3010   35.3410   58.8010  C.2       1 <0>         0.4155
       9  N2          6.1540   35.1790   58.0460  N.am      1 <0>        -0.5040
      10  C8          6.0190   35.7120   56.8370  C.2       1 <0>         0.5631
      11  O1          5.0170   35.5680   56.1710  O.2       1 <0>        -0.4595
      12  C9          7.1990   36.5140   56.3550  C.3       1 <0>        -0.1774
      13  S1          8.3520   36.3520   57.7620  S.3       1 <0>        -0.0822
      14  C10         7.6820   36.5270   54.9210  C.3       1 <0>        -0.1020
      15  C11         7.0880   37.7910   55.5530  C.3       1 <0>        -0.1027
      16  C12         5.0980   34.4210   58.5730  C.ar      1 <0>         0.0993
      17  C13         5.0680   33.0460   58.3820  C.ar      1 <0>        -0.0619
      18  C14         4.0270   32.3010   58.9020  C.ar      1 <0>        -0.1430
      19  C15         3.0120   32.9240   59.6080  C.ar      1 <0>         0.1189
      20  C16         3.0450   34.2950   59.8050  C.ar      1 <0>        -0.1429
      21  C17         4.0830   35.0430   59.2860  C.ar      1 <0>        -0.0624
      22  F1          1.9930   32.1950   60.1110  F         1 <0>        -0.1316
      23  F2         12.3820   35.9360   62.3960  F         1 <0>        -0.1347
@<TRIPOS>BOND
     1     1     6 ar
     2     1     2 ar
     3     2     3 ar
     4     3     4 ar
     5     3    23 1
     6     4     5 ar
     7     5     6 ar
     8     6     7 1
     9     7     8 2
    10     8    13 1
    11     8     9 1
    12     9    10 am
    13     9    16 1
    14    10    11 2
    15    10    12 1
    16    12    15 1
    17    12    13 1
    18    12    14 1
    19    14    15 1
    20    16    21 ar
    21    16    17 ar
    22    17    18 ar
    23    18    19 ar
    24    19    20 ar
    25    19    22 1
    26    20    21 ar

@<TRIPOS>MOLECULE
ZINC13421465_replica-1.pdb
 28 30 0 0 0
SMALL
GASTEIGER

@<TRIPOS>ATOM
       1  C1          6.2030   33.4090   55.4140  C.2       1 <0>        -0.1549
       2  C2          5.5520   34.4430   56.0610  C.2       1 <0>        -0.1407
       3  C3          5.8700   34.7160   57.3490  C.2       1 <0>        -0.1528
       4  S1          7.1160   33.4840   57.6910  S.3       1 <0>         0.0456
       5  C4          7.1330   32.6930   56.0900  C.2       1 <0>        -0.1730
       6  C5          5.3120   35.7790   58.2600  C.3       1 <0>         0.2805
       7  C6          3.9260   35.3870   58.7010  C.ar      1 <0>        -0.1036
       8  C7          3.7570   34.3690   59.6220  C.ar      1 <0>        -0.0778
       9  C8          2.4870   34.0120   60.0320  C.ar      1 <0>        -0.1470
      10  C9          1.3820   34.6660   59.5110  C.ar      1 <0>         0.1051
      11  C10         1.5520   35.6810   58.5850  C.ar      1 <0>        -0.1488
      12  C11         2.8240   36.0410   58.1810  C.ar      1 <0>        -0.0687
      13  F1          0.1390   34.3140   59.9070  F         1 <0>        -0.1374
      14  N1          6.1770   35.9200   59.4340  N.am      1 <0>        -0.7270
      15  C12         6.9890   36.9900   59.5490  C.2       1 <0>         0.5232
      16  O1          7.0030   37.8360   58.6800  O.2       1 <0>        -0.5026
      17  C13         7.8790   37.1340   60.7560  C.3       1 <0>         0.0438
      18  O2          9.2390   37.2560   60.3350  O.3       1 <0>        -0.2939
      19  C14        10.1430   36.4240   60.9170  C.ar      1 <0>         0.1006
      20  C15        10.4150   35.1890   60.3480  C.ar      1 <0>        -0.1411
      21  C16        11.3340   34.3450   60.9420  C.ar      1 <0>        -0.0758
      22  C17        11.9810   34.7310   62.1010  C.ar      1 <0>        -0.0597
      23  C18        11.7080   35.9600   62.6720  C.ar      1 <0>        -0.0771
      24  C19        10.7940   36.8100   62.0800  C.ar      1 <0>        -0.2046
      25  C20        12.9840   33.8090   62.7460  C.3       1 <0>        -0.1287
      26  C21        12.3620   32.4510   62.9450  C.2       1 <0>         0.4641
      27  O3         13.0250   31.4530   62.7860  O.co2     1 <0>        -0.6305
      28  O4         11.0730   32.3500   63.3070  O.co2     1 <0>        -0.7737
@<TRIPOS>BOND
     1     1     5 2
     2     1     2 1
     3     2     3 2
     4     3     4 1
     5     3     6 1
     6     4     5 1
     7     6     7 1
     8     6    14 1
     9     7    12 ar
    10     7     8 ar
    11     8     9 ar
    12     9    10 ar
    13    10    11 ar
    14    10    13 1
    15    11    12 ar
    16    14    15 am
    17    15    16 2
    18    15    17 1
    19    17    18 1
    20    18    19 1
    21    19    24 ar
    22    19    20 ar
    23    20    21 ar
    24    21    22 ar
    25    22    23 ar
    26    22    25 1
    27    23    24 ar
    28    25    26 1
    29    26    27 2
    30    26    28 1

@<TRIPOS>MOLECULE
ZINC27992128_replica-1.pdb
 34 38 0 0 0
SMALL
GASTEIGER

@<TRIPOS>ATOM
       1  C1          7.5050   36.3150   54.9460  C.3       1 <0>        -0.1185
       2  C2          6.5870   35.3040   55.5850  C.ar      1 <0>        -0.0399
       3  C3          7.0480   34.5300   56.6410  C.ar      1 <0>        -0.1445
       4  C4          6.2320   33.6050   57.2300  C.ar      1 <0>        -0.0160
       5  C5          4.9240   33.4430   56.7670  C.ar      1 <0>        -0.1506
       6  C6          3.8090   32.5760   57.1470  C.2       1 <0>        -0.0695
       7  C7          2.7860   32.8920   56.3130  C.2       1 <0>        -0.0436
       8  O1          3.1740   33.8680   55.4650  O.3       1 <0>        -0.1840
       9  C8          4.4500   34.2280   55.7000  C.ar      1 <0>         0.0844
      10  C9          5.2990   35.1640   55.1180  C.ar      1 <0>        -0.1247
      11  C10         1.4550   32.2680   56.3310  C.2       1 <0>         0.6037
      12  O2          0.5560   32.7730   56.9750  O.2       1 <0>        -0.5202
      13  N1          1.2310   31.1360   55.6340  N.am      1 <0>        -0.7214
      14  C11        -0.0940   30.5140   55.6530  C.3       1 <0>         0.1346
      15  C12         0.0260   29.0450   55.2410  C.3       1 <0>         0.0233
      16  C13        -0.5630   28.1710   56.3190  C.ar      1 <0>        -0.1063
      17  C14         0.1520   27.0890   56.7970  C.ar      1 <0>        -0.0727
      18  C15        -0.3840   26.2900   57.7900  C.ar      1 <0>        -0.2050
      19  C16        -1.6450   26.5680   58.2970  C.ar      1 <0>         0.1265
      20  C17        -2.3630   27.6510   57.8110  C.ar      1 <0>        -0.1483
      21  C18        -1.8190   28.4500   56.8230  C.ar      1 <0>        -0.0694
      22  O3         -2.1760   25.7800   59.2690  O.3       1 <0>        -0.3177
      23  C19        -2.0990   24.3670   59.0720  C.3       1 <0>         0.0236
      24  C20        -0.7200   28.8220   53.9510  C.2       1 <0>        -0.1701
      25  C21        -1.5100   29.7050   53.3230  C.2       1 <0>         0.0564
      26  N2         -2.0130   29.1490   52.1780  N.pl3     1 <0>        -0.6048
      27  C22        -1.5550   27.8590   52.0440  C.ar      1 <0>         0.1097
      28  C23        -0.7250   27.5960   53.1490  C.ar      1 <0>        -0.1001
      29  C24        -0.1120   26.3480   53.2800  C.ar      1 <0>        -0.0741
      30  C25        -0.3230   25.3860   52.3320  C.ar      1 <0>        -0.1446
      31  C26        -1.1430   25.6400   51.2400  C.ar      1 <0>        -0.0992
      32  C27        -1.7560   26.8640   51.0920  C.ar      1 <0>        -0.1306
      33  C28         3.7980   31.5420   58.2430  C.3       1 <0>        -0.1131
      34  C29         6.7410   32.7650   58.3720  C.3       1 <0>        -0.1319
@<TRIPOS>BOND
     1     1     2 1
     2     2    10 ar
     3     2     3 ar
     4     3     4 ar
     5     4     5 ar
     6     4    34 1
     7     5     9 ar
     8     5     6 1
     9     6     7 2
    10     6    33 1
    11     7     8 1
    12     7    11 1
    13     8     9 1
    14     9    10 ar
    15    11    12 2
    16    11    13 am
    17    13    14 1
    18    14    15 1
    19    15    16 1
    20    15    24 1
    21    16    21 ar
    22    16    17 ar
    23    17    18 ar
    24    18    19 ar
    25    19    20 ar
    26    19    22 1
    27    20    21 ar
    28    22    23 1
    29    24    28 1
    30    24    25 2
    31    25    26 1
    32    26    27 1
    33    27    32 ar
    34    27    28 ar
    35    28    29 ar
    36    29    30 ar
    37    30    31 ar
    38    31    32 ar

@<TRIPOS>MOLECULE
ZINC13496740_replica-1.pdb
 25 26 0 0 0
SMALL
GASTEIGER

@<TRIPOS>ATOM
      1  N1         2.1210   31.9150   55.9650 N.am    0  <0>0       -0.3140
      2  H21        2.6800   31.8680   55.1730 H       0  <0>0        0.1487
      3  C9         2.5930   32.6340   57.1510 C.3     0  <0>0        0.0932
      4  C10        3.4480   31.6980   58.0080 C.3     0  <0>0        0.0261
      5  C6         3.4190   33.8200   56.7250 C.ar    0  <0>0       -0.0043
      6  C5         3.6730   34.0370   55.3830 C.ar    0  <0>0        0.0004
      7  C4         4.4290   35.1240   54.9890 C.ar    0  <0>0        0.0366
      8  C3         4.9360   35.9970   55.9410 C.ar    0  <0>0        0.1385
      9  C8         4.6850   35.7730   57.2870 C.ar    0  <0>0        0.0366
     10  C7         3.9230   34.6890   57.6760 C.ar    0  <0>0        0.0004
     11  O1         5.6820   37.0660   55.5570 O.3     0  <0>0       -0.4755
     12  C2         7.0870   37.0020   55.8120 C.3     0  <0>0        0.2055
     13  C1         7.5260   38.2610   56.5630 C.3     0  <0>0        0.0512
     14  C11        0.8960   31.3120   55.9730 C.2     0  <0>0        0.1318
     15  S1        -0.3300   31.9360   56.9030 S.2     0  <0>0       -0.0188
     16  N2         0.6790   30.1950   55.2180 N.am    0  <0>0       -0.3124
     17  H14        1.3810   29.5320   55.1190 H       0  <0>0        0.1487
     18  C12       -0.6140   29.9970   54.5580 C.3     0  <0>0        0.1156
     19  C13       -0.6010   28.6880   53.8110 C.ar    0  <0>0       -0.0025
     20  C18       -1.3040   28.5610   52.6260 C.ar    0  <0>0       -0.0018
     21  C17       -1.2880   27.3630   51.9380 C.ar    0  <0>0        0.0111
     22  C16       -0.5790   26.2860   52.4400 C.ar    0  <0>0        0.0577
     23  C15        0.1190   26.4120   53.6290 C.ar    0  <0>0        0.0111
     24 Cl         -0.5640   24.7790   51.5800 Cl      0  <0>0       -0.0822
     25  C14        0.1070   27.6120   54.3130 C.ar    0  <0>0       -0.0018
@<TRIPOS>BOND
     1    24    22    1
     2    21    22   ar
     3    21    20   ar
     4    22    23   ar
     5    20    19   ar
     6    23    25   ar
     7    19    25   ar
     8    19    18    1
     9    18    16    1
    10     7     6   ar
    11     7     8   ar
    12    17    16    1
    13     2     1    1
    14    16    14    1
    15     6     5   ar
    16    11    12    1
    17    11     8    1
    18    12    13    1
    19     8     9   ar
    20     1    14    1
    21     1     3    1
    22    14    15    2
    23     5     3    1
    24     5    10   ar
    25     3     4    1
    26     9    10   ar


@<TRIPOS>MOLECULE
ZINC41510005_replica-1.pdb
 30 34 0 0 0
SMALL
GASTEIGER

@<TRIPOS>ATOM
       1  C1          5.8070   34.0690   60.3510  C.3       1 <0>         0.0700
       2  N1          4.3730   33.7720   60.3010  N.pl3     1 <0>        -0.4709
       3  C2          3.7720   32.7500   60.9590  C.2       1 <0>         0.1223
       4  C3          2.4200   32.7610   60.6910  C.2       1 <0>        -0.1921
       5  C4          2.1890   33.9030   59.7830  C.ar      1 <0>        -0.0774
       6  C5          3.4450   34.4970   59.5820  C.ar      1 <0>         0.0837
       7  C6          3.5440   35.6170   58.7620  C.ar      1 <0>        -0.1204
       8  C7          2.4160   36.1330   58.1610  C.ar      1 <0>        -0.1010
       9  C8          1.1760   35.5460   58.3660  C.ar      1 <0>        -0.1332
      10  C9          1.0580   34.4310   59.1670  C.ar      1 <0>        -0.0778
      11  C10         1.4170   31.8300   61.2020  C.2       1 <0>         0.0660
      12  C11         0.7380   31.0200   60.3420  C.2       1 <0>        -0.0916
      13  C12        -0.2610   30.0780   60.7030  C.2       1 <0>         0.4173
      14  O1         -0.6780   29.8330   61.8230  O.2       1 <0>        -0.4398
      15  C13        -0.6860   29.4610   59.4350  C.ar      1 <0>        -0.3003
      16  C14        -1.6210   28.4780   59.1100  C.ar      1 <0>         0.0320
      17  C15        -1.7930   28.1070   57.8070  C.ar      1 <0>        -0.2473
      18  C16        -1.0390   28.7060   56.8010  C.ar      1 <0>         0.2014
      19  C17        -0.1070   29.6830   57.1090  C.ar      1 <0>        -0.1783
      20  C18         0.0800   30.0720   58.4280  C.ar      1 <0>         0.1798
      21  O2          0.8980   30.9840   58.9970  O.3       1 <0>        -0.2149
      22  O3         -1.2190   28.3280   55.5100  O.3       1 <0>        -0.2988
      23  C19        -0.0430   28.0690   54.7410  C.3       1 <0>         0.0994
      24  C20        -0.4110   27.2740   53.5140  C.ar      1 <0>        -0.0718
      25  C21        -0.0290   25.9490   53.4080  C.ar      1 <0>        -0.1039
      26  C22        -0.3650   25.2190   52.2840  C.ar      1 <0>        -0.0920
      27  C23        -1.0840   25.8130   51.2640  C.ar      1 <0>        -0.1410
      28  C24        -1.4670   27.1390   51.3680  C.ar      1 <0>         0.0971
      29  C25        -1.1340   27.8680   52.4970  C.ar      1 <0>        -0.1288
      30  F1         -2.1690   27.7210   50.3710  F         1 <0>        -0.1361
@<TRIPOS>BOND
     1     1     2 1
     2     2     6 1
     3     2     3 1
     4     3     4 2
     5     4     5 1
     6     4    11 1
     7     5    10 ar
     8     5     6 ar
     9     6     7 ar
    10     7     8 ar
    11     8     9 ar
    12     9    10 ar
    13    11    12 2
    14    12    21 1
    15    12    13 1
    16    13    14 2
    17    13    15 1
    18    15    20 ar
    19    15    16 ar
    20    16    17 ar
    21    17    18 ar
    22    18    19 ar
    23    18    22 1
    24    19    20 ar
    25    20    21 1
    26    22    23 1
    27    23    24 1
    28    24    29 ar
    29    24    25 ar
    30    25    26 ar
    31    26    27 ar
    32    27    28 ar
    33    28    29 ar
    34    28    30 1

@<TRIPOS>MOLECULE
ZINC17841686_replica-1.pdb
 28 30 0 0 0
SMALL
GASTEIGER

@<TRIPOS>ATOM
       1  C1          7.7890   37.0130   56.0520  C.3       1 <0>        -0.1461
       2  C2          8.5860   37.7320   57.1410  C.3       1 <0>        -0.1261
       3  C3          7.9570   37.4470   58.5060  C.3       1 <0>         0.1864
       4  C4          8.9520   36.7210   59.3750  C.ar      1 <0>        -0.0947
       5  C5          9.4630   35.5020   58.9700  C.ar      1 <0>        -0.1088
       6  C6         10.3750   34.8350   59.7670  C.ar      1 <0>        -0.1165
       7  C7         10.7760   35.3880   60.9690  C.ar      1 <0>        -0.0874
       8  C8         10.2660   36.6080   61.3730  C.ar      1 <0>        -0.1172
       9  C9          9.3570   37.2750   60.5750  C.ar      1 <0>        -0.1026
      10  C10        11.7700   34.6620   61.8380  C.3       1 <0>        -0.1153
      11  N1          6.7640   36.6150   58.3300  N.am      1 <0>        -0.7259
      12  C11         5.7210   36.7460   59.1740  C.2       1 <0>         0.5282
      13  O1          5.7720   37.5520   60.0800  O.2       1 <0>        -0.5299
      14  C12         4.4940   35.8910   58.9940  C.3       1 <0>        -0.1601
      15  C13         4.1520   35.7960   57.5060  C.3       1 <0>         0.1355
      16  N2          3.5300   34.4990   57.2300  N.pl3     1 <0>        -0.4866
      17  C14         4.1600   33.2800   57.1240  C.2       1 <0>         0.1434
      18  N3          3.2320   32.3870   56.8710  N.2       1 <0>        -0.2739
      19  N4          2.0810   32.9550   56.8120  N.2       1 <0>        -0.3402
      20  C15         2.2030   34.2450   57.0290  C.2       1 <0>         0.3774
      21  S1          0.8980   35.4290   57.0530  S.3       1 <0>        -0.8010
      22  C16         5.6090   33.0260   57.2670  C.ar      1 <0>         0.0266
      23  C17         6.4660   33.2250   56.1830  C.ar      1 <0>        -0.1358
      24  C18         7.8180   32.9860   56.3240  C.ar      1 <0>        -0.1103
      25  C19         8.3240   32.5510   57.5350  C.ar      1 <0>        -0.1271
      26  C20         7.4800   32.3520   58.6130  C.ar      1 <0>        -0.0849
      27  C21         6.1270   32.5920   58.4880  C.ar      1 <0>        -0.0904
      28  C22         8.0410   31.8770   59.9290  C.3       1 <0>        -0.1118
@<TRIPOS>BOND
     1     1     2 1
     2     2     3 1
     3     3     4 1
     4     3    11 1
     5     4     9 ar
     6     4     5 ar
     7     5     6 ar
     8     6     7 ar
     9     7     8 ar
    10     7    10 1
    11     8     9 ar
    12    11    12 am
    13    12    13 2
    14    12    14 1
    15    14    15 1
    16    15    16 1
    17    16    20 1
    18    16    17 1
    19    17    22 1
    20    17    18 2
    21    18    19 1
    22    19    20 2
    23    20    21 1
    24    22    27 ar
    25    22    23 ar
    26    23    24 ar
    27    24    25 ar
    28    25    26 ar
    29    26    27 ar
    30    26    28 1

@<TRIPOS>MOLECULE
ZINC01195455_replica-1.pdb
 31 36 0 0 0
SMALL
GASTEIGER

@<TRIPOS>ATOM
       1  C1          1.4570   33.8320   60.3940  C.3       1 <0>        -0.1482
       2  C2          2.9080   34.2290   60.1150  C.3       1 <0>        -0.0873
       3  C3          2.9980   34.8890   58.7640  C.ar      1 <0>        -0.0608
       4  C4          1.8750   34.9840   57.9650  C.ar      1 <0>        -0.1110
       5  C5          1.9570   35.5900   56.7250  C.ar      1 <0>        -0.1004
       6  C6          3.1620   36.1030   56.2810  C.ar      1 <0>        -0.1150
       7  C7          4.2880   36.0110   57.0760  C.ar      1 <0>        -0.0916
       8  C8          4.2080   35.4080   58.3240  C.ar      1 <0>         0.1084
       9  N1          5.3480   35.3190   59.1350  N.am      1 <0>        -0.5202
      10  C9          5.7550   36.3200   59.9250  C.2       1 <0>         0.5374
      11  O1          5.2070   37.3960   60.0360  O.2       1 <0>        -0.4580
      12  C10         7.0080   35.8950   60.6590  C.3       1 <0>        -0.1100
      13  C11         7.2580   34.4640   60.1510  C.3       1 <0>        -0.1085
      14  C12         6.1160   34.2240   59.1880  C.2       1 <0>         0.5369
      15  O2          5.9280   33.2030   58.5610  O.2       1 <0>        -0.4611
      16  C13         8.5980   34.3710   59.3910  C.3       1 <0>         0.0466
      17  C14         8.5180   35.4240   58.2980  C.ar      1 <0>        -0.0793
      18  C15         8.6470   35.1720   56.9610  C.ar      1 <0>        -0.0833
      19  C16         8.5520   36.2320   56.0680  C.ar      1 <0>        -0.1185
      20  C17         8.3300   37.5170   56.5270  C.ar      1 <0>        -0.1162
      21  C18         8.2000   37.7660   57.8880  C.ar      1 <0>        -0.0999
      22  C19         8.2940   36.7190   58.7600  C.ar      1 <0>        -0.0966
      23  C20         8.1580   36.8470   60.2690  C.3       1 <0>         0.0148
      24  C21         9.4230   36.1980   60.8090  C.ar      1 <0>        -0.0835
      25  C22         9.6500   34.8850   60.3610  C.ar      1 <0>        -0.0717
      26  C23        10.7410   34.1760   60.7750  C.ar      1 <0>        -0.0846
      27  C24        11.6250   34.7680   61.6690  C.ar      1 <0>        -0.1185
      28  C25        11.4000   36.0530   62.1270  C.ar      1 <0>        -0.1167
      29  C26        10.2890   36.7890   61.6850  C.ar      1 <0>        -0.1016
      30  C27         8.8960   32.9630   58.8730  C.3       1 <0>         0.0896
      31  O3          8.4040   31.9980   59.8070  O.3       1 <0>        -0.5596
@<TRIPOS>BOND
     1     1     2 1
     2     2     3 1
     3     3     8 ar
     4     3     4 ar
     5     4     5 ar
     6     5     6 ar
     7     6     7 ar
     8     7     8 ar
     9     8     9 1
    10     9    14 am
    11     9    10 am
    12    10    11 2
    13    10    12 1
    14    12    23 1
    15    12    13 1
    16    13    14 1
    17    13    16 1
    18    14    15 2
    19    16    25 1
    20    16    17 1
    21    16    30 1
    22    17    22 ar
    23    17    18 ar
    24    18    19 ar
    25    19    20 ar
    26    20    21 ar
    27    21    22 ar
    28    22    23 1
    29    23    24 1
    30    24    29 ar
    31    24    25 ar
    32    25    26 ar
    33    26    27 ar
    34    27    28 ar
    35    28    29 ar
    36    30    31 1

@<TRIPOS>MOLECULE
ZINC00239322_replica-1.pdb
 25 26 0 0 0
SMALL
GASTEIGER

@<TRIPOS>ATOM
       1  C1         -2.9960   30.2100   52.5560  C.3       1 <0>        -0.1181
       2  C2         -2.0750   29.0170   52.5660  C.ar      1 <0>        -0.0915
       3  C3         -1.9500   28.2310   51.4370  C.ar      1 <0>        -0.1160
       4  C4         -1.1090   27.1330   51.4460  C.ar      1 <0>        -0.1104
       5  C5         -0.3880   26.8210   52.5830  C.ar      1 <0>        -0.1160
       6  C6         -0.5060   27.6080   53.7140  C.ar      1 <0>        -0.0920
       7  C7         -1.3480   28.7100   53.7060  C.ar      1 <0>         0.0826
       8  O1         -1.4660   29.4850   54.8180  O.3       1 <0>        -0.3020
       9  C8         -1.3130   30.8950   54.6440  C.3       1 <0>         0.0541
      10  C9         -0.0790   31.3590   55.3730  C.2       1 <0>         0.5315
      11  O2          0.8280   30.5820   55.5880  O.2       1 <0>        -0.4744
      12  N1          0.0190   32.6380   55.7870  N.am      1 <0>        -0.5846
      13  N2          1.1650   33.0700   56.4660  N.2       1 <0>        -0.2273
      14  C10         1.3380   34.3320   56.7110  C.2       1 <0>         0.1155
      15  C11         2.5460   34.7870   57.4240  C.ar      1 <0>        -0.0659
      16  C12         2.7010   34.5140   58.7860  C.ar      1 <0>        -0.0734
      17  C13         3.8350   34.9380   59.4460  C.ar      1 <0>        -0.1267
      18  C14         4.8130   35.6410   58.7650  C.ar      1 <0>        -0.0501
      19  C15         4.6640   35.9200   57.4180  C.ar      1 <0>        -0.1214
      20  C16         3.5370   35.4980   56.7450  C.ar      1 <0>        -0.0853
      21  C17         6.0470   36.1060   59.4950  C.3       1 <0>        -0.0337
      22  C18         6.4180   35.0840   60.5720  C.3       1 <0>        -0.1395
      23  C19         7.2050   36.2440   58.5040  C.3       1 <0>        -0.1471
      24  C20         5.7730   37.4610   60.1490  C.3       1 <0>        -0.1395
      25  C21         0.2800   27.2680   54.9540  C.3       1 <0>        -0.1129
@<TRIPOS>BOND
     1     1     2 1
     2     2     7 ar
     3     2     3 ar
     4     3     4 ar
     5     4     5 ar
     6     5     6 ar
     7     6     7 ar
     8     6    25 1
     9     7     8 1
    10     8     9 1
    11     9    10 1
    12    10    11 2
    13    10    12 am
    14    12    13 1
    15    13    14 2
    16    14    15 1
    17    15    20 ar
    18    15    16 ar
    19    16    17 ar
    20    17    18 ar
    21    18    19 ar
    22    18    21 1
    23    19    20 ar
    24    21    22 1
    25    21    23 1
    26    21    24 1

@<TRIPOS>MOLECULE
ZINC06525403_replica-1.pdb
 27 29 0 0 0
SMALL
GASTEIGER

@<TRIPOS>ATOM
       1  C1          0.5130   25.6580   54.4540  C.3       1 <0>        -0.1285
       2  C2         -0.2440   26.1950   53.2670  C.ar      1 <0>        -0.0142
       3  C3         -0.4750   25.3880   52.1720  C.ar      1 <0>        -0.1303
       4  C4         -1.1700   25.8800   51.0810  C.ar      1 <0>        -0.0838
       5  C5         -1.6380   27.1820   51.0810  C.ar      1 <0>        -0.1332
       6  C6         -1.4140   27.9990   52.1680  C.ar      1 <0>        -0.0831
       7  C7         -0.7180   27.5080   53.2750  C.ar      1 <0>        -0.1444
       8  C8         -0.4800   28.3750   54.4480  C.2       1 <0>         0.5597
       9  O1          0.6470   28.7440   54.7130  O.2       1 <0>        -0.4928
      10  N1         -1.5150   28.7580   55.2230  N.am      1 <0>        -0.6589
      11  C9         -1.3080   29.6690   56.2630  C.2       1 <0>         0.0739
      12  C10        -1.3180   29.2440   57.5490  C.2       1 <0>        -0.0267
      13  C11        -1.3140   27.8030   57.8450  C.ar      1 <0>        -0.0817
      14  C12        -0.1080   27.0950   57.8800  C.ar      1 <0>        -0.1227
      15  C13        -0.1130   25.7450   58.1580  C.ar      1 <0>        -0.1225
      16  C14        -1.3070   25.0900   58.4040  C.ar      1 <0>        -0.1024
      17  C15        -2.5050   25.7830   58.3720  C.ar      1 <0>        -0.1231
      18  C16        -2.5150   27.1350   58.1010  C.ar      1 <0>        -0.0893
      19  C17        -1.0810   31.0890   55.9630  C.2       1 <0>         0.5063
      20  O2         -1.0320   31.4650   54.8070  O.2       1 <0>        -0.4811
      21  O3         -0.9260   31.9750   56.9670  O.3       1 <0>        -0.3454
      22  C18         0.2860   32.7320   56.9830  C.3       1 <0>         0.1543
      23  C19         0.5310   33.2580   58.3740  C.2       1 <0>        -0.0308
      24  C20         0.7410   32.5090   59.4730  C.2       1 <0>        -0.1714
      25  C21         0.9240   33.4060   60.5500  C.2       1 <0>        -0.2185
      26  C22         0.8140   34.6480   60.0470  C.2       1 <0>        -0.0223
      27  O4          0.5820   34.5520   58.7270  O.3       1 <0>        -0.1706
@<TRIPOS>BOND
     1     1     2 1
     2     2     7 ar
     3     2     3 ar
     4     3     4 ar
     5     4     5 ar
     6     5     6 ar
     7     6     7 ar
     8     7     8 1
     9     8     9 2
    10     8    10 am
    11    10    11 1
    12    11    12 2
    13    11    19 1
    14    12    13 1
    15    13    18 ar
    16    13    14 ar
    17    14    15 ar
    18    15    16 ar
    19    16    17 ar
    20    17    18 ar
    21    19    20 2
    22    19    21 1
    23    21    22 1
    24    22    23 1
    25    23    27 1
    26    23    24 2
    27    24    25 1
    28    25    26 2
    29    26    27 1

@<TRIPOS>MOLECULE
ZINC25496215_replica-1.pdb
 27 28 0 0 0
SMALL
GASTEIGER

@<TRIPOS>ATOM
       1  C1          5.7730   34.4790   59.8460  C.3       1 <0>        -0.1763
       2  C2          5.7400   33.9960   58.3950  C.3       1 <0>         0.0727
       3  N1          4.9510   34.9300   57.5870  N.am      1 <0>        -0.5441
       4  C3          3.5540   34.9070   57.6530  C.ar      1 <0>         0.1483
       5  C4          2.8390   33.9760   56.9110  C.ar      1 <0>        -0.1597
       6  C5          1.4600   33.9510   56.9820  C.ar      1 <0>        -0.0972
       7  C6          0.7910   34.8590   57.7830  C.ar      1 <0>        -0.1439
       8  C7          1.5000   35.7910   58.5180  C.ar      1 <0>        -0.0977
       9  C8          2.8790   35.8160   58.4560  C.ar      1 <0>        -0.1678
      10  C9          5.5730   35.8140   56.7800  C.2       1 <0>         0.5156
      11  O1          4.9240   36.6290   56.1600  O.2       1 <0>        -0.5071
      12  C10         7.0740   35.7880   56.6490  C.3       1 <0>         0.1399
      13  C11         7.4640   36.0690   55.1960  C.3       1 <0>        -0.1768
      14  N2          7.6580   36.8110   57.5190  N.pl3     1 <0>        -0.7460
      15  C12         8.5710   36.4450   58.5140  C.ar      1 <0>         0.2129
      16  C13         8.7380   37.2490   59.6340  C.ar      1 <0>        -0.1892
      17  C14         9.6340   36.8830   60.6190  C.ar      1 <0>        -0.0949
      18  C15        10.3780   35.7190   60.4830  C.ar      1 <0>         0.0870
      19  C16        10.2160   34.9190   59.3600  C.ar      1 <0>        -0.0704
      20  C17         9.3150   35.2800   58.3780  C.ar      1 <0>        -0.1743
      21  N3         11.2930   35.3520   61.4790  N.am      1 <0>        -0.6849
      22  C18        11.2680   34.1040   61.9890  C.2       1 <0>         0.5120
      23  O2         10.5120   33.2750   61.5290  O.2       1 <0>        -0.5236
      24  C19        12.1840   33.7370   63.1280  C.3       1 <0>        -0.1370
      25  C20        13.2620   32.7740   62.6270  C.3       1 <0>        -0.0810
      26  C21        14.6430   33.3120   63.0080  C.3       1 <0>        -0.1505
      27  C22        13.0550   31.4000   63.2690  C.3       1 <0>        -0.1563
@<TRIPOS>BOND
     1     1     2 1
     2     2     3 1
     3     3     4 1
     4     3    10 am
     5     4     9 ar
     6     4     5 ar
     7     5     6 ar
     8     6     7 ar
     9     7     8 ar
    10     8     9 ar
    11    10    11 2
    12    10    12 1
    13    12    13 1
    14    12    14 1
    15    14    15 1
    16    15    20 ar
    17    15    16 ar
    18    16    17 ar
    19    17    18 ar
    20    18    19 ar
    21    18    21 1
    22    19    20 ar
    23    21    22 am
    24    22    23 2
    25    22    24 1
    26    24    25 1
    27    25    26 1
    28    25    27 1

@<TRIPOS>MOLECULE
ZINC66824503_replica-1.pdb
 25 26 0 0 0
SMALL
GASTEIGER

@<TRIPOS>ATOM
       1  C1         14.3300   33.7540   62.6190  C.3       1 <0>        -0.1484
       2  C2         13.0460   33.0830   63.1110  C.3       1 <0>        -0.0908
       3  C3         13.1290   31.5760   62.8570  C.3       1 <0>        -0.0678
       4  S1         13.0810   30.6920   64.4410  S.3       1 <0>        -0.2621
       5  C4         11.9910   29.2790   64.1220  C.3       1 <0>        -0.1202
       6  C5         11.8660   33.6530   62.3700  C.2       1 <0>         0.5201
       7  O1         10.8710   32.9790   62.2030  O.2       1 <0>        -0.5118
       8  N1         11.9130   34.9130   61.8930  N.am      1 <0>        -0.6703
       9  C6         10.8570   35.4090   61.1220  C.ar      1 <0>         0.1740
      10  C7         10.1720   36.5470   61.5280  C.ar      1 <0>        -0.1677
      11  C8          9.1300   37.0340   60.7640  C.ar      1 <0>        -0.0053
      12  C9          8.7670   36.3900   59.5950  C.ar      1 <0>        -0.6262
      13  C10         9.4470   35.2570   59.1870  C.ar      1 <0>        -0.0056
      14  C11        10.4940   34.7680   59.9450  C.ar      1 <0>        -0.1445
      15  S2          7.4370   37.0160   58.6240  S.o2      1 <0>         2.6065
      16  O2          6.5660   37.6940   59.5180  O.2       1 <0>        -1.0278
      17  O3          8.0220   37.6550   57.4970  O.2       1 <0>        -1.0285
      18  N2          6.5980   35.7110   58.0440  N.2       1 <0>        -1.0866
      19  C12         5.2810   35.8660   57.6060  C.ar      1 <0>         0.3023
      20  C13         5.0170   36.1040   56.2630  C.ar      1 <0>        -0.2729
      21  C14         3.7130   36.2570   55.8340  C.ar      1 <0>        -0.0408
      22  C15         2.6710   36.1740   56.7370  C.ar      1 <0>        -0.2607
      23  C16         2.9290   35.9380   58.0770  C.ar      1 <0>         0.1302
      24  C17         4.2320   35.7770   58.5130  C.ar      1 <0>        -0.2187
      25  F1          1.9080   35.8570   58.9580  F         1 <0>        -0.1567
@<TRIPOS>BOND
     1     1     2 1
     2     2     3 1
     3     2     6 1
     4     3     4 1
     5     4     5 1
     6     6     7 2
     7     6     8 am
     8     8     9 1
     9     9    14 ar
    10     9    10 ar
    11    10    11 ar
    12    11    12 ar
    13    12    13 ar
    14    12    15 1
    15    13    14 ar
    16    15    16 2
    17    15    17 2
    18    15    18 1
    19    18    19 1
    20    19    24 ar
    21    19    20 ar
    22    20    21 ar
    23    21    22 ar
    24    22    23 ar
    25    23    24 ar
    26    23    25 1

@<TRIPOS>MOLECULE
ZINC01019521_replica-1.pdb
 22 24 0 0 0
SMALL
GASTEIGER

@<TRIPOS>ATOM
       1  C1          8.2420   38.2090   56.4200  C.ar      1 <0>        -0.1159
       2  C2          8.4640   38.8920   57.6010  C.ar      1 <0>        -0.1165
       3  C3          8.6710   38.1930   58.7750  C.ar      1 <0>        -0.0995
       4  C4          8.6560   36.8100   58.7680  C.ar      1 <0>        -0.1054
       5  C5          8.4400   36.1270   57.5860  C.ar      1 <0>        -0.1099
       6  C6          8.2280   36.8270   56.4120  C.ar      1 <0>        -0.1191
       7  C7          8.8820   36.0480   60.0480  C.3       1 <0>         0.1677
       8  C8          7.6490   36.1780   60.9450  C.3       1 <0>         0.1474
       9  C9          6.4340   35.6840   60.2010  C.ar      1 <0>        -0.1196
      10  C10         5.4810   36.5820   59.7590  C.ar      1 <0>        -0.0964
      11  C11         4.3700   36.1290   59.0740  C.ar      1 <0>        -0.1168
      12  C12         4.2060   34.7760   58.8400  C.ar      1 <0>        -0.1139
      13  C13         5.1570   33.8780   59.2860  C.ar      1 <0>        -0.1189
      14  C14         6.2700   34.3310   59.9670  C.ar      1 <0>        -0.1064
      15  O1          7.4620   37.5480   61.3030  O.3       1 <0>        -0.5501
      16  N1         10.0490   36.5960   60.7430  N.pl3     1 <0>        -0.7360
      17  C15        10.8470   35.7650   61.5330  C.ar      1 <0>         0.2179
      18  C16        11.5820   36.2990   62.5830  C.ar      1 <0>        -0.1944
      19  C17        12.3730   35.4760   63.3590  C.ar      1 <0>        -0.0737
      20  C18        12.4250   34.1180   63.0990  C.ar      1 <0>        -0.1784
      21  C19        11.6890   33.5820   62.0580  C.ar      1 <0>        -0.0732
      22  C20        10.9010   34.4010   61.2740  C.ar      1 <0>        -0.1939
@<TRIPOS>BOND
     1     1     6 ar
     2     1     2 ar
     3     2     3 ar
     4     3     4 ar
     5     4     5 ar
     6     4     7 1
     7     5     6 ar
     8     7     8 1
     9     7    16 1
    10     8     9 1
    11     8    15 1
    12     9    14 ar
    13     9    10 ar
    14    10    11 ar
    15    11    12 ar
    16    12    13 ar
    17    13    14 ar
    18    16    17 1
    19    17    22 ar
    20    17    18 ar
    21    18    19 ar
    22    19    20 ar
    23    20    21 ar
    24    21    22 ar

@<TRIPOS>MOLECULE
ZINC17194747_replica-1.pdb
 27 28 0 0 0
SMALL
GASTEIGER

@<TRIPOS>ATOM
       1  C1          8.4120   31.6360   58.3410  C.3       1 <0>        -0.0530
       2  C2          7.6120   32.3430   60.5140  C.3       1 <0>        -0.0434
       3  C3          6.2150   32.6300   58.5590  C.3       1 <0>        -0.0044
       4  C4          6.4220   34.0710   59.0280  C.3       1 <0>        -0.1448
       5  C5          6.3380   35.0020   57.8460  C.2       1 <0>         0.1108
       6  N1          5.4000   35.9050   57.7930  N.2       1 <0>        -0.1774
       7  N2          4.4350   35.9730   58.8060  N.pl3     1 <0>        -0.5753
       8  C6          3.1750   35.3990   58.6120  C.ar      1 <0>         0.1894
       9  C7          2.7020   34.4410   59.5040  C.ar      1 <0>         0.0892
      10  C8          1.4570   33.8690   59.3070  C.ar      1 <0>         0.0947
      11  C9          0.6790   34.2540   58.2260  C.ar      1 <0>         0.0606
      12  C10         1.1460   35.2130   57.3400  C.ar      1 <0>         0.0981
      13  C11         2.3910   35.7880   57.5330  C.ar      1 <0>         0.0517
      14  F1          2.8450   36.7230   56.6680  F         1 <0>        -0.1130
      15  F2          0.3850   35.5870   56.2880  F         1 <0>        -0.0940
      16  F3         -0.5360   33.6950   58.0360  F         1 <0>        -0.0939
      17  F4          0.9990   32.9340   60.1680  F         1 <0>        -0.0919
      18  F5          3.4600   34.0650   60.5580  F         1 <0>        -0.0780
      19  C12         7.2790   34.8950   56.7920  C.2       1 <0>        -0.1538
      20  C13         8.5860   35.1290   57.0270  C.2       1 <0>        -0.0184
      21  C14         9.0020   35.7860   58.2770  C.ar      1 <0>        -0.0586
      22  C15         8.6110   37.1020   58.5440  C.ar      1 <0>        -0.0834
      23  C16         9.0010   37.7090   59.7190  C.ar      1 <0>        -0.1238
      24  C17         9.7850   37.0220   60.6300  C.ar      1 <0>        -0.1157
      25  C18        10.1810   35.7210   60.3700  C.ar      1 <0>        -0.1083
      26  C19         9.7960   35.0990   59.2020  C.ar      1 <0>        -0.0855
      27  N3          7.2230   31.7680   59.2090  N.4       1 <0>        -0.3967
@<TRIPOS>BOND
     1     1    27 1
     2     2    27 1
     3     3     4 1
     4     3    27 1
     5     4     5 1
     6     5     6 2
     7     5    19 1
     8     6     7 1
     9     7     8 1
    10     8    13 ar
    11     8     9 ar
    12     9    10 ar
    13     9    18 1
    14    10    11 ar
    15    10    17 1
    16    11    12 ar
    17    11    16 1
    18    12    13 ar
    19    12    15 1
    20    13    14 1
    21    19    20 2
    22    20    21 1
    23    21    26 ar
    24    21    22 ar
    25    22    23 ar
    26    23    24 ar
    27    24    25 ar
    28    25    26 ar

@<TRIPOS>MOLECULE
ZINC00239331_replica-1.pdb
 25 26 0 0 0
SMALL
GASTEIGER

@<TRIPOS>ATOM
       1  C1         -0.5470   25.2560   51.8450  C.3       1 <0>        -0.1145
       2  C2         -0.3670   26.3240   52.8940  C.ar      1 <0>        -0.1221
       3  C3          0.3320   26.0430   54.0530  C.ar      1 <0>        -0.0761
       4  C4          0.4940   27.0180   55.0170  C.ar      1 <0>        -0.2123
       5  C5         -0.0360   28.2840   54.8170  C.ar      1 <0>         0.1251
       6  C6         -0.7370   28.5650   53.6540  C.ar      1 <0>        -0.1431
       7  C7         -0.9010   27.5830   52.6940  C.ar      1 <0>        -0.0454
       8  C8         -1.6630   27.8880   51.4310  C.3       1 <0>        -0.1206
       9  O1          0.1270   29.2470   55.7620  O.3       1 <0>        -0.2892
      10  C9          0.0460   30.6060   55.3250  C.3       1 <0>         0.0504
      11  C10         1.0490   31.4370   56.0830  C.2       1 <0>         0.5321
      12  O2          1.3680   31.1250   57.2110  O.2       1 <0>        -0.4745
      13  N1          1.5940   32.5280   55.5060  N.am      1 <0>        -0.5833
      14  N2          2.5260   33.3010   56.2110  N.2       1 <0>        -0.2281
      15  C11         3.3900   34.0220   55.5660  C.2       1 <0>         0.1175
      16  C12         4.3720   34.8350   56.3070  C.ar      1 <0>        -0.0667
      17  C13         4.5150   34.6760   57.6880  C.ar      1 <0>        -0.0732
      18  C14         5.4400   35.4360   58.3740  C.ar      1 <0>        -0.1268
      19  C15         6.2160   36.3630   57.7000  C.ar      1 <0>        -0.0497
      20  C16         6.0750   36.5290   56.3340  C.ar      1 <0>        -0.1215
      21  C17         5.1590   35.7730   55.6340  C.ar      1 <0>        -0.0848
      22  C18         7.2190   37.1940   58.4580  C.3       1 <0>        -0.0337
      23  C19         7.7050   38.3410   57.5700  C.3       1 <0>        -0.1395
      24  C20         6.5610   37.7650   59.7150  C.3       1 <0>        -0.1471
      25  C21         8.4070   36.3190   58.8570  C.3       1 <0>        -0.1396
@<TRIPOS>BOND
     1     1     2 1
     2     2     7 ar
     3     2     3 ar
     4     3     4 ar
     5     4     5 ar
     6     5     6 ar
     7     5     9 1
     8     6     7 ar
     9     7     8 1
    10     9    10 1
    11    10    11 1
    12    11    12 2
    13    11    13 am
    14    13    14 1
    15    14    15 2
    16    15    16 1
    17    16    21 ar
    18    16    17 ar
    19    17    18 ar
    20    18    19 ar
    21    19    20 ar
    22    19    22 1
    23    20    21 ar
    24    22    23 1
    25    22    24 1
    26    22    25 1

@<TRIPOS>MOLECULE
ZINC37177100_replica-1.pdb
 21 22 0 0 0
SMALL
GASTEIGER

@<TRIPOS>ATOM
       1  C1          0.1890   27.0480   55.6550  C.3       1 <0>        -0.1480
       2  C2          0.3950   27.8460   54.3650  C.3       1 <0>        -0.0499
       3  C3         -0.2460   29.2280   54.5120  C.3       1 <0>         0.0672
       4  N1          0.6690   30.1170   55.2380  N.3       1 <0>        -0.6834
       5  C4          0.0300   30.6600   56.4440  C.3       1 <0>         0.1189
       6  C5         -1.4720   30.8220   56.1970  C.3       1 <0>        -0.1387
       7  C6          0.6320   32.0020   56.7730  C.ar      1 <0>        -0.0409
       8  C7          1.8100   32.3960   56.1680  C.ar      1 <0>        -0.1009
       9  C8          2.3630   33.6270   56.4690  C.ar      1 <0>        -0.0539
      10  C9          1.7370   34.4630   57.3750  C.ar      1 <0>        -0.0499
      11  C10         0.5580   34.0670   57.9800  C.ar      1 <0>        -0.0533
      12  C11         0.0040   32.8390   57.6760  C.ar      1 <0>        -0.1124
      13  N2          2.3300   35.7790   57.6990  N.pl3     1 <0>         0.0319
      14  O1          2.1050   36.2980   58.7670  O.2       1 <0>        -0.1563
      15  O2          3.0400   36.3370   56.8940  O.3       1 <0>        -0.1580
      16  C12        -0.2470   27.1140   53.2140  C.ar      1 <0>        -0.0782
      17  C13        -0.0420   25.7550   53.0600  C.ar      1 <0>        -0.1159
      18  C14        -0.6300   25.0830   52.0040  C.ar      1 <0>        -0.1185
      19  C15        -1.4240   25.7700   51.1050  C.ar      1 <0>        -0.1228
      20  C16        -1.6290   27.1280   51.2600  C.ar      1 <0>        -0.1176
      21  C17        -1.0440   27.7990   52.3170  C.ar      1 <0>        -0.1143
@<TRIPOS>BOND
     1     1     2 1
     2     2     3 1
     3     2    16 1
     4     3     4 1
     5     4     5 1
     6     5     6 1
     7     5     7 1
     8     7    12 ar
     9     7     8 ar
    10     8     9 ar
    11     9    10 ar
    12    10    11 ar
    13    10    13 1
    14    11    12 ar
    15    13    14 2
    16    13    15 1
    17    16    21 ar
    18    16    17 ar
    19    17    18 ar
    20    18    19 ar
    21    19    20 ar
    22    20    21 ar

@<TRIPOS>MOLECULE
ZINC08497528_replica-1.pdb
 25 26 0 0 0
SMALL
GASTEIGER

@<TRIPOS>ATOM
       1  C1          7.1410   36.6650   54.8070  C.3       1 <0>        -0.1497
       2  C2          7.0470   36.2510   56.2760  C.3       1 <0>        -0.0706
       3  C3          7.7280   37.3080   57.1480  C.3       1 <0>         0.1261
       4  N1          8.7220   36.6630   58.0100  N.am      1 <0>        -0.7279
       5  C4          8.6720   36.8380   59.3450  C.2       1 <0>         0.5609
       6  O1          7.8010   37.5300   59.8350  O.2       1 <0>        -0.5327
       7  C5          9.6750   36.1870   60.2140  C.ar      1 <0>        -0.1440
       8  C6         10.1800   36.8590   61.3290  C.ar      1 <0>        -0.0546
       9  C7         11.1160   36.2460   62.1350  C.ar      1 <0>        -0.1229
      10  C8         11.5550   34.9680   61.8410  C.ar      1 <0>        -0.0399
      11  C9         11.0600   34.2950   60.7390  C.ar      1 <0>        -0.1293
      12  C10        10.1230   34.8970   59.9240  C.ar      1 <0>        -0.0833
      13  C11        12.5790   34.3040   62.7260  C.3       1 <0>        -0.0351
      14  C12        12.0770   32.9160   63.1350  C.3       1 <0>        -0.1406
      15  C13        13.8990   34.1670   61.9670  C.3       1 <0>        -0.1466
      16  C14        12.7980   35.1550   63.9800  C.3       1 <0>        -0.1406
      17  C15         5.5980   36.1310   56.6730  C.ar      1 <0>        -0.0254
      18  C16         5.2580   35.9460   58.0010  C.ar      1 <0>        -0.1115
      19  C17         3.9300   35.8400   58.3650  C.ar      1 <0>        -0.0498
      20  C18         2.9410   35.9100   57.4020  C.ar      1 <0>        -0.0460
      21  C19         3.2810   36.0900   56.0740  C.ar      1 <0>        -0.0507
      22  C20         4.6100   36.2000   55.7100  C.ar      1 <0>        -0.1114
      23  N2          1.5180   35.7920   57.7930  N.pl3     1 <0>         0.0261
      24  O2          0.6430   35.9390   56.9580  O.2       1 <0>        -0.1576
      25  O3          1.2210   35.5490   58.9490  O.3       1 <0>        -0.1571
@<TRIPOS>BOND
     1     1     2 1
     2     2     3 1
     3     2    17 1
     4     3     4 1
     5     4     5 am
     6     5     6 2
     7     5     7 1
     8     7    12 ar
     9     7     8 ar
    10     8     9 ar
    11     9    10 ar
    12    10    11 ar
    13    10    13 1
    14    11    12 ar
    15    13    14 1
    16    13    15 1
    17    13    16 1
    18    17    22 ar
    19    17    18 ar
    20    18    19 ar
    21    19    20 ar
    22    20    21 ar
    23    20    23 1
    24    21    22 ar
    25    23    24 2
    26    23    25 1

@<TRIPOS>MOLECULE
ZINC39458304_replica-1.pdb
 27 30 0 0 0
SMALL
GASTEIGER

@<TRIPOS>ATOM
       1  C1          8.8020   37.6880   57.7820  C.3       1 <0>        -0.0887
       2  C2          7.8940   36.5470   58.1650  C.2       1 <0>         0.0782
       3  C3          8.0480   35.7350   59.2510  C.2       1 <0>        -0.1079
       4  C4          6.9890   34.8110   59.2340  C.2       1 <0>        -0.0708
       5  C5          6.2190   35.0750   58.1350  C.2       1 <0>         0.0389
       6  N1          6.7830   36.1570   57.4910  N.pl3     1 <0>        -0.4367
       7  S1          6.1990   36.8620   56.1120  S.3       1 <0>         0.1423
       8  C6          7.4060   36.4020   54.8390  C.3       1 <0>        -0.1773
       9  C7          5.0100   34.3670   57.6840  C.ar      1 <0>         0.2837
      10  C8          4.0810   33.7650   58.5410  C.ar      1 <0>        -0.1990
      11  C9          2.8880   33.2400   57.9630  C.ar      1 <0>        -0.0166
      12  C10         2.7490   33.2460   56.5800  C.ar      1 <0>        -0.2121
      13  C11         3.7570   33.7820   55.8050  C.ar      1 <0>         0.1676
      14  N2          4.8220   34.3170   56.3590  N.ar      1 <0>        -0.4996
      15  S2          1.6080   32.5920   58.9850  S.3       1 <0>         0.0888
      16  C12         0.2800   33.8220   58.8620  C.3       1 <0>        -0.2445
      17  C13         4.2120   33.5750   59.9270  C.2       1 <0>         0.3937
      18  O1          3.2620   33.0520   60.4720  O.2       1 <0>        -0.4382
      19  C14         5.3290   33.9170   60.8110  C.3       1 <0>        -0.1534
      20  C15         6.7060   33.7180   60.2190  C.3       1 <0>        -0.0480
      21  C16         9.1320   35.8140   60.2630  C.ar      1 <0>        -0.0364
      22  C17        10.2500   34.9910   60.1530  C.ar      1 <0>        -0.0882
      23  C18        11.2560   35.0660   61.0960  C.ar      1 <0>        -0.1274
      24  C19        11.1560   35.9570   62.1500  C.ar      1 <0>        -0.1017
      25  C20        10.0490   36.7770   62.2690  C.ar      1 <0>        -0.1462
      26  C21         9.0370   36.7150   61.3250  C.ar      1 <0>         0.1191
      27  O2          7.9510   37.5260   61.4370  O.3       1 <0>        -0.4905
@<TRIPOS>BOND
     1     1     2 1
     2     2     6 1
     3     2     3 2
     4     3     4 1
     5     3    21 1
     6     4    20 1
     7     4     5 2
     8     5     6 1
     9     5     9 1
    10     6     7 1
    11     7     8 1
    12     9    14 ar
    13     9    10 ar
    14    10    11 ar
    15    10    17 1
    16    11    12 ar
    17    11    15 1
    18    12    13 ar
    19    13    14 ar
    20    15    16 1
    21    17    18 2
    22    17    19 1
    23    19    20 1
    24    21    26 ar
    25    21    22 ar
    26    22    23 ar
    27    23    24 ar
    28    24    25 ar
    29    25    26 ar
    30    26    27 1

@<TRIPOS>MOLECULE
ZINC59269405_replica-1.pdb
 22 23 0 0 0
SMALL
GASTEIGER

@<TRIPOS>ATOM
       1  C1          4.6580   36.2300   55.7550  C.3       1 <0>        -0.1505
       2  C2          5.6690   35.1460   55.3740  C.3       1 <0>         0.0752
       3  C3          5.2830   34.5430   54.0220  C.3       1 <0>        -0.1826
       4  O1          6.9740   35.7220   55.2830  O.3       1 <0>        -0.3068
       5  C4          7.7000   35.7880   56.4280  C.ar      1 <0>         0.1531
       6  C5          8.1190   34.6180   57.0500  C.ar      1 <0>        -0.1585
       7  C6          8.8560   34.6810   58.2110  C.ar      1 <0>        -0.0472
       8  C7          9.1830   35.9250   58.7640  C.ar      1 <0>        -0.1297
       9  C8          8.7580   37.1000   58.1330  C.ar      1 <0>        -0.0512
      10  C9          8.0260   37.0260   56.9690  C.ar      1 <0>        -0.2168
      11  C10         9.9690   35.9970   60.0040  C.2       1 <0>         0.0128
      12  C11        10.6230   34.9030   60.4540  C.2       1 <0>        -0.2566
      13  C12        11.3820   34.9720   61.6500  C.2       1 <0>         0.4295
      14  O2         11.6020   36.0510   62.1690  O.2       1 <0>        -0.4706
      15  C13        11.9030   33.7350   62.2670  C.ar      1 <0>        -0.2010
      16  C14        13.2720   33.6000   62.5170  C.ar      1 <0>        -0.0342
      17  C15        13.7540   32.4470   63.0940  C.ar      1 <0>        -0.1654
      18  C16        12.8810   31.4180   63.4270  C.ar      1 <0>         0.1578
      19  C17        11.5200   31.5470   63.1800  C.ar      1 <0>        -0.2221
      20  C18        11.0280   32.7000   62.6090  C.ar      1 <0>        -0.0203
      21  O3         13.3600   30.2810   63.9960  O.3       1 <0>        -0.3128
      22  C19        12.4140   29.4330   64.6480  C.3       1 <0>         0.0237
@<TRIPOS>BOND
     1     1     2 1
     2     2     3 1
     3     2     4 1
     4     4     5 1
     5     5    10 ar
     6     5     6 ar
     7     6     7 ar
     8     7     8 ar
     9     8     9 ar
    10     8    11 1
    11     9    10 ar
    12    11    12 2
    13    12    13 1
    14    13    14 2
    15    13    15 1
    16    15    20 ar
    17    15    16 ar
    18    16    17 ar
    19    17    18 ar
    20    18    19 ar
    21    18    21 1
    22    19    20 ar
    23    21    22 1

@<TRIPOS>MOLECULE
ZINC00452692_replica-1.pdb
 23 24 0 0 0
SMALL
GASTEIGER

@<TRIPOS>ATOM
       1  C1          0.1590   32.6750   62.5880  C.3       1 <0>        -0.1553
       2  C2          1.4210   32.5310   61.7350  C.3       1 <0>        -0.1164
       3  C3          1.4350   33.6170   60.6570  C.3       1 <0>        -0.0551
       4  C4          0.2310   34.5420   60.8490  C.3       1 <0>        -0.1458
       5  C5          1.3630   32.9740   59.2960  C.ar      1 <0>        -0.0624
       6  C6          1.4450   31.5990   59.1770  C.ar      1 <0>        -0.1126
       7  C7          1.3790   31.0070   57.9310  C.ar      1 <0>        -0.0630
       8  C8          1.2310   31.7940   56.7970  C.ar      1 <0>         0.1054
       9  C9          1.1540   33.1760   56.9190  C.ar      1 <0>        -0.1142
      10  C10         1.2150   33.7610   58.1680  C.ar      1 <0>        -0.1131
      11  N1          1.1640   31.1970   55.5340  N.pl3     1 <0>        -0.6194
      12  C11         0.0480   30.5400   55.1560  C.2       1 <0>         0.5106
      13  S1         -1.4860   31.0860   55.6840  S.2       1 <0>        -0.4852
      14  N2          0.1410   29.4570   54.3600  N.am      1 <0>        -0.6407
      15  C12        -0.9750   28.8030   53.9790  C.2       1 <0>         0.5336
      16  O1         -2.0630   29.1910   54.3530  O.2       1 <0>        -0.3947
      17  C13        -0.8720   27.6160   53.1060  C.ar      1 <0>        -0.1451
      18  C14        -1.4330   27.6340   51.8270  C.ar      1 <0>        -0.0858
      19  C15        -1.3290   26.5240   51.0160  C.ar      1 <0>        -0.1325
      20  C16        -0.6810   25.3880   51.4710  C.ar      1 <0>        -0.0822
      21  C17        -0.1270   25.3620   52.7380  C.ar      1 <0>        -0.1277
      22  C18        -0.2180   26.4680   53.5580  C.ar      1 <0>        -0.0126
      23  C19         0.3840   26.4370   54.9400  C.3       1 <0>        -0.1288
@<TRIPOS>BOND
     1     1     2 1
     2     2     3 1
     3     3     4 1
     4     3     5 1
     5     5    10 ar
     6     5     6 ar
     7     6     7 ar
     8     7     8 ar
     9     8     9 ar
    10     8    11 1
    11     9    10 ar
    12    11    12 1
    13    12    13 2
    14    12    14 1
    15    14    15 am
    16    15    16 2
    17    15    17 1
    18    17    22 ar
    19    17    18 ar
    20    18    19 ar
    21    19    20 ar
    22    20    21 ar
    23    21    22 ar
    24    22    23 1

@<TRIPOS>MOLECULE
ZINC33261145_replica-1.pdb
 28 30 0 0 0
SMALL
GASTEIGER

@<TRIPOS>ATOM
       1  C1          2.6840   32.9320   60.9710  C.3       1 <0>        -0.1187
       2  C2          2.5590   33.9610   59.8780  C.ar      1 <0>        -0.0925
       3  C3          1.3410   34.5780   59.6460  C.ar      1 <0>        -0.1007
       4  C4          1.2200   35.5240   58.6440  C.ar      1 <0>        -0.1213
       5  C5          2.3130   35.8580   57.8700  C.ar      1 <0>        -0.0971
       6  C6          3.5410   35.2400   58.1000  C.ar      1 <0>        -0.0601
       7  C7          3.6570   34.2840   59.1070  C.ar      1 <0>        -0.0703
       8  C8          4.7180   35.5940   57.2700  C.ar      1 <0>         0.2504
       9  C9          5.7770   36.3180   57.8150  C.ar      1 <0>        -0.2727
      10  C10         6.8600   36.6240   56.9920  C.ar      1 <0>         0.4340
      11  N1          6.8440   36.2120   55.7270  N.ar      1 <0>        -0.5690
      12  C11         5.8230   35.5340   55.2470  C.ar      1 <0>         0.3430
      13  N2          4.7810   35.2240   55.9900  N.ar      1 <0>        -0.5496
      14  N3          7.9380   37.3430   57.4870  N.pl3     1 <0>        -0.6634
      15  C12         8.7180   36.8120   58.5110  C.ar      1 <0>         0.1932
      16  C13         9.2520   35.5320   58.3840  C.ar      1 <0>        -0.1274
      17  C14        10.0280   35.0060   59.3910  C.ar      1 <0>        -0.0629
      18  C15        10.2690   35.7530   60.5480  C.ar      1 <0>        -0.1579
      19  C16         9.7270   37.0350   60.6740  C.ar      1 <0>        -0.0357
      20  C17         8.9570   37.5580   59.6620  C.ar      1 <0>        -0.1612
      21  C18        11.0970   35.1890   61.6310  C.2       1 <0>         0.5607
      22  O1         11.6920   35.9310   62.3910  O.2       1 <0>        -0.5441
      23  N4         11.1940   33.8530   61.7810  N.am      1 <0>        -0.7384
      24  C19        12.0160   33.2950   62.8570  C.3       1 <0>         0.1186
      25  C20        11.5840   31.8530   63.1320  C.3       1 <0>        -0.1275
      26  C21        12.8240   30.9690   63.2850  C.3       1 <0>        -0.0935
      27  C22        14.0100   31.8280   63.7280  C.3       1 <0>        -0.1547
      28  C23        12.5550   29.8900   64.3350  C.3       1 <0>        -0.1494
@<TRIPOS>BOND
     1     1     2 1
     2     2     7 ar
     3     2     3 ar
     4     3     4 ar
     5     4     5 ar
     6     5     6 ar
     7     6     7 ar
     8     6     8 1
     9     8    13 ar
    10     8     9 ar
    11     9    10 ar
    12    10    11 ar
    13    10    14 1
    14    11    12 ar
    15    12    13 ar
    16    14    15 1
    17    15    20 ar
    18    15    16 ar
    19    16    17 ar
    20    17    18 ar
    21    18    19 ar
    22    18    21 1
    23    19    20 ar
    24    21    22 2
    25    21    23 am
    26    23    24 1
    27    24    25 1
    28    25    26 1
    29    26    27 1
    30    26    28 1

@<TRIPOS>MOLECULE
ZINC28294294_replica-1.pdb
 29 32 0 0 0
SMALL
GASTEIGER

@<TRIPOS>ATOM
       1  C1          1.8740   33.2190   59.2030  C.3       1 <0>        -0.1237
       2  C2          1.1200   32.9240   60.4740  C.ar      1 <0>        -0.0769
       3  C3          0.5050   33.9510   61.1670  C.ar      1 <0>        -0.1183
       4  C4         -0.1820   33.6810   62.3350  C.ar      1 <0>        -0.1108
       5  C5         -0.2590   32.3850   62.8090  C.ar      1 <0>        -0.1228
       6  C6          0.3520   31.3590   62.1140  C.ar      1 <0>        -0.0994
       7  C7          1.0390   31.6280   60.9440  C.ar      1 <0>        -0.0973
       8  C8          1.7040   30.5080   60.1870  C.3       1 <0>        -0.0633
       9  C9          0.6600   29.4580   59.8060  C.3       1 <0>        -0.1106
      10  C10        -0.1200   29.8790   58.5700  C.2       1 <0>         0.5211
      11  O1         -0.8050   30.8790   58.5510  O.2       1 <0>        -0.4684
      12  N1         -0.0040   29.0860   57.5180  N.am      1 <0>        -0.5273
      13  C11         0.7710   27.9440   57.5380  C.2       1 <0>         0.3583
      14  N2          0.9630   27.0750   56.5660  N.2       1 <0>        -0.3233
      15  N3          0.3150   27.1950   55.4570  N.2       1 <0>        -0.3321
      16  C12         0.5730   26.3910   54.4610  C.2       1 <0>         0.1794
      17  C13        -0.2090   26.4860   53.2180  C.ar      1 <0>        -0.0693
      18  C14        -0.6840   27.7250   52.7780  C.ar      1 <0>        -0.0647
      19  C15        -1.4120   27.8070   51.6100  C.ar      1 <0>        -0.1285
      20  C16        -1.6830   26.6640   50.8780  C.ar      1 <0>        -0.0985
      21  C17        -1.2200   25.4320   51.3090  C.ar      1 <0>        -0.1274
      22  C18        -0.4860   25.3350   52.4720  C.ar      1 <0>        -0.0850
      23  S1          1.4530   27.9220   59.1880  S.3       1 <0>         0.0238
      24  C19        -0.6950   29.4140   56.3460  C.ar      1 <0>         0.1240
      25  C20        -0.0940   30.2160   55.3850  C.ar      1 <0>        -0.1024
      26  C21        -0.7760   30.5330   54.2260  C.ar      1 <0>        -0.1003
      27  C22        -2.0610   30.0640   54.0280  C.ar      1 <0>        -0.0990
      28  C23        -2.6650   29.2690   54.9860  C.ar      1 <0>        -0.1086
      29  C24        -1.9850   28.9430   56.1430  C.ar      1 <0>        -0.0874
@<TRIPOS>BOND
     1     1     2 1
     2     2     7 ar
     3     2     3 ar
     4     3     4 ar
     5     4     5 ar
     6     5     6 ar
     7     6     7 ar
     8     7     8 1
     9     8     9 1
    10     9    23 1
    11     9    10 1
    12    10    11 2
    13    10    12 am
    14    12    13 1
    15    12    24 1
    16    13    14 2
    17    13    23 1
    18    14    15 1
    19    15    16 2
    20    16    17 1
    21    17    22 ar
    22    17    18 ar
    23    18    19 ar
    24    19    20 ar
    25    20    21 ar
    26    21    22 ar
    27    24    29 ar
    28    24    25 ar
    29    25    26 ar
    30    26    27 ar
    31    27    28 ar
    32    28    29 ar

@<TRIPOS>MOLECULE
ZINC38512097_replica-1.pdb
 27 29 0 0 0
SMALL
GASTEIGER

@<TRIPOS>ATOM
       1  C1         -0.4370   24.4660   51.6590  C.3       1 <0>        -0.1156
       2  C2         -0.7340   25.8880   52.0580  C.ar      1 <0>        -0.0954
       3  C3         -0.1990   26.4020   53.2260  C.ar      1 <0>        -0.0886
       4  C4         -0.4690   27.7060   53.5940  C.ar      1 <0>        -0.1496
       5  C5         -1.2780   28.5000   52.7910  C.ar      1 <0>         0.1485
       6  C6         -1.8130   27.9800   51.6200  C.ar      1 <0>        -0.1023
       7  C7         -1.5350   26.6780   51.2540  C.ar      1 <0>        -0.0901
       8  C8         -2.6910   28.8380   50.7470  C.3       1 <0>        -0.1192
       9  N1         -1.5530   29.8190   53.1620  N.pl3     1 <0>        -0.6075
      10  C9         -1.1620   30.2860   54.4070  C.2       1 <0>         0.3624
      11  N2         -0.0370   30.8750   54.7590  N.2       1 <0>        -0.5497
      12  C10         0.1760   31.2640   56.0170  C.2       1 <0>         0.0345
      13  C11        -0.8010   31.0440   56.9560  C.2       1 <0>        -0.1614
      14  S1         -2.0540   30.2550   55.9540  S.3       1 <0>         0.0450
      15  C12         1.4390   31.9190   56.3940  C.2       1 <0>         0.5905
      16  O1          1.9740   31.6450   57.4510  O.2       1 <0>        -0.5329
      17  N3          2.0000   32.8240   55.5670  N.am      1 <0>        -0.7140
      18  C13         3.2570   33.4770   55.9420  C.3       1 <0>         0.1226
      19  C14         2.9970   34.9560   56.2320  C.3       1 <0>        -0.0855
      20  C15         4.2690   35.6060   56.7100  C.ar      1 <0>        -0.1216
      21  C16         4.5660   35.6330   58.0610  C.ar      1 <0>        -0.0723
      22  C17         5.7310   36.2290   58.5020  C.ar      1 <0>        -0.1496
      23  C18         6.6060   36.7990   57.5890  C.ar      1 <0>         0.1269
      24  C19         6.3070   36.7700   56.2340  C.ar      1 <0>        -0.2063
      25  C20         5.1420   36.1690   55.7980  C.ar      1 <0>        -0.0719
      26  O2          7.7530   37.3870   58.0200  O.3       1 <0>        -0.3178
      27  C21         8.5490   38.0530   57.0380  C.3       1 <0>         0.0265
@<TRIPOS>BOND
     1     1     2 1
     2     2     7 ar
     3     2     3 ar
     4     3     4 ar
     5     4     5 ar
     6     5     6 ar
     7     5     9 1
     8     6     7 ar
     9     6     8 1
    10     9    10 1
    11    10    14 1
    12    10    11 2
    13    11    12 1
    14    12    13 2
    15    12    15 1
    16    13    14 1
    17    15    16 2
    18    15    17 am
    19    17    18 1
    20    18    19 1
    21    19    20 1
    22    20    25 ar
    23    20    21 ar
    24    21    22 ar
    25    22    23 ar
    26    23    24 ar
    27    23    26 1
    28    24    25 ar
    29    26    27 1

@<TRIPOS>MOLECULE
ZINC26463475_replica-1.pdb
 29 30 0 0 0
SMALL
GASTEIGER

@<TRIPOS>ATOM
       1  C1          4.9730   36.1030   55.5320  C.3       1 <0>        -0.1626
       2  C2          6.3270   35.4200   55.7420  C.3       1 <0>         0.1464
       3  C3          7.4420   36.3320   55.2260  C.3       1 <0>        -0.1594
       4  N1          6.5280   35.1620   57.1690  N.am      1 <0>        -0.7236
       5  C4          6.2900   33.9350   57.6720  C.2       1 <0>         0.5886
       6  O1          5.9960   33.0180   56.9280  O.2       1 <0>        -0.5309
       7  C5          6.3830   33.7030   59.1200  C.2       1 <0>         0.0959
       8  C6          5.2600   33.6880   59.8770  C.2       1 <0>        -0.1435
       9  C7          3.9630   34.0250   59.2740  C.ar      1 <0>        -0.0906
      10  C8          3.6050   35.3640   59.0820  C.ar      1 <0>        -0.0739
      11  C9          2.3900   35.6750   58.5130  C.ar      1 <0>        -0.2019
      12  C10         1.5160   34.6610   58.1380  C.ar      1 <0>         0.1321
      13  C11         1.8650   33.3300   58.3300  C.ar      1 <0>        -0.1523
      14  C12         3.0790   33.0090   58.8930  C.ar      1 <0>        -0.0634
      15  O2          0.3170   34.9740   57.5820  O.3       1 <0>        -0.3162
      16  C13         0.3130   35.9850   56.5730  C.3       1 <0>         0.0228
      17  N2          7.6310   33.4980   59.7170  N.am      1 <0>        -0.6655
      18  C14         8.3600   34.5510   60.1360  C.2       1 <0>         0.5547
      19  O3          7.9680   35.6830   59.9250  O.2       1 <0>        -0.4930
      20  C15         9.6350   34.3320   60.8510  C.ar      1 <0>        -0.1393
      21  C16         9.9480   33.0700   61.3550  C.ar      1 <0>        -0.0519
      22  C17        11.1400   32.8720   62.0210  C.ar      1 <0>        -0.1223
      23  C18        12.0240   33.9230   62.1890  C.ar      1 <0>        -0.0384
      24  C19        11.7200   35.1770   61.6900  C.ar      1 <0>        -0.1283
      25  C20        10.5310   35.3880   61.0230  C.ar      1 <0>        -0.0823
      26  C21        13.3250   33.7010   62.9170  C.3       1 <0>        -0.0343
      27  C22        14.4930   34.0210   61.9830  C.3       1 <0>        -0.1425
      28  C23        13.3860   34.6140   64.1430  C.3       1 <0>        -0.1483
      29  C24        13.4150   32.2400   63.3650  C.3       1 <0>        -0.1421
@<TRIPOS>BOND
     1     1     2 1
     2     2     3 1
     3     2     4 1
     4     4     5 am
     5     5     6 2
     6     5     7 1
     7     7     8 2
     8     7    17 1
     9     8     9 1
    10     9    14 ar
    11     9    10 ar
    12    10    11 ar
    13    11    12 ar
    14    12    13 ar
    15    12    15 1
    16    13    14 ar
    17    15    16 1
    18    17    18 am
    19    18    19 2
    20    18    20 1
    21    20    25 ar
    22    20    21 ar
    23    21    22 ar
    24    22    23 ar
    25    23    24 ar
    26    23    26 1
    27    24    25 ar
    28    26    27 1
    29    26    28 1
    30    26    29 1

@<TRIPOS>MOLECULE
ZINC03315890_replica-1.pdb
 28 30 0 0 0
SMALL
GASTEIGER

@<TRIPOS>ATOM
       1  C1          5.3160   34.9510   58.9010  C.2       1 <0>        -0.1620
       2  C2          6.2640   34.3370   58.2190  C.2       1 <0>         0.0629
       3  C3          6.9920   35.0260   57.0820  C.3       1 <0>        -0.0513
       4  C4          8.4960   34.8090   57.2960  C.3       1 <0>         0.1922
       5  N1          8.7530   33.3910   57.5430  N.pl3     1 <0>        -0.6534
       6  C5          7.8640   32.5940   58.1520  C.2       1 <0>         0.5709
       7  S1          8.3010   30.9720   58.4830  S.2       1 <0>        -0.6249
       8  N2          6.6400   33.0230   58.5140  N.pl3     1 <0>        -0.6172
       9  C6          8.9560   35.6170   58.4810  C.ar      1 <0>        -0.1288
      10  C7          9.8370   35.0670   59.3930  C.ar      1 <0>        -0.0657
      11  C8         10.2630   35.8090   60.4790  C.ar      1 <0>        -0.1339
      12  C9          9.8020   37.1010   60.6600  C.ar      1 <0>        -0.0688
      13  C10         8.9180   37.6540   59.7540  C.ar      1 <0>        -0.1852
      14  C11         8.4920   36.9110   58.6610  C.ar      1 <0>         0.1221
      15  O1          7.6220   37.4520   57.7690  O.3       1 <0>        -0.3234
      16  C12         7.9960   38.6940   57.1680  C.3       1 <0>         0.4127
      17  F1          9.3300   38.6260   56.7500  F         1 <0>        -0.1951
      18  F2          7.1740   38.9450   56.0650  F         1 <0>        -0.1944
      19  C13         6.5710   34.4240   55.7660  C.2       1 <0>         0.4682
      20  O2          6.8090   33.2630   55.5290  O.2       1 <0>        -0.4863
      21  O3          5.9320   35.1780   54.8570  O.3       1 <0>        -0.3407
      22  C14         4.6570   34.6830   54.3700  C.3       1 <0>         0.1105
      23  C15         3.6250   34.7950   55.4610  C.ar      1 <0>        -0.1023
      24  C16         2.9980   33.6600   55.9400  C.ar      1 <0>        -0.0930
      25  C17         2.0540   33.7620   56.9450  C.ar      1 <0>        -0.1216
      26  C18         1.7300   35.0010   57.4650  C.ar      1 <0>        -0.1057
      27  C19         2.3530   36.1370   56.9830  C.ar      1 <0>        -0.1225
      28  C20         3.3000   36.0340   55.9810  C.ar      1 <0>        -0.0940
@<TRIPOS>BOND
     1     1     2 2
     2     2     8 1
     3     2     3 1
     4     3     4 1
     5     3    19 1
     6     4     5 1
     7     4     9 1
     8     5     6 1
     9     6     7 2
    10     6     8 1
    11     9    14 ar
    12     9    10 ar
    13    10    11 ar
    14    11    12 ar
    15    12    13 ar
    16    13    14 ar
    17    14    15 1
    18    15    16 1
    19    16    17 1
    20    16    18 1
    21    19    20 2
    22    19    21 1
    23    21    22 1
    24    22    23 1
    25    23    28 ar
    26    23    24 ar
    27    24    25 ar
    28    25    26 ar
    29    26    27 ar
    30    27    28 ar

@<TRIPOS>MOLECULE
ZINC66164603_replica-1.pdb
 20 21 0 0 0
SMALL
GASTEIGER

@<TRIPOS>ATOM
       1  C1          0.5100   27.7850   54.9910  C.3       1 <0>        -0.1187
       2  C2         -0.0470   27.0850   53.7780  C.ar      1 <0>        -0.1021
       3  C3          0.1440   25.7270   53.6160  C.ar      1 <0>        -0.1132
       4  C4         -0.3670   25.0840   52.5030  C.ar      1 <0>        -0.1153
       5  C5         -1.0680   25.8000   51.5490  C.ar      1 <0>        -0.1147
       6  C6         -1.2610   27.1590   51.7070  C.ar      1 <0>        -0.0932
       7  C7         -0.7540   27.8040   52.8260  C.ar      1 <0>         0.0902
       8  O1         -0.9480   29.1400   52.9870  O.3       1 <0>        -0.3218
       9  C8         -2.0500   29.5430   53.8020  C.3       1 <0>         0.0809
      10  C9         -3.0850   30.2670   52.9390  C.3       1 <0>        -0.1790
      11  C10        -1.5540   30.4830   54.9010  C.3       1 <0>         0.1293
      12  N1         -2.4210   30.3620   56.0760  N.pl3     1 <0>        -0.7459
      13  C11        -2.1720   29.3710   57.0310  C.ar      1 <0>         0.1887
      14  C12        -2.9240   28.2040   57.0320  C.ar      1 <0>        -0.1758
      15  C13        -2.6770   27.2260   57.9750  C.ar      1 <0>        -0.0785
      16  C14        -1.6820   27.4060   58.9190  C.ar      1 <0>        -0.1522
      17  C15        -0.9300   28.5670   58.9210  C.ar      1 <0>        -0.1044
      18  C16        -1.1690   29.5490   57.9760  C.ar      1 <0>         0.0159
      19  F1         -0.4300   30.6800   57.9750  F         1 <0>        -0.1449
      20  C17        -2.0250   27.9380   50.6680  C.3       1 <0>        -0.1159
@<TRIPOS>BOND
     1     1     2 1
     2     2     7 ar
     3     2     3 ar
     4     3     4 ar
     5     4     5 ar
     6     5     6 ar
     7     6     7 ar
     8     6    20 1
     9     7     8 1
    10     8     9 1
    11     9    10 1
    12     9    11 1
    13    11    12 1
    14    12    13 1
    15    13    18 ar
    16    13    14 ar
    17    14    15 ar
    18    15    16 ar
    19    16    17 ar
    20    17    18 ar
    21    18    19 1

@<TRIPOS>MOLECULE
ZINC66199363_replica-1.pdb
 28 29 0 0 0
SMALL
GASTEIGER

@<TRIPOS>ATOM
       1  C1          8.6970   35.8970   57.3100  C.3       1 <0>        -0.1461
       2  C2          8.5030   36.7650   58.5550  C.3       1 <0>        -0.0561
       3  C3          9.4380   36.3020   59.6420  C.ar      1 <0>        -0.0779
       4  C4          9.6300   37.0810   60.7680  C.ar      1 <0>        -0.0802
       5  C5         10.4880   36.6550   61.7650  C.ar      1 <0>        -0.1190
       6  C6         11.1530   35.4500   61.6360  C.ar      1 <0>        -0.0727
       7  C7         10.9600   34.6710   60.5120  C.ar      1 <0>        -0.1177
       8  C8         10.0990   35.0940   59.5170  C.ar      1 <0>        -0.1064
       9  C9         12.0890   34.9870   62.7230  C.3       1 <0>        -0.0790
      10  C10        12.7710   33.6880   62.2890  C.3       1 <0>        -0.0906
      11  C11        14.2820   33.8140   62.4880  C.3       1 <0>        -0.1513
      12  C12        12.2400   32.5270   63.1320  C.3       1 <0>        -0.1490
      13  C13         7.0780   36.6470   59.0330  C.2       1 <0>         0.5183
      14  O1          6.5000   37.6220   59.4650  O.2       1 <0>        -0.5270
      15  N1          6.4470   35.4570   58.9810  N.am      1 <0>        -0.5201
      16  N2          5.1230   35.3480   59.4250  N.am      1 <0>        -0.5254
      17  C14         4.4740   34.1710   59.3230  C.2       1 <0>         0.5641
      18  O2          5.0370   33.2040   58.8460  O.2       1 <0>        -0.5157
      19  C15         3.0790   34.0550   59.7910  C.ar      1 <0>        -0.1703
      20  C16         2.7180   33.0390   60.6790  C.ar      1 <0>        -0.0458
      21  C17         1.4140   32.9370   61.1120  C.ar      1 <0>        -0.1642
      22  C18         0.4580   33.8370   60.6710  C.ar      1 <0>        -0.0444
      23  C19         0.8010   34.8450   59.7920  C.ar      1 <0>        -0.2203
      24  C20         2.1100   34.9670   59.3500  C.ar      1 <0>         0.1941
      25  O3          2.4500   35.9610   58.4930  O.3       1 <0>        -0.2756
      26  C21         2.1230   35.7690   57.1150  C.3       1 <0>         0.0800
      27  C22         3.3200   36.1020   56.2630  C.2       1 <0>        -0.1547
      28  C23         3.6580   35.3150   55.2710  C.2       1 <0>        -0.1691
@<TRIPOS>BOND
     1     1     2 1
     2     2     3 1
     3     2    13 1
     4     3     8 ar
     5     3     4 ar
     6     4     5 ar
     7     5     6 ar
     8     6     7 ar
     9     6     9 1
    10     7     8 ar
    11     9    10 1
    12    10    11 1
    13    10    12 1
    14    13    14 2
    15    13    15 am
    16    15    16 1
    17    16    17 am
    18    17    18 2
    19    17    19 1
    20    19    24 ar
    21    19    20 ar
    22    20    21 ar
    23    21    22 ar
    24    22    23 ar
    25    23    24 ar
    26    24    25 1
    27    25    26 1
    28    26    27 1
    29    27    28 2

@<TRIPOS>MOLECULE
ZINC27794281_replica-1.pdb
 33 37 0 0 0
SMALL
GASTEIGER

@<TRIPOS>ATOM
       1  C1         14.4970   32.2730   64.2110  C.3       1 <0>        -0.1190
       2  C2         13.4470   32.8770   63.3140  C.ar      1 <0>        -0.0457
       3  C3         13.6200   34.1670   62.8290  C.ar      1 <0>        -0.1385
       4  C4         12.6800   34.7320   62.0140  C.ar      1 <0>        -0.0531
       5  C5         11.5380   34.0050   61.6670  C.ar      1 <0>        -0.1502
       6  C6         10.3630   34.2850   60.8430  C.2       1 <0>        -0.0724
       7  C7          9.5920   33.1680   60.8940  C.2       1 <0>        -0.0415
       8  O1         10.1890   32.2390   61.6700  O.3       1 <0>        -0.1843
       9  C8         11.3610   32.6950   62.1510  C.ar      1 <0>         0.0799
      10  C9         12.3280   32.1440   62.9830  C.ar      1 <0>        -0.1170
      11  C10         8.3050   32.9970   60.2060  C.2       1 <0>         0.6035
      12  O2          8.2310   32.2920   59.2180  O.2       1 <0>        -0.5195
      13  N1          7.2060   33.6230   60.6710  N.am      1 <0>        -0.7214
      14  C11         5.9210   33.4540   59.9850  C.3       1 <0>         0.1344
      15  C12         5.4030   34.8200   59.5290  C.3       1 <0>         0.0233
      16  C13         3.9860   34.6810   59.0380  C.ar      1 <0>        -0.1065
      17  C14         3.4330   33.4230   58.8710  C.ar      1 <0>        -0.0725
      18  C15         2.1310   33.2940   58.4260  C.ar      1 <0>        -0.2052
      19  C16         1.3830   34.4250   58.1350  C.ar      1 <0>         0.1266
      20  C17         1.9410   35.6840   58.2990  C.ar      1 <0>        -0.1484
      21  C18         3.2410   35.8090   58.7500  C.ar      1 <0>        -0.0693
      22  O3          0.1040   34.2990   57.6920  O.3       1 <0>        -0.3177
      23  C19        -0.4180   32.9730   57.5870  C.3       1 <0>         0.0236
      24  C20         6.2730   35.3390   58.4120  C.2       1 <0>        -0.1701
      25  C21         6.5690   34.7020   57.2690  C.2       1 <0>         0.0563
      26  N2          7.3820   35.4850   56.4960  N.pl3     1 <0>        -0.6048
      27  C22         7.6450   36.6710   57.1440  C.ar      1 <0>         0.1097
      28  C23         6.9610   36.6320   58.3740  C.ar      1 <0>        -0.1002
      29  C24         7.0470   37.7120   59.2530  C.ar      1 <0>        -0.0741
      30  C25         7.7930   38.8050   58.9140  C.ar      1 <0>        -0.1446
      31  C26         8.4690   38.8490   57.7020  C.ar      1 <0>        -0.0991
      32  C27         8.4000   37.7930   56.8200  C.ar      1 <0>        -0.1306
      33  C28        10.0670   35.5570   60.0900  C.3       1 <0>        -0.1116
@<TRIPOS>BOND
     1     1     2 1
     2     2    10 ar
     3     2     3 ar
     4     3     4 ar
     5     4     5 ar
     6     5     9 ar
     7     5     6 1
     8     6     7 2
     9     6    33 1
    10     7     8 1
    11     7    11 1
    12     8     9 1
    13     9    10 ar
    14    11    12 2
    15    11    13 am
    16    13    14 1
    17    14    15 1
    18    15    16 1
    19    15    24 1
    20    16    21 ar
    21    16    17 ar
    22    17    18 ar
    23    18    19 ar
    24    19    20 ar
    25    19    22 1
    26    20    21 ar
    27    22    23 1
    28    24    28 1
    29    24    25 2
    30    25    26 1
    31    26    27 1
    32    27    32 ar
    33    27    28 ar
    34    28    29 ar
    35    29    30 ar
    36    30    31 ar
    37    31    32 ar

@<TRIPOS>MOLECULE
ZINC37279056_replica-1.pdb
 21 22 0 0 0
SMALL
GASTEIGER

@<TRIPOS>ATOM
       1  C1          0.9050   30.4730   56.5580  C.3       1 <0>        -0.1715
       2  C2         -0.1600   31.3150   55.8520  C.3       1 <0>         0.1438
       3  C3         -0.3120   30.8380   54.4060  C.3       1 <0>        -0.1200
       4  C4         -1.5140   29.8980   54.3010  C.3       1 <0>        -0.0200
       5  C5         -2.1010   29.6640   55.6940  C.3       1 <0>        -0.1419
       6  C6         -2.5770   30.5290   53.4000  C.3       1 <0>        -0.1510
       7  C7         -1.0740   28.5830   53.7140  C.ar      1 <0>        -0.0682
       8  C8         -1.4240   28.2530   52.4180  C.ar      1 <0>        -0.1243
       9  C9         -1.0200   27.0450   51.8790  C.ar      1 <0>        -0.1179
      10  C10        -0.2660   26.1680   52.6360  C.ar      1 <0>        -0.1264
      11  C11         0.0840   26.4990   53.9320  C.ar      1 <0>        -0.1177
      12  C12        -0.3160   27.7080   54.4700  C.ar      1 <0>        -0.1153
      13  N1          0.2430   32.7230   55.8630  N.pl3     1 <0>        -0.7316
      14  C13         0.7110   33.3090   57.0450  C.ar      1 <0>         0.2416
      15  C14        -0.1360   33.4520   58.1330  C.ar      1 <0>        -0.1854
      16  C15         0.3270   34.0300   59.2990  C.ar      1 <0>        -0.0731
      17  C16         1.6350   34.4700   59.3860  C.ar      1 <0>        -0.1624
      18  C17         2.4880   34.3330   58.3050  C.ar      1 <0>        -0.0849
      19  C18         2.0320   33.7470   57.1330  C.ar      1 <0>        -0.1608
      20  S1          3.1180   33.5640   55.7580  S.3       1 <0>        -0.1360
      21  C19         3.5480   35.2670   55.3060  C.3       1 <0>        -0.1363
@<TRIPOS>BOND
     1     1     2 1
     2     2     3 1
     3     2    13 1
     4     3     4 1
     5     4     5 1
     6     4     6 1
     7     4     7 1
     8     7    12 ar
     9     7     8 ar
    10     8     9 ar
    11     9    10 ar
    12    10    11 ar
    13    11    12 ar
    14    13    14 1
    15    14    19 ar
    16    14    15 ar
    17    15    16 ar
    18    16    17 ar
    19    17    18 ar
    20    18    19 ar
    21    19    20 1
    22    20    21 1

@<TRIPOS>MOLECULE
ZINC00074206_replica-1.pdb
 21 22 0 0 0
SMALL
GASTEIGER

@<TRIPOS>ATOM
       1  C1         -0.7370   24.8540   51.8350  C.3       1 <0>        -0.1446
       2  C2         -0.5950   26.3660   51.6480  C.3       1 <0>        -0.0507
       3  C3         -1.8400   26.9130   50.9460  C.3       1 <0>        -0.1445
       4  C4         -0.4460   27.0280   52.9940  C.ar      1 <0>        -0.1329
       5  C5         -1.1140   28.2090   53.2590  C.ar      1 <0>        -0.0654
       6  C6         -0.9800   28.8170   54.4910  C.ar      1 <0>        -0.1904
       7  C7         -0.1730   28.2420   55.4650  C.ar      1 <0>         0.2110
       8  C8          0.4970   27.0550   55.1940  C.ar      1 <0>        -0.1970
       9  C9          0.3540   26.4490   53.9610  C.ar      1 <0>        -0.0702
      10  N1         -0.0350   28.8550   56.7120  N.pl3     1 <0>        -0.7436
      11  C10        -0.6160   30.1800   56.9440  C.3       1 <0>         0.1008
      12  C11         0.4910   31.2370   56.9030  C.3       1 <0>         0.1162
      13  C12         1.3680   31.1040   58.1490  C.3       1 <0>        -0.1478
      14  S1          1.8520   32.7550   58.7260  S.3       1 <0>        -0.0845
      15  C13         0.9620   32.9560   60.2340  C.ar      1 <0>        -0.0899
      16  C14         0.7700   31.8700   61.0800  C.ar      1 <0>        -0.1362
      17  C15         0.0720   32.0320   62.2610  C.ar      1 <0>        -0.1001
      18  C16        -0.4340   33.2720   62.6020  C.ar      1 <0>        -0.1246
      19  C17        -0.2450   34.3560   61.7630  C.ar      1 <0>        -0.0993
      20  C18         0.4570   34.2030   60.5840  C.ar      1 <0>        -0.1003
      21  O1          1.2890   31.0440   55.7340  O.3       1 <0>        -0.5450
@<TRIPOS>BOND
     1     1     2 1
     2     2     3 1
     3     2     4 1
     4     4     9 ar
     5     4     5 ar
     6     5     6 ar
     7     6     7 ar
     8     7     8 ar
     9     7    10 1
    10     8     9 ar
    11    10    11 1
    12    11    12 1
    13    12    13 1
    14    12    21 1
    15    13    14 1
    16    14    15 1
    17    15    20 ar
    18    15    16 ar
    19    16    17 ar
    20    17    18 ar
    21    18    19 ar
    22    19    20 ar

@<TRIPOS>MOLECULE
ZINC49885358_replica-1.pdb
 21 22 0 0 0
SMALL
GASTEIGER

@<TRIPOS>ATOM
       1  C1         -0.3730   24.2010   51.2010  C.3       1 <0>        -0.1172
       2  C2         -0.5850   25.5170   51.9020  C.ar      1 <0>        -0.0742
       3  C3         -1.3490   26.5040   51.3050  C.ar      1 <0>        -0.1257
       4  C4         -1.5430   27.7110   51.9480  C.ar      1 <0>        -0.0648
       5  C5         -0.9740   27.9340   53.1880  C.ar      1 <0>        -0.1262
       6  C6         -0.2110   26.9480   53.7860  C.ar      1 <0>        -0.0672
       7  C7         -0.0200   25.7380   53.1450  C.ar      1 <0>        -0.1255
       8  C8          0.4100   27.1900   55.1380  C.3       1 <0>        -0.1384
       9  C9         -1.1860   29.2510   53.8900  C.3       1 <0>         0.1521
      10  C10         0.1610   29.7940   54.3710  C.3       1 <0>        -0.1665
      11  C11        -0.0510   31.1360   55.0740  C.3       1 <0>         0.1259
      12  N1          1.2310   31.6320   55.5790  N.pl3     1 <0>        -0.7476
      13  C12         1.2640   32.7110   56.4670  C.ar      1 <0>         0.2068
      14  C13         2.3280   33.6020   56.4390  C.ar      1 <0>        -0.1700
      15  C14         2.3570   34.6680   57.3180  C.ar      1 <0>        -0.1030
      16  C15         1.3270   34.8480   58.2240  C.ar      1 <0>         0.0358
      17  C16         0.2650   33.9610   58.2540  C.ar      1 <0>        -0.1035
      18  C17         0.2290   32.8960   57.3750  C.ar      1 <0>        -0.1686
      19  F1          1.3580   35.8920   59.0840  F         1 <0>        -0.1461
      20  O1         -2.0500   29.0610   55.0110  O.3       1 <0>        -0.5608
      21  C18        -2.3750   28.7860   51.2980  C.3       1 <0>        -0.1223
@<TRIPOS>BOND
     1     1     2 1
     2     2     7 ar
     3     2     3 ar
     4     3     4 ar
     5     4     5 ar
     6     4    21 1
     7     5     6 ar
     8     5     9 1
     9     6     7 ar
    10     6     8 1
    11     9    10 1
    12     9    20 1
    13    10    11 1
    14    11    12 1
    15    12    13 1
    16    13    18 ar
    17    13    14 ar
    18    14    15 ar
    19    15    16 ar
    20    16    17 ar
    21    16    19 1
    22    17    18 ar

@<TRIPOS>MOLECULE
ZINC21226550_replica-1.pdb
 31 34 0 0 0
SMALL
GASTEIGER

@<TRIPOS>ATOM
       1  C1         15.3390   33.6990   64.5980  C.3       1 <0>        -0.1497
       2  C2         14.9120   32.9150   63.3560  C.3       1 <0>        -0.0952
       3  C3         13.8940   31.8440   63.7530  C.3       1 <0>        -0.1492
       4  C4         14.2770   33.8710   62.3430  C.3       1 <0>         0.0611
       5  O1         13.3900   34.7640   63.0210  O.3       1 <0>        -0.3121
       6  C5         12.2180   35.0580   62.4000  C.ar      1 <0>         0.1348
       7  C6         11.6090   34.1170   61.5810  C.ar      1 <0>        -0.2065
       8  C7         10.4150   34.4170   60.9560  C.ar      1 <0>        -0.0716
       9  C8          9.8310   35.6570   61.1360  C.ar      1 <0>        -0.1240
      10  C9         10.4370   36.5980   61.9470  C.ar      1 <0>        -0.0689
      11  C10        11.6300   36.3010   62.5800  C.ar      1 <0>        -0.1500
      12  C11         8.5310   35.9830   60.4470  C.3       1 <0>        -0.0293
      13  C12         7.7570   34.6920   60.1700  C.3       1 <0>        -0.0964
      14  C13         6.4800   35.0140   59.4360  C.2       1 <0>         0.2326
      15  C14         6.4080   36.0750   58.6040  C.2       1 <0>        -0.2792
      16  C15         5.1200   36.3750   57.8750  C.3       1 <0>         0.0055
      17  C16         3.9340   36.0150   58.7720  C.3       1 <0>        -0.1378
      18  C17         4.1460   34.6360   59.3420  C.2       1 <0>         0.5248
      19  O2          3.1950   33.9120   59.5420  O.2       1 <0>        -0.5016
      20  N1          5.3880   34.2080   59.6290  N.am      1 <0>        -0.6762
      21  C18         5.0580   35.5600   56.6080  C.ar      1 <0>        -0.0839
      22  C19         5.9550   34.5290   56.4060  C.ar      1 <0>        -0.1339
      23  C20         5.8960   33.7780   55.2450  C.ar      1 <0>         0.0931
      24  C21         4.9420   34.0660   54.2820  C.ar      1 <0>        -0.1244
      25  C22         4.0480   35.1000   54.4820  C.ar      1 <0>        -0.1212
      26  C23         4.1060   35.8490   55.6460  C.ar      1 <0>         0.1050
      27  F1          3.2320   36.8600   55.8420  F         1 <0>        -0.1243
      28  F2          6.7700   32.7670   55.0480  F         1 <0>        -0.1335
      29  C24         7.5130   36.9190   58.3970  C.2       1 <0>         0.4055
      30  O3          7.4150   37.8550   57.6310  O.2       1 <0>        -0.4608
      31  C25         8.8160   36.6790   59.1130  C.3       1 <0>        -0.1609
@<TRIPOS>BOND
     1     1     2 1
     2     2     3 1
     3     2     4 1
     4     4     5 1
     5     5     6 1
     6     6    11 ar
     7     6     7 ar
     8     7     8 ar
     9     8     9 ar
    10     9    10 ar
    11     9    12 1
    12    10    11 ar
    13    12    31 1
    14    12    13 1
    15    13    14 1
    16    14    20 1
    17    14    15 2
    18    15    16 1
    19    15    29 1
    20    16    17 1
    21    16    21 1
    22    17    18 1
    23    18    19 2
    24    18    20 am
    25    21    26 ar
    26    21    22 ar
    27    22    23 ar
    28    23    24 ar
    29    23    28 1
    30    24    25 ar
    31    25    26 ar
    32    26    27 1
    33    29    30 2
    34    29    31 1

@<TRIPOS>MOLECULE
ZINC11822208_replica-1.pdb
 22 23 0 0 0
SMALL
GASTEIGER

@<TRIPOS>ATOM
       1  C1         -2.6880   27.3330   60.7580  C.3       1 <0>        -0.1445
       2  C2         -1.8570   26.8530   59.5650  C.3       1 <0>        -0.0527
       3  C3         -2.4250   25.5290   59.0490  C.3       1 <0>        -0.1451
       4  C4         -1.9110   27.8840   58.4680  C.ar      1 <0>        -0.1173
       5  C5         -2.8640   27.7820   57.4700  C.ar      1 <0>        -0.0781
       6  C6         -2.9150   28.7270   56.4640  C.ar      1 <0>        -0.1479
       7  C7         -2.0090   29.7770   56.4530  C.ar      1 <0>         0.1337
       8  C8         -1.0510   29.8750   57.4510  C.ar      1 <0>        -0.2085
       9  C9         -1.0080   28.9310   58.4600  C.ar      1 <0>        -0.0744
      10  O1         -2.0570   30.7080   55.4630  O.3       1 <0>        -0.2995
      11  C10        -3.0940   30.5680   54.4900  C.3       1 <0>         0.0693
      12  C11        -2.4720   30.3190   53.1150  C.3       1 <0>         0.0327
      13  O2         -1.2520   29.5920   53.2680  O.3       1 <0>        -0.2214
      14  C12        -1.1940   28.3590   52.7050  C.ar      1 <0>         0.2006
      15  C13        -1.9070   28.0890   51.5480  C.ar      1 <0>        -0.2220
      16  C14        -1.8440   26.8350   50.9720  C.ar      1 <0>        -0.0370
      17  C15        -1.0770   25.8370   51.5500  C.ar      1 <0>        -0.1686
      18  C16        -0.3660   26.0860   52.7030  C.ar      1 <0>        -0.0463
      19  C17        -0.4170   27.3520   53.2930  C.ar      1 <0>        -0.1574
      20  C18         0.3420   27.6260   54.5270  C.2       1 <0>         0.3805
      21  S1          0.3630   26.4710   55.7920  S.2       1 <0>        -0.4995
      22  N1          1.0160   28.7840   54.6600  N.pl3     1 <0>        -0.7756
@<TRIPOS>BOND
     1     1     2 1
     2     2     3 1
     3     2     4 1
     4     4     9 ar
     5     4     5 ar
     6     5     6 ar
     7     6     7 ar
     8     7     8 ar
     9     7    10 1
    10     8     9 ar
    11    10    11 1
    12    11    12 1
    13    12    13 1
    14    13    14 1
    15    14    19 ar
    16    14    15 ar
    17    15    16 ar
    18    16    17 ar
    19    17    18 ar
    20    18    19 ar
    21    19    20 1
    22    20    21 2
    23    20    22 1

@<TRIPOS>MOLECULE
ZINC12932212_replica-1.pdb
 28 30 0 0 0
SMALL
GASTEIGER

@<TRIPOS>ATOM
       1  C1         -0.9840   26.7200   57.6370  C.ar      1 <0>        -0.1166
       2  C2         -1.8690   27.7040   58.0360  C.ar      1 <0>        -0.1144
       3  C3         -1.4210   28.9970   58.2370  C.ar      1 <0>        -0.1077
       4  C4         -0.0880   29.3050   58.0390  C.ar      1 <0>        -0.0695
       5  C5          0.7960   28.3210   57.6350  C.ar      1 <0>        -0.1035
       6  C6          0.3500   27.0280   57.4390  C.ar      1 <0>        -0.1120
       7  C7          0.4000   30.7130   58.2580  C.3       1 <0>        -0.0910
       8  C8         -0.3790   31.6710   57.3540  C.3       1 <0>         0.1558
       9  C9          0.0690   33.0850   57.6140  C.2       1 <0>         0.5152
      10  O1          0.2060   33.4780   58.7530  O.2       1 <0>        -0.5247
      11  N1          0.3200   33.9140   56.5810  N.am      1 <0>        -0.7210
      12  C10         0.7570   35.2890   56.8340  C.3       1 <0>         0.2082
      13  C11         2.2620   35.3370   56.8820  C.2       1 <0>        -0.1808
      14  C12         3.0700   35.8540   57.8410  C.2       1 <0>        -0.1273
      15  C13         4.4400   35.7820   57.6720  C.2       1 <0>        -0.1648
      16  C14         4.9360   35.2070   56.5490  C.2       1 <0>        -0.1599
      17  S1          3.4450   34.7360   55.6880  S.3       1 <0>         0.0546
      18  N2         -0.1290   31.3290   55.9510  N.am      1 <0>        -0.6958
      19  C15        -1.1580   31.0180   55.1390  C.2       1 <0>         0.6517
      20  O2         -2.2940   31.0160   55.5710  O.2       1 <0>        -0.5516
      21  O3         -0.9280   30.7100   53.8480  O.3       1 <0>        -0.3633
      22  C16        -1.9050   29.8620   53.1890  C.3       1 <0>         0.1336
      23  C17        -1.3220   28.4870   52.9870  C.ar      1 <0>        -0.1011
      24  C18        -0.5760   27.8990   53.9920  C.ar      1 <0>        -0.0932
      25  C19        -0.0450   26.6360   53.8090  C.ar      1 <0>        -0.1231
      26  C20        -0.2520   25.9640   52.6180  C.ar      1 <0>        -0.1073
      27  C21        -0.9930   26.5550   51.6110  C.ar      1 <0>        -0.1237
      28  C22        -1.5280   27.8160   51.7960  C.ar      1 <0>        -0.0928
@<TRIPOS>BOND
     1     1     6 ar
     2     1     2 ar
     3     2     3 ar
     4     3     4 ar
     5     4     5 ar
     6     4     7 1
     7     5     6 ar
     8     7     8 1
     9     8     9 1
    10     8    18 1
    11     9    10 2
    12     9    11 am
    13    11    12 1
    14    12    13 1
    15    13    17 1
    16    13    14 2
    17    14    15 1
    18    15    16 2
    19    16    17 1
    20    18    19 am
    21    19    20 2
    22    19    21 1
    23    21    22 1
    24    22    23 1
    25    23    28 ar
    26    23    24 ar
    27    24    25 ar
    28    25    26 ar
    29    26    27 ar
    30    27    28 ar

@<TRIPOS>MOLECULE
ZINC00132961_replica-1.pdb
 20 21 0 0 0
SMALL
GASTEIGER

@<TRIPOS>ATOM
      1  C8        11.2590   35.7900   62.2200 C.3     0  <0>0        0.2805
      2  O2        12.3290   34.9800   61.7310 O.3     0  <0>0       -0.4665
      3  C5        12.5280   33.7820   62.3450 C.ar    0  <0>0        0.1394
      4  C4        11.4680   32.9050   62.5160 C.ar    0  <0>0        0.0400
      5  C3        11.6700   31.6900   63.1400 C.ar    0  <0>0        0.0400
      6  C2        12.9350   31.3470   63.5960 C.ar    0  <0>0        0.1389
      7  C7        13.9950   32.2240   63.4250 C.ar    0  <0>0        0.0400
      8  C6        13.7930   33.4400   62.8010 C.ar    0  <0>0        0.0400
      9  O1        13.1350   30.1490   64.2100 O.3     0  <0>0       -0.4714
     10  C1        12.0420   29.2300   64.2070 C.3     0  <0>0        0.2525
     11  C9        10.2410   35.9930   61.1280 C.2     0  <0>0        0.2467
     12  O3        10.4320   35.5220   60.0270 O.2     0  <0>0       -0.2802
     13  S1         8.8160   36.8880   61.4410 S.3     0  <0>0       -0.0465
     14  C10        8.3180   37.2590   59.7920 C.ar    0  <0>0        0.0323
     15  C15        8.8760   38.3400   59.1240 C.ar    0  <0>0        0.0074
     16  C14        8.4840   38.6290   57.8310 C.ar    0  <0>0        0.0119
     17  C13        7.5360   37.8420   57.2020 C.ar    0  <0>0        0.0577
     18  C12        6.9780   36.7630   57.8670 C.ar    0  <0>0        0.0119
     19 Cl          7.0450   38.2070   55.5780 Cl      0  <0>0       -0.0822
     20  C11        7.3700   36.4670   59.1560 C.ar    0  <0>0        0.0074
@<TRIPOS>BOND
     1    19    17    1
     2    17    16   ar
     3    17    18   ar
     4    16    15   ar
     5    18    20   ar
     6    15    14   ar
     7    20    14   ar
     8    14    13    1
     9    12    11    2
    10    11    13    1
    11    11     1    1
    12     2     1    1
    13     2     3    1
    14     3     4   ar
    15     3     8   ar
    16     4     5   ar
    17     8     7   ar
    18     5     6   ar
    19     7     6   ar
    20     6     9    1
    21    10     9    1


@<TRIPOS>MOLECULE
ZINC04109646_replica-1.pdb
 26 28 0 0 0
SMALL
GASTEIGER

@<TRIPOS>ATOM
       1  C1         13.3520   31.2100   63.5340  C.3       1 <0>        -0.1457
       2  C2         13.4410   32.7370   63.5580  C.3       1 <0>        -0.0616
       3  C3         14.8000   33.1770   63.0130  C.3       1 <0>        -0.1457
       4  C4         12.3440   33.3170   62.7020  C.ar      1 <0>        -0.0582
       5  C5         12.4100   34.6400   62.3020  C.ar      1 <0>        -0.1218
       6  C6         11.4110   35.1770   61.5180  C.ar      1 <0>        -0.0863
       7  C7         10.3290   34.3820   61.1290  C.ar      1 <0>        -0.0894
       8  C8         10.2670   33.0480   61.5420  C.ar      1 <0>        -0.0940
       9  C9         11.2770   32.5240   62.3210  C.ar      1 <0>        -0.1183
      10  C10         9.2580   34.9490   60.2920  C.2       1 <0>         0.0028
      11  C11         9.5380   35.9360   59.4170  C.2       1 <0>        -0.2177
      12  C12         8.4740   36.5000   58.5840  C.2       1 <0>         0.5523
      13  O1          8.6660   37.5310   57.9680  O.2       1 <0>        -0.5456
      14  N1          7.2810   35.8780   58.5030  N.am      1 <0>        -0.5186
      15  N2          6.2610   36.4210   57.7100  N.am      1 <0>        -0.5205
      16  C13         5.8580   35.7790   56.5960  C.2       1 <0>         0.5376
      17  O2          6.3810   34.7310   56.2780  O.2       1 <0>        -0.5143
      18  C14         4.7610   36.3630   55.7450  C.3       1 <0>        -0.1785
      19  C15         4.0070   35.4120   54.8130  C.3       1 <0>        -0.1446
      20  C16         3.3220   35.9540   56.0690  C.3       1 <0>        -0.0733
      21  C17         3.1120   34.9980   57.2140  C.ar      1 <0>        -0.0538
      22  C18         2.8980   35.4840   58.4910  C.ar      1 <0>        -0.0563
      23  C19         2.7000   34.6070   59.5410  C.ar      1 <0>        -0.1267
      24  C20         2.7260   33.2440   59.3160  C.ar      1 <0>        -0.1174
      25  C21         2.9460   32.7570   58.0420  C.ar      1 <0>        -0.1291
      26  C22         3.1390   33.6340   56.9900  C.ar      1 <0>        -0.1094
@<TRIPOS>BOND
     1     1     2 1
     2     2     3 1
     3     2     4 1
     4     4     9 ar
     5     4     5 ar
     6     5     6 ar
     7     6     7 ar
     8     7     8 ar
     9     7    10 1
    10     8     9 ar
    11    10    11 2
    12    11    12 1
    13    12    13 2
    14    12    14 am
    15    14    15 1
    16    15    16 am
    17    16    17 2
    18    16    18 1
    19    18    20 1
    20    18    19 1
    21    19    20 1
    22    20    21 1
    23    21    26 ar
    24    21    22 ar
    25    22    23 ar
    26    23    24 ar
    27    24    25 ar
    28    25    26 ar

@<TRIPOS>MOLECULE
ZINC00491581_replica-1.pdb
 24 25 0 0 0
SMALL
GASTEIGER

@<TRIPOS>ATOM
       1  C1          1.9140   30.5050   59.5900  C.3       1 <0>        -0.1181
       2  C2          1.0970   31.1060   60.7050  C.ar      1 <0>        -0.0914
       3  C3          0.6420   30.3080   61.7360  C.ar      1 <0>        -0.1161
       4  C4         -0.1110   30.8570   62.7580  C.ar      1 <0>        -0.1103
       5  C5         -0.4070   32.2080   62.7520  C.ar      1 <0>        -0.1160
       6  C6          0.0510   33.0110   61.7250  C.ar      1 <0>        -0.0919
       7  C7          0.8080   32.4620   60.7000  C.ar      1 <0>         0.0824
       8  O1          1.2590   33.2510   59.6890  O.3       1 <0>        -0.3020
       9  C8          0.2820   33.7630   58.7800  C.3       1 <0>         0.0541
      10  C9          0.2670   32.9170   57.5330  C.2       1 <0>         0.5315
      11  O2          0.9880   33.2000   56.5990  O.2       1 <0>        -0.4743
      12  N1         -0.5480   31.8450   57.4540  N.am      1 <0>        -0.5846
      13  N2         -0.5620   31.0600   56.2950  N.2       1 <0>        -0.2271
      14  C10        -0.6030   29.7660   56.3880  C.2       1 <0>         0.1153
      15  C11        -0.6180   28.9390   55.1670  C.ar      1 <0>        -0.0655
      16  C12         0.1310   27.7610   55.1090  C.ar      1 <0>        -0.0736
      17  C13         0.1090   26.9890   53.9660  C.ar      1 <0>        -0.1203
      18  C14        -0.6450   27.3850   52.8750  C.ar      1 <0>        -0.0566
      19  C15        -1.3850   28.5520   52.9240  C.ar      1 <0>        -0.1236
      20  C16        -1.3760   29.3320   54.0620  C.ar      1 <0>        -0.0849
      21  C17        -0.6600   26.5390   51.6280  C.3       1 <0>        -0.0609
      22  C18        -0.6490   25.0580   52.0150  C.3       1 <0>        -0.1460
      23  C19        -1.9220   26.8440   50.8190  C.3       1 <0>        -0.1460
      24  C20        -0.2710   34.4830   61.7190  C.3       1 <0>        -0.1130
@<TRIPOS>BOND
     1     1     2 1
     2     2     7 ar
     3     2     3 ar
     4     3     4 ar
     5     4     5 ar
     6     5     6 ar
     7     6     7 ar
     8     6    24 1
     9     7     8 1
    10     8     9 1
    11     9    10 1
    12    10    11 2
    13    10    12 am
    14    12    13 1
    15    13    14 2
    16    14    15 1
    17    15    20 ar
    18    15    16 ar
    19    16    17 ar
    20    17    18 ar
    21    18    19 ar
    22    18    21 1
    23    19    20 ar
    24    21    22 1
    25    21    23 1

@<TRIPOS>MOLECULE
ZINC12401720_replica-1.pdb
 34 37 0 0 0
SMALL
GASTEIGER

@<TRIPOS>ATOM
       1  C1         11.9110   36.0310   63.3920  C.3       1 <0>        -0.1467
       2  C2         12.0800   35.0880   62.2000  C.3       1 <0>        -0.0634
       3  C3         11.8930   33.6420   62.6630  C.3       1 <0>        -0.1470
       4  C4         11.0500   35.4160   61.1500  C.ar      1 <0>        -0.0445
       5  C5         10.8240   34.5330   60.1080  C.ar      1 <0>        -0.1212
       6  C6          9.8830   34.8250   59.1440  C.ar      1 <0>        -0.0724
       7  C7          9.1550   36.0180   59.2200  C.ar      1 <0>        -0.1073
       8  C8          9.3930   36.9080   60.2740  C.ar      1 <0>        -0.0880
       9  C9         10.3340   36.5980   61.2340  C.ar      1 <0>        -0.1130
      10  C10         8.1500   36.3370   58.1970  C.2       1 <0>         0.0891
      11  C11         6.8710   35.9110   58.3470  C.2       1 <0>        -0.2284
      12  C12         5.6810   36.2320   57.5490  C.2       1 <0>         0.5583
      13  O1          5.7560   36.9820   56.5930  O.2       1 <0>        -0.4685
      14  N1          4.5030   35.6770   57.8990  N.am      1 <0>        -0.4987
      15  C13         4.4930   34.8360   58.9950  C.2       1 <0>         0.1201
      16  C14         3.3870   34.2060   59.4660  C.2       1 <0>        -0.0198
      17  C15         2.0700   34.4330   58.7490  C.3       1 <0>         0.0902
      18  C16         2.1240   35.3610   57.5530  C.2       1 <0>        -0.1982
      19  C17         3.3080   35.9130   57.2100  C.2       1 <0>         0.4666
      20  N2          3.3420   36.7530   56.1230  N.pl3     1 <0>        -0.8507
      21  C18         0.9400   35.6480   56.7990  C.1       1 <0>         0.2802
      22  N3          0.0010   35.8750   56.2020  N.1       1 <0>        -0.4233
      23  C19         1.5490   33.0970   58.2870  C.ar      1 <0>        -0.0952
      24  C20         0.4640   32.5210   58.9210  C.ar      1 <0>        -0.0936
      25  C21        -0.0170   31.2960   58.4940  C.ar      1 <0>        -0.1137
      26  C22         0.5940   30.6440   57.4400  C.ar      1 <0>        -0.0694
      27  C23         1.6830   31.2180   56.8090  C.ar      1 <0>        -0.1156
      28  C24         2.1600   32.4430   57.2330  C.ar      1 <0>        -0.1023
      29  C25         0.0740   29.3080   56.9770  C.3       1 <0>        -0.0590
      30  C26        -1.3150   29.0670   57.5730  C.3       1 <0>        -0.1447
      31  C27        -0.0200   29.2980   55.4500  C.3       1 <0>        -0.1445
      32  C28         3.4610   33.3490   60.6100  C.1       1 <0>         0.2589
      33  N4          3.5200   32.6690   61.5180  N.1       1 <0>        -0.3794
      34  S1          6.1790   34.8070   59.5690  S.3       1 <0>         0.0692
@<TRIPOS>BOND
     1     1     2 1
     2     2     3 1
     3     2     4 1
     4     4     9 ar
     5     4     5 ar
     6     5     6 ar
     7     6     7 ar
     8     7     8 ar
     9     7    10 1
    10     8     9 ar
    11    10    11 2
    12    11    34 1
    13    11    12 1
    14    12    13 2
    15    12    14 am
    16    14    19 1
    17    14    15 1
    18    15    16 2
    19    15    34 1
    20    16    17 1
    21    16    32 1
    22    17    18 1
    23    17    23 1
    24    18    19 2
    25    18    21 1
    26    19    20 1
    27    21    22 3
    28    23    28 ar
    29    23    24 ar
    30    24    25 ar
    31    25    26 ar
    32    26    27 ar
    33    26    29 1
    34    27    28 ar
    35    29    30 1
    36    29    31 1
    37    32    33 3

@<TRIPOS>MOLECULE
ZINC11049734_replica-1.pdb
 27 29 0 0 0
SMALL
GASTEIGER

@<TRIPOS>ATOM
       1  C1          1.1860   35.1610   58.9310  C.3       1 <0>        -0.1492
       2  C2          1.7200   35.4630   57.5290  C.3       1 <0>        -0.0982
       3  C3          3.1890   35.7860   57.6110  C.ar      1 <0>        -0.0449
       4  C4          3.9350   35.9130   56.4540  C.ar      1 <0>        -0.1070
       5  C5          5.2830   36.2110   56.5290  C.ar      1 <0>        -0.0786
       6  C6          5.8860   36.3810   57.7610  C.ar      1 <0>        -0.1474
       7  C7          5.1400   36.2500   58.9180  C.ar      1 <0>        -0.1164
       8  C8          3.7920   35.9580   58.8420  C.ar      1 <0>        -0.1051
       9  C9          7.3550   36.7050   57.8430  C.3       1 <0>         0.0849
      10  C10         7.5390   38.2210   57.9280  C.3       1 <0>        -0.1083
      11  C11         7.9150   38.6110   59.3580  C.3       1 <0>        -0.1498
      12  C12         8.6530   38.6530   56.9710  C.3       1 <0>        -0.1764
      13  C13         9.1330   35.3040   58.6990  C.3       1 <0>         0.1498
      14  C14         8.7360   33.8910   58.2670  C.3       1 <0>        -0.1801
      15  C15        10.0340   35.2260   59.9050  C.2       1 <0>         0.0802
      16  N1         10.2240   36.1670   60.7870  N.2       1 <0>        -0.2417
      17  N2         11.0540   35.7590   61.6810  N.2       1 <0>        -0.2699
      18  C16        11.4260   34.5320   61.3980  C.2       1 <0>         0.2726
      19  O1         10.7900   34.1740   60.2640  O.3       1 <0>        -0.2009
      20  C17        12.3700   33.7020   62.1740  C.ar      1 <0>        -0.0547
      21  C18        13.6950   34.1120   62.3370  C.ar      1 <0>        -0.0809
      22  C19        14.5700   33.3350   63.0680  C.ar      1 <0>        -0.1148
      23  C20        14.1400   32.1460   63.6290  C.ar      1 <0>        -0.0763
      24  C21        12.8280   31.7330   63.4720  C.ar      1 <0>        -0.0818
      25  C22        11.9420   32.5040   62.7490  C.ar      1 <0>        -0.0573
      26  C23        12.3680   30.4400   64.0930  C.3       1 <0>        -0.1219
      27  N3          7.9240   36.0710   59.0470  N.4       1 <0>        -0.5167
@<TRIPOS>BOND
     1     1     2 1
     2     2     3 1
     3     3     8 ar
     4     3     4 ar
     5     4     5 ar
     6     5     6 ar
     7     6     7 ar
     8     6     9 1
     9     7     8 ar
    10     9    10 1
    11     9    27 1
    12    10    11 1
    13    10    12 1
    14    13    14 1
    15    13    15 1
    16    13    27 1
    17    15    19 1
    18    15    16 2
    19    16    17 1
    20    17    18 2
    21    18    19 1
    22    18    20 1
    23    20    25 ar
    24    20    21 ar
    25    21    22 ar
    26    22    23 ar
    27    23    24 ar
    28    24    25 ar
    29    24    26 1

@<TRIPOS>MOLECULE
ZINC20559479_replica-1.pdb
 21 22 0 0 0
SMALL
GASTEIGER

@<TRIPOS>ATOM
       1  C1         -3.0930   30.7560   52.8550  C.3       1 <0>        -0.1711
       2  C2         -2.5620   29.6830   53.8080  C.3       1 <0>         0.1501
       3  C3         -2.4760   30.2570   55.2230  C.3       1 <0>        -0.1193
       4  C4         -2.6870   29.1350   56.2420  C.3       1 <0>        -0.0810
       5  C5         -1.7460   29.3260   57.4030  C.ar      1 <0>        -0.0820
       6  C6         -0.7660   30.3010   57.3450  C.ar      1 <0>        -0.1186
       7  C7          0.0970   30.4770   58.4100  C.ar      1 <0>        -0.1178
       8  C8         -0.0180   29.6790   59.5320  C.ar      1 <0>        -0.1252
       9  C9         -0.9980   28.7040   59.5900  C.ar      1 <0>        -0.1176
      10  C10        -1.8610   28.5280   58.5250  C.ar      1 <0>        -0.1179
      11  N1         -1.2290   29.2590   53.3710  N.pl3     1 <0>        -0.7462
      12  C11        -1.0480   27.9890   52.8100  C.ar      1 <0>         0.2596
      13  C12        -1.6900   27.6540   51.6270  C.ar      1 <0>        -0.1906
      14  C13        -1.5090   26.3980   51.0750  C.ar      1 <0>        -0.0613
      15  C14        -0.6880   25.4760   51.6970  C.ar      1 <0>        -0.1639
      16  C15        -0.0430   25.8030   52.8750  C.ar      1 <0>        -0.0709
      17  C16        -0.2150   27.0600   53.4350  C.ar      1 <0>        -0.1777
      18  S1          0.6120   27.4810   54.9330  S.3       1 <0>        -0.0768
      19  C17         0.0730   26.2060   56.1050  C.3       1 <0>         0.2631
      20  F1          0.6390   24.9770   55.7490  F         1 <0>        -0.1934
      21  F2          0.4870   26.5540   57.3950  F         1 <0>        -0.1935
@<TRIPOS>BOND
     1     1     2 1
     2     2     3 1
     3     2    11 1
     4     3     4 1
     5     4     5 1
     6     5    10 ar
     7     5     6 ar
     8     6     7 ar
     9     7     8 ar
    10     8     9 ar
    11     9    10 ar
    12    11    12 1
    13    12    17 ar
    14    12    13 ar
    15    13    14 ar
    16    14    15 ar
    17    15    16 ar
    18    16    17 ar
    19    17    18 1
    20    18    19 1
    21    19    20 1
    22    19    21 1

@<TRIPOS>MOLECULE
ZINC27530289_replica-1.pdb
 28 30 0 0 0
SMALL
GASTEIGER

@<TRIPOS>ATOM
       1  C1         14.1720   34.2060   61.8690  C.3       1 <0>        -0.1437
       2  C2         13.0540   33.7750   62.8210  C.3       1 <0>        -0.0368
       3  C3         12.9490   34.7790   63.9710  C.3       1 <0>        -0.1490
       4  C4         13.3680   32.3870   63.3820  C.3       1 <0>        -0.1443
       5  C5         11.7470   33.7310   62.0730  C.ar      1 <0>        -0.0284
       6  C6         10.9500   32.6020   62.1440  C.ar      1 <0>        -0.1184
       7  C7          9.7520   32.5540   61.4630  C.ar      1 <0>        -0.0500
       8  C8          9.3440   33.6490   60.7000  C.ar      1 <0>        -0.1534
       9  C9         10.1520   34.7850   60.6320  C.ar      1 <0>        -0.0860
      10  C10        11.3480   34.8190   61.3180  C.ar      1 <0>        -0.1284
      11  C11         8.0610   33.6060   59.9650  C.2       1 <0>         0.5726
      12  O1          7.1040   33.0330   60.4480  O.2       1 <0>        -0.5133
      13  N1          7.9530   34.2020   58.7620  N.am      1 <0>        -0.7600
      14  C12         6.6820   34.1600   58.0350  C.3       1 <0>         0.1038
      15  C13         5.9410   35.4850   58.2240  C.3       1 <0>         0.0781
      16  C14         4.4980   35.2110   58.5570  C.ar      1 <0>        -0.1917
      17  C15         3.5130   36.0840   58.1320  C.ar      1 <0>        -0.0466
      18  C16         2.1890   35.8320   58.4320  C.ar      1 <0>        -0.2049
      19  C17         1.8470   34.7080   59.1710  C.ar      1 <0>         0.1698
      20  C18         2.8370   33.8370   59.6010  C.ar      1 <0>        -0.1446
      21  C19         4.1600   34.0900   59.2940  C.ar      1 <0>        -0.0624
      22  O2          0.5450   34.4620   59.4730  O.3       1 <0>        -0.3054
      23  C20         0.2330   34.2150   60.8450  C.3       1 <0>         0.0168
      24  N2          6.0170   36.2680   56.9830  N.4       1 <0>        -0.4075
      25  C21         6.9770   37.3940   57.1230  C.3       1 <0>        -0.0236
      26  C22         7.3200   37.7500   55.6540  C.3       1 <0>        -0.1396
      27  C23         7.3610   36.3690   54.9630  C.3       1 <0>        -0.1387
      28  C24         6.5250   35.4420   55.8660  C.3       1 <0>        -0.0064
@<TRIPOS>BOND
     1     1     2 1
     2     2     3 1
     3     2     4 1
     4     2     5 1
     5     5    10 ar
     6     5     6 ar
     7     6     7 ar
     8     7     8 ar
     9     8     9 ar
    10     8    11 1
    11     9    10 ar
    12    11    12 2
    13    11    13 am
    14    13    14 1
    15    14    15 1
    16    15    16 1
    17    15    24 1
    18    16    21 ar
    19    16    17 ar
    20    17    18 ar
    21    18    19 ar
    22    19    20 ar
    23    19    22 1
    24    20    21 ar
    25    22    23 1
    26    24    28 1
    27    24    25 1
    28    25    26 1
    29    26    27 1
    30    27    28 1

@<TRIPOS>MOLECULE
ZINC06534166_replica-1.pdb
 26 28 0 0 0
SMALL
GASTEIGER

@<TRIPOS>ATOM
       1  C1          6.3800   36.8470   55.6130  C.ar      1 <0>        -0.1507
       2  C2          7.7030   36.6670   55.2520  C.ar      1 <0>        -0.0807
       3  C3          8.4670   35.7060   55.8840  C.ar      1 <0>        -0.1654
       4  C4          7.9060   34.9210   56.8840  C.ar      1 <0>         0.1681
       5  C5          6.5760   35.1050   57.2430  C.ar      1 <0>        -0.1662
       6  C6          5.8180   36.0680   56.6070  C.ar      1 <0>        -0.0783
       7  N1          8.6760   33.9480   57.5250  N.pl3     1 <0>        -0.6498
       8  C7          8.8930   34.0260   58.8780  C.2       1 <0>         0.1844
       9  C8          9.8770   34.8120   59.3590  C.2       1 <0>        -0.3230
      10  C9         10.0170   35.0090   60.8000  C.2       1 <0>         0.2858
      11  N2          9.2900   35.9220   61.4150  N.2       1 <0>        -0.4869
      12  C10         8.5300   36.7930   60.6880  C.ar      1 <0>         0.0966
      13  C11         7.1350   36.7530   60.7800  C.ar      1 <0>        -0.1371
      14  C12         6.3750   37.6360   60.0440  C.ar      1 <0>        -0.0976
      15  C13         6.9880   38.5590   59.2140  C.ar      1 <0>        -0.1279
      16  C14         8.3680   38.6030   59.1170  C.ar      1 <0>        -0.0989
      17  C15         9.1420   37.7310   59.8530  C.ar      1 <0>        -0.1385
      18  C16        10.9750   34.1840   61.5710  C.ar      1 <0>        -0.0055
      19  C17        12.2190   34.7040   61.9260  C.ar      1 <0>        -0.0864
      20  C18        13.1080   33.9300   62.6440  C.ar      1 <0>        -0.0603
      21  C19        12.7660   32.6400   63.0110  C.ar      1 <0>        -0.0368
      22  C20        11.5340   32.1180   62.6610  C.ar      1 <0>        -0.0603
      23  C21        10.6350   32.8850   61.9490  C.ar      1 <0>        -0.0742
      24  N3         13.7250   31.8150   63.7800  N.pl3     1 <0>         0.0304
      25  O1         14.7750   32.2890   64.1450  O.2       1 <0>        -0.1554
      26  O2         13.4560   30.6660   64.0460  O.3       1 <0>        -0.1545
@<TRIPOS>BOND
     1     1     6 ar
     2     1     2 ar
     3     2     3 ar
     4     3     4 ar
     5     4     5 ar
     6     4     7 1
     7     5     6 ar
     8     7     8 1
     9     8     9 2
    10     9    10 1
    11    10    11 2
    12    10    18 1
    13    11    12 1
    14    12    17 ar
    15    12    13 ar
    16    13    14 ar
    17    14    15 ar
    18    15    16 ar
    19    16    17 ar
    20    18    23 ar
    21    18    19 ar
    22    19    20 ar
    23    20    21 ar
    24    21    22 ar
    25    21    24 1
    26    22    23 ar
    27    24    25 2
    28    24    26 1

@<TRIPOS>MOLECULE
ZINC22018010_replica-1.pdb
 29 32 0 0 0
SMALL
GASTEIGER

@<TRIPOS>ATOM
       1  C1          0.5450   22.5210   55.9130  C.ar      1 <0>        -0.1246
       2  C2          0.0310   22.3880   57.1900  C.ar      1 <0>        -0.1238
       3  C3         -0.3270   23.5120   57.9100  C.ar      1 <0>        -0.1003
       4  C4         -0.1710   24.7680   57.3540  C.ar      1 <0>        -0.0620
       5  C5          0.3380   24.9000   56.0760  C.ar      1 <0>        -0.1037
       6  C6          0.7010   23.7770   55.3580  C.ar      1 <0>        -0.1183
       7  C7         -0.5630   25.9940   58.1400  C.3       1 <0>         0.0638
       8  N1         -1.2060   26.9600   57.2470  N.2       1 <0>        -0.4628
       9  C8         -1.4220   28.1700   57.6510  C.2       1 <0>         0.2249
      10  C9         -1.9640   29.1990   56.6930  C.3       1 <0>        -0.0443
      11  C10        -0.8780   29.5770   55.6840  C.3       1 <0>        -0.0574
      12  C11        -1.4150   29.4180   54.2840  C.2       1 <0>        -0.1141
      13  C12        -2.2030   30.2850   53.6290  C.2       1 <0>         0.0363
      14  N2         -2.4890   29.8030   52.3800  N.pl3     1 <0>        -0.6096
      15  C13        -1.8770   28.5840   52.1980  C.ar      1 <0>         0.1069
      16  C14        -1.1730   28.2910   53.3800  C.ar      1 <0>        -0.0966
      17  C15        -0.4440   27.1050   53.4820  C.ar      1 <0>        -0.0588
      18  C16        -0.4150   26.2340   52.4310  C.ar      1 <0>        -0.1611
      19  C17        -1.1050   26.5190   51.2610  C.ar      1 <0>        -0.1081
      20  C18        -1.8360   27.6810   51.1410  C.ar      1 <0>        -0.1385
      21  C19        -0.4660   31.0100   55.9030  C.2       1 <0>         0.4649
      22  O1          0.5050   31.4530   55.3350  O.co2     1 <0>        -0.6127
      23  O2         -1.1750   31.7940   56.7290  O.co2     1 <0>        -0.7705
      24  C20        -1.1390   28.5410   59.0510  C.ar      1 <0>        -0.0875
      25  C21        -0.0440   29.3530   59.3540  C.ar      1 <0>        -0.0909
      26  C22         0.2110   29.7000   60.6650  C.ar      1 <0>        -0.1192
      27  C23        -0.6070   29.2360   61.6790  C.ar      1 <0>        -0.1207
      28  C24        -1.6910   28.4270   61.3870  C.ar      1 <0>        -0.1235
      29  C25        -1.9610   28.0770   60.0800  C.ar      1 <0>        -0.1052
@<TRIPOS>BOND
     1     1     6 ar
     2     1     2 ar
     3     2     3 ar
     4     3     4 ar
     5     4     5 ar
     6     4     7 1
     7     5     6 ar
     8     7     8 1
     9     8     9 2
    10     9    10 1
    11     9    24 1
    12    10    11 1
    13    11    12 1
    14    11    21 1
    15    12    16 1
    16    12    13 2
    17    13    14 1
    18    14    15 1
    19    15    20 ar
    20    15    16 ar
    21    16    17 ar
    22    17    18 ar
    23    18    19 ar
    24    19    20 ar
    25    21    22 2
    26    21    23 1
    27    24    29 ar
    28    24    25 ar
    29    25    26 ar
    30    26    27 ar
    31    27    28 ar
    32    28    29 ar

@<TRIPOS>MOLECULE
ZINC05222490_replica-1.pdb
 26 27 0 0 0
SMALL
GASTEIGER

@<TRIPOS>ATOM
       1  C1          8.5220   36.8920   61.5500  C.3       1 <0>        -0.1553
       2  C2          7.9680   35.7460   60.7440  C.2       1 <0>         0.1308
       3  N1          8.6890   34.6780   60.5500  N.2       1 <0>        -0.2384
       4  N2          9.9790   34.5950   61.0900  N.am      1 <0>        -0.5807
       5  C3         10.4240   33.4280   61.5950  C.2       1 <0>         0.5802
       6  O1          9.7050   32.4460   61.5830  O.2       1 <0>        -0.5019
       7  C4         11.7820   33.3400   62.1640  C.ar      1 <0>        -0.1748
       8  C5         12.1820   32.1900   62.8500  C.ar      1 <0>        -0.0122
       9  C6         13.4520   32.1130   63.3780  C.ar      1 <0>        -0.1572
      10  C7         14.3340   33.1760   63.2300  C.ar      1 <0>         0.1625
      11  C8         13.9400   34.3230   62.5500  C.ar      1 <0>        -0.2173
      12  C9         12.6720   34.4090   62.0190  C.ar      1 <0>        -0.0438
      13  O2         15.5840   33.0960   63.7530  O.3       1 <0>        -0.3049
      14  C10        15.8490   33.8720   64.9240  C.3       1 <0>         0.0847
      15  C11        17.2930   34.3010   64.9260  C.2       1 <0>        -0.1625
      16  C12        17.7620   35.0270   63.9410  C.2       1 <0>        -0.1645
      17  C13         6.6630   35.8290   60.1970  C.2       1 <0>        -0.1429
      18  C14         5.8050   34.7980   60.3380  C.2       1 <0>        -0.0308
      19  C15         4.4510   34.8850   59.7700  C.ar      1 <0>        -0.1113
      20  C16         4.1330   35.9010   58.8630  C.ar      1 <0>        -0.0618
      21  C17         2.8650   35.9750   58.3310  C.ar      1 <0>        -0.2113
      22  C18         1.8980   35.0500   58.7020  C.ar      1 <0>         0.1374
      23  C19         2.2060   34.0420   59.6070  C.ar      1 <0>        -0.1537
      24  C20         3.4720   33.9550   60.1410  C.ar      1 <0>        -0.0550
      25  O3          0.6470   35.1310   58.1780  O.3       1 <0>        -0.3158
      26  C21         0.5250   35.7070   56.8770  C.3       1 <0>         0.0255
@<TRIPOS>BOND
     1     1     2 1
     2     2     3 2
     3     2    17 1
     4     3     4 1
     5     4     5 am
     6     5     6 2
     7     5     7 1
     8     7    12 ar
     9     7     8 ar
    10     8     9 ar
    11     9    10 ar
    12    10    11 ar
    13    10    13 1
    14    11    12 ar
    15    13    14 1
    16    14    15 1
    17    15    16 2
    18    17    18 2
    19    18    19 1
    20    19    24 ar
    21    19    20 ar
    22    20    21 ar
    23    21    22 ar
    24    22    23 ar
    25    22    25 1
    26    23    24 ar
    27    25    26 1

@<TRIPOS>MOLECULE
ZINC31809217_replica-1.pdb
 26 29 0 0 0
SMALL
GASTEIGER

@<TRIPOS>ATOM
       1  C1         -0.4710   24.8230   51.6520  C.3       1 <0>        -0.1145
       2  C2         -0.8500   26.2450   51.9770  C.ar      1 <0>        -0.0674
       3  C3         -1.6210   26.9740   51.0890  C.ar      1 <0>        -0.1364
       4  C4         -1.9710   28.2790   51.3830  C.ar      1 <0>        -0.0998
       5  C5         -1.5530   28.8590   52.5650  C.ar      1 <0>        -0.1358
       6  C6         -0.7790   28.1300   53.4580  C.ar      1 <0>         0.1578
       7  C7         -0.4240   26.8210   53.1570  C.ar      1 <0>        -0.1183
       8  C8          0.4210   26.0270   54.1210  C.3       1 <0>        -0.1119
       9  N1         -0.3530   28.7140   54.6560  N.am      1 <0>        -0.6704
      10  C9         -1.2520   29.0320   55.6070  C.2       1 <0>         0.6076
      11  O1         -2.4410   28.9050   55.3870  O.2       1 <0>        -0.5068
      12  C10        -0.7940   29.5330   56.9170  C.2       1 <0>         0.0148
      13  C11        -1.1510   29.0210   58.1870  C.2       1 <0>        -0.1483
      14  C12        -0.5000   29.7870   59.0890  C.2       1 <0>        -0.0200
      15  N2          0.2100   30.7110   58.3880  N.pl3     1 <0>        -0.2115
      16  N3          0.0210   30.5500   57.1270  N.2       1 <0>        -0.2452
      17  C13         1.0250   31.6990   58.9580  C.ar      1 <0>         0.0969
      18  C14         2.1940   31.3430   59.6160  C.ar      1 <0>        -0.1036
      19  C15         2.9910   32.3190   60.1820  C.ar      1 <0>        -0.1050
      20  C16         2.6310   33.6500   60.0880  C.ar      1 <0>        -0.0872
      21  C17         1.4700   34.0110   59.4280  C.ar      1 <0>        -0.1349
      22  C18         0.6670   33.0400   58.8600  C.ar      1 <0>         0.1118
      23  F1         -0.4680   33.3920   58.2160  F         1 <0>        -0.1141
      24  C19        -0.8140   29.3200   60.4920  C.3       1 <0>        -0.0455
      25  C20        -1.4030   27.9020   60.3200  C.3       1 <0>        -0.1098
      26  C21        -1.9680   27.9610   58.8840  C.3       1 <0>        -0.0454
@<TRIPOS>BOND
     1     1     2 1
     2     2     7 ar
     3     2     3 ar
     4     3     4 ar
     5     4     5 ar
     6     5     6 ar
     7     6     7 ar
     8     6     9 1
     9     7     8 1
    10     9    10 am
    11    10    11 2
    12    10    12 1
    13    12    16 2
    14    12    13 1
    15    13    26 1
    16    13    14 2
    17    14    15 1
    18    14    24 1
    19    15    16 1
    20    15    17 1
    21    17    22 ar
    22    17    18 ar
    23    18    19 ar
    24    19    20 ar
    25    20    21 ar
    26    21    22 ar
    27    22    23 1
    28    24    25 1
    29    25    26 1

@<TRIPOS>MOLECULE
ZINC00001462_replica-1.pdb
 21 23 0 0 0
SMALL
GASTEIGER

@<TRIPOS>ATOM
       1  C1         10.4350   36.4080   61.1870  C.ar      1 <0>        -0.1225
       2  C2         10.6820   35.1560   60.6520  C.ar      1 <0>        -0.1225
       3  C3         10.0490   34.7520   59.4930  C.ar      1 <0>        -0.0898
       4  C4          9.1590   35.6130   58.8450  C.ar      1 <0>        -0.1344
       5  C5          8.9080   36.8880   59.3890  C.ar      1 <0>        -0.1340
       6  C6          9.5570   37.2730   60.5650  C.ar      1 <0>        -0.0897
       7  C7          7.9410   37.6100   58.5440  C.2       1 <0>         0.4122
       8  O1          7.5140   38.7290   58.7340  O.3       1 <0>        -0.5054
       9  C8          7.5770   36.6980   57.3960  C.2       1 <0>        -0.5204
      10  C9          8.3700   35.4310   57.6140  C.2       1 <0>         0.4116
      11  O2          8.3580   34.4460   56.9080  O.2       1 <0>        -0.5050
      12  C10         6.1010   36.3980   57.4170  C.ar      1 <0>         0.0834
      13  C11         5.4650   36.1410   58.6180  C.ar      1 <0>        -0.1527
      14  C12         4.1090   35.8700   58.6360  C.ar      1 <0>        -0.0731
      15  C13         3.3910   35.8470   57.4550  C.ar      1 <0>        -0.2188
      16  C14         4.0290   36.0980   56.2550  C.ar      1 <0>        -0.0790
      17  C15         5.3830   36.3740   56.2360  C.ar      1 <0>        -0.1044
      18  C16         1.9150   35.5490   57.4770  C.3       1 <0>         0.5118
      19  F1          1.4380   35.6480   58.7890  F         1 <0>        -0.1832
      20  F2          1.2400   36.4680   56.6660  F         1 <0>        -0.1838
      21  F3          1.6940   34.2540   56.9970  F         1 <0>        -0.1824
@<TRIPOS>BOND
     1     1     6 ar
     2     1     2 ar
     3     2     3 ar
     4     3     4 ar
     5     4    10 1
     6     4     5 ar
     7     5     6 ar
     8     5     7 1
     9     7     8 1
    10     7     9 2
    11     9    10 1
    12     9    12 1
    13    10    11 2
    14    12    17 ar
    15    12    13 ar
    16    13    14 ar
    17    14    15 ar
    18    15    16 ar
    19    15    18 1
    20    16    17 ar
    21    18    19 1
    22    18    20 1
    23    18    21 1

@<TRIPOS>MOLECULE
ZINC40341102_replica-1.pdb
 27 30 0 0 0
SMALL
GASTEIGER

@<TRIPOS>ATOM
       1  C1         -0.5930   24.8340   51.4650  C.3       1 <0>        -0.1188
       2  C2         -0.5650   26.1090   52.2690  C.ar      1 <0>        -0.0752
       3  C3          0.1710   26.1700   53.4390  C.ar      1 <0>        -0.1198
       4  C4          0.2010   27.3340   54.1790  C.ar      1 <0>        -0.0857
       5  C5         -0.5110   28.4500   53.7460  C.ar      1 <0>        -0.0187
       6  C6         -1.2510   28.3840   52.5670  C.ar      1 <0>        -0.0905
       7  C7         -1.2700   27.2160   51.8320  C.ar      1 <0>        -0.1192
       8  C8         -0.4840   29.7050   54.5380  C.2       1 <0>         0.1178
       9  C9         -0.0610   29.8370   55.8650  C.2       1 <0>        -0.1719
      10  C10        -0.2120   31.1750   56.1770  C.2       1 <0>        -0.0609
      11  N1         -0.7080   31.7730   55.0530  N.pl3     1 <0>        -0.3335
      12  N2         -0.8500   30.9010   54.1190  N.2       1 <0>        -0.2439
      13  C11         0.2180   31.3820   57.5640  C.2       1 <0>         0.5980
      14  O1          0.2070   32.4520   58.1420  O.2       1 <0>        -0.5115
      15  N3          0.6250   30.2210   58.1070  N.am      1 <0>        -0.5951
      16  C12         0.4850   29.1650   57.0950  C.3       1 <0>         0.2517
      17  C13        -0.4740   28.1080   57.5770  C.ar      1 <0>        -0.1083
      18  C14        -0.0030   26.8560   57.9270  C.ar      1 <0>        -0.0649
      19  C15        -0.8810   25.8850   58.3690  C.ar      1 <0>        -0.1563
      20  C16        -2.2350   26.1660   58.4610  C.ar      1 <0>         0.1091
      21  C17        -2.7050   27.4200   58.1100  C.ar      1 <0>        -0.1512
      22  C18        -1.8240   28.3910   57.6730  C.ar      1 <0>        -0.0665
      23  F1         -3.0950   25.2180   58.8930  F         1 <0>        -0.1372
      24  C19         1.1240   30.0380   59.4720  C.3       1 <0>         0.1428
      25  C20        -0.0290   30.2140   60.4630  C.3       1 <0>        -0.1289
      26  C21        -0.3130   28.8790   61.1560  C.3       1 <0>        -0.1449
      27  C22         0.3530   31.2610   61.5100  C.3       1 <0>        -0.1452
@<TRIPOS>BOND
     1     1     2 1
     2     2     7 ar
     3     2     3 ar
     4     3     4 ar
     5     4     5 ar
     6     5     6 ar
     7     5     8 1
     8     6     7 ar
     9     8    12 2
    10     8     9 1
    11     9    16 1
    12     9    10 2
    13    10    11 1
    14    10    13 1
    15    11    12 1
    16    13    14 2
    17    13    15 am
    18    15    16 1
    19    15    24 1
    20    16    17 1
    21    17    22 ar
    22    17    18 ar
    23    18    19 ar
    24    19    20 ar
    25    20    21 ar
    26    20    23 1
    27    21    22 ar
    28    24    25 1
    29    25    26 1
    30    25    27 1

@<TRIPOS>MOLECULE
ZINC37543586_replica-1.pdb
 23 24 0 0 0
SMALL
GASTEIGER

@<TRIPOS>ATOM
      1  O1        -0.5820   31.0860   56.9560 O.3     0  <0>0       -0.4714
      2  C5         0.0600   32.0880   57.6120 C.ar    0  <0>0        0.1388
      3  C4         0.2880   33.2960   56.9760 C.ar    0  <0>0        0.0386
      4  C3         0.9480   34.3220   57.6530 C.ar    0  <0>0        0.0226
      5  C2         1.3740   34.1230   58.9690 C.ar    0  <0>0        0.0019
      6  C1         1.1420   32.9140   59.5920 C.ar    0  <0>0        0.0032
      7  C6         0.4880   31.8990   58.9200 C.ar    0  <0>0        0.0369
      8  C15        1.1940   35.6140   56.9820 C.2     0  <0>0        0.0781
      9  S1         2.7980   36.1540   56.7250 S.2     0  <0>0       -0.0352
     10  N1         0.1560   36.3700   56.5740 N.am    0  <0>0       -0.3517
     11  H12       -0.7540   36.0640   56.7200 H       0  <0>0        0.1428
     12  H13        0.3170   37.2180   56.1330 H       0  <0>0        0.1428
     13  C7        -0.7360   31.2300   55.5420 C.3     0  <0>0        0.2525
     14  C8        -0.1150   30.0230   54.8360 C.3     0  <0>0        0.2525
     15  O2        -1.0970   28.9950   54.6980 O.3     0  <0>0       -0.4697
     16  C9        -1.1790   28.3780   53.4890 C.ar    0  <0>0        0.1596
     17  C14       -1.9690   28.9190   52.4830 C.ar    0  <0>0        0.0924
     18  C13       -2.0440   28.2930   51.2530 C.ar    0  <0>0        0.0145
     19 Cl         -2.8540   30.3850   52.7680 Cl      0  <0>0       -0.0791
     20  C12       -1.3440   27.1210   51.0270 C.ar    0  <0>0        0.0019
     21  C11       -0.5620   26.5770   52.0290 C.ar    0  <0>0        0.0145
     22  C10       -0.4770   27.2030   53.2590 C.ar    0  <0>0        0.0924
     23 Cl          0.5060   26.5190   54.5150 Cl      0  <0>0       -0.0791
@<TRIPOS>BOND
     1    20    18   ar
     2    20    21   ar
     3    18    17   ar
     4    21    22   ar
     5    17    19    1
     6    17    16   ar
     7    22    16   ar
     8    22    23    1
     9    16    15    1
    10    15    14    1
    11    14    13    1
    12    13     1    1
    13    12    10    1
    14    10    11    1
    15    10     8    1
    16     9     8    2
    17     1     2    1
    18     3     2   ar
    19     3     4   ar
    20     8     4    1
    21     2     7   ar
    22     4     5   ar
    23     7     6   ar
    24     5     6   ar


@<TRIPOS>MOLECULE
ZINC58467303_replica-1.pdb
 25 26 0 0 0
SMALL
GASTEIGER

@<TRIPOS>ATOM
       1  C1         -2.0890   30.6990   55.9220  C.3       1 <0>        -0.1654
       2  C2         -0.5770   30.8570   55.7460  C.3       1 <0>         0.1599
       3  C3         -0.1260   30.0940   54.4990  C.3       1 <0>        -0.1211
       4  C4         -1.3490   29.7070   53.6670  C.3       1 <0>        -0.0797
       5  C5         -1.1190   28.3600   53.0310  C.ar      1 <0>        -0.0830
       6  C6         -1.6670   28.0770   51.7940  C.ar      1 <0>        -0.1180
       7  C7         -1.4550   26.8420   51.2100  C.ar      1 <0>        -0.1172
       8  C8         -0.6950   25.8900   51.8640  C.ar      1 <0>        -0.1250
       9  C9         -0.1460   26.1730   53.1010  C.ar      1 <0>        -0.1180
      10  C10        -0.3530   27.4100   53.6820  C.ar      1 <0>        -0.1187
      11  N1         -0.2500   32.2770   55.5950  N.am      1 <0>        -0.7396
      12  C11         0.1480   32.9950   56.6630  C.2       1 <0>         0.7054
      13  O1          0.2340   32.4640   57.7540  O.2       1 <0>        -0.5867
      14  N2          0.4500   34.3020   56.5240  N.am      1 <0>        -0.7448
      15  C12         0.8820   35.0810   57.6860  C.3       1 <0>         0.1769
      16  C13         2.3380   35.4410   57.5360  C.ar      1 <0>        -0.0777
      17  C14         3.1160   35.6570   58.6570  C.ar      1 <0>        -0.0999
      18  C15         4.4510   35.9870   58.5200  C.ar      1 <0>        -0.0712
      19  C16         5.0090   36.1000   57.2600  C.ar      1 <0>        -0.1744
      20  C17         4.2310   35.8830   56.1380  C.ar      1 <0>        -0.0712
      21  C18         2.8970   35.5490   56.2760  C.ar      1 <0>        -0.0999
      22  C19         6.4650   36.4610   57.1100  C.3       1 <0>         0.5070
      23  F1          6.6130   37.3740   56.0610  F         1 <0>        -0.1753
      24  F2          6.9270   37.0370   58.2980  F         1 <0>        -0.1756
      25  F3          7.2040   35.3070   56.8320  F         1 <0>        -0.1756
@<TRIPOS>BOND
     1     1     2 1
     2     2     3 1
     3     2    11 1
     4     3     4 1
     5     4     5 1
     6     5    10 ar
     7     5     6 ar
     8     6     7 ar
     9     7     8 ar
    10     8     9 ar
    11     9    10 ar
    12    11    12 am
    13    12    13 2
    14    12    14 am
    15    14    15 1
    16    15    16 1
    17    16    21 ar
    18    16    17 ar
    19    17    18 ar
    20    18    19 ar
    21    19    20 ar
    22    19    22 1
    23    20    21 ar
    24    22    23 1
    25    22    24 1
    26    22    25 1

@<TRIPOS>MOLECULE
ZINC14163870_replica-1.pdb
 30 34 0 0 0
SMALL
GASTEIGER

@<TRIPOS>ATOM
       1  C1          4.4900   31.1700   60.3960  C.3       1 <0>        -0.0812
       2  C2          5.1050   32.5250   60.1600  C.2       1 <0>         0.1480
       3  C3          4.4530   33.6280   59.5950  C.2       1 <0>        -0.1936
       4  C4          5.3740   34.6800   59.5550  C.2       1 <0>         0.2832
       5  N1          5.2770   35.9420   59.1190  N.2       1 <0>        -0.4637
       6  C5          6.2980   36.7610   59.1840  C.2       1 <0>         0.2289
       7  C6          7.5270   36.3110   59.7240  C.2       1 <0>        -0.2864
       8  C7          7.6340   35.0120   60.1800  C.2       1 <0>         0.2747
       9  N2          6.5440   34.2000   60.0880  N.pl3     1 <0>        -0.3179
      10  N3          6.3370   32.8640   60.4500  N.2       1 <0>        -0.3036
      11  C8          8.9090   34.4800   60.7700  C.3       1 <0>        -0.0885
      12  C9         10.1160   35.2900   60.3030  C.3       1 <0>        -0.0455
      13  C10         9.8790   36.7750   60.6080  C.3       1 <0>        -0.1492
      14  C11         8.6830   37.2190   59.7920  C.2       1 <0>         0.4218
      15  O1          8.6760   38.2870   59.2160  O.2       1 <0>        -0.4341
      16  C12        11.3500   34.8180   61.0270  C.2       1 <0>        -0.1516
      17  C13        11.2800   33.7840   61.8530  C.2       1 <0>        -0.0945
      18  C14        12.4910   33.3230   62.5640  C.ar      1 <0>        -0.0639
      19  C15        12.5500   32.0280   63.0810  C.ar      1 <0>        -0.1061
      20  C16        13.6840   31.6030   63.7420  C.ar      1 <0>        -0.1193
      21  C17        14.7620   32.4570   63.8920  C.ar      1 <0>        -0.1163
      22  C18        14.7100   33.7420   63.3820  C.ar      1 <0>        -0.1191
      23  C19        13.5820   34.1800   62.7210  C.ar      1 <0>        -0.1121
      24  C20         3.0470   33.6730   59.1260  C.ar      1 <0>        -0.0058
      25  C21         2.0360   34.0930   59.9880  C.ar      1 <0>        -0.0671
      26  C22         0.7290   34.1370   59.5470  C.ar      1 <0>        -0.1509
      27  C23         0.4210   33.7550   58.2510  C.ar      1 <0>         0.0990
      28  C24         1.4230   33.3320   57.3910  C.ar      1 <0>        -0.1515
      29  C25         2.7320   33.2890   57.8230  C.ar      1 <0>        -0.0758
      30  F1         -0.8590   33.7960   57.8230  F         1 <0>        -0.1396
@<TRIPOS>BOND
     1     1     2 1
     2     2    10 2
     3     2     3 1
     4     3     4 2
     5     3    24 1
     6     4     9 1
     7     4     5 1
     8     5     6 2
     9     6     7 1
    10     7    14 1
    11     7     8 2
    12     8     9 1
    13     8    11 1
    14     9    10 1
    15    11    12 1
    16    12    13 1
    17    12    16 1
    18    13    14 1
    19    14    15 2
    20    16    17 2
    21    17    18 1
    22    18    23 ar
    23    18    19 ar
    24    19    20 ar
    25    20    21 ar
    26    21    22 ar
    27    22    23 ar
    28    24    29 ar
    29    24    25 ar
    30    25    26 ar
    31    26    27 ar
    32    27    28 ar
    33    27    30 1
    34    28    29 ar

@<TRIPOS>MOLECULE
ZINC15232810_replica-1.pdb
 27 29 0 0 0
SMALL
GASTEIGER

@<TRIPOS>ATOM
       1  C1         -0.5670   25.0010   51.5150  C.3       1 <0>        -0.1185
       2  C2         -0.3680   25.9490   52.6690  C.ar      1 <0>        -0.0586
       3  C3          0.2920   25.5230   53.8070  C.ar      1 <0>        -0.1381
       4  C4          0.4780   26.3890   54.8680  C.ar      1 <0>        -0.0885
       5  C5          0.0050   27.6860   54.7940  C.ar      1 <0>        -0.1576
       6  C6         -0.6580   28.1170   53.6520  C.ar      1 <0>         0.1606
       7  C7         -0.8420   27.2430   52.5870  C.ar      1 <0>        -0.1220
       8  C8         -1.5610   27.7060   51.3470  C.3       1 <0>        -0.1174
       9  N1         -1.1370   29.4270   53.5740  N.pl3     1 <0>        -0.5984
      10  C9         -1.0360   30.2710   54.6740  C.2       1 <0>         0.3356
      11  N2         -1.9370   30.5530   55.5960  N.2       1 <0>        -0.3535
      12  N3         -1.6240   31.4240   56.6140  N.2       1 <0>        -0.2808
      13  C10        -0.4280   31.9810   56.6570  C.2       1 <0>         0.0380
      14  S1          0.3430   31.2690   55.2120  S.3       1 <0>         0.0202
      15  S2          0.2310   33.1210   57.8280  S.3       1 <0>         0.0870
      16  C11         1.8520   33.5640   57.1460  C.3       1 <0>        -0.1571
      17  C12         1.8000   34.9900   56.5910  C.3       1 <0>         0.1286
      18  C13         2.2910   35.9700   57.6580  C.3       1 <0>         0.0322
      19  O1          3.3250   35.3550   58.4290  O.3       1 <0>        -0.2985
      20  C14         4.5560   35.9280   58.3810  C.ar      1 <0>         0.1198
      21  C15         5.2830   35.9130   57.1990  C.ar      1 <0>        -0.1823
      22  C16         6.5320   36.5010   57.1490  C.ar      1 <0>        -0.1122
      23  C17         7.0630   37.0940   58.2810  C.ar      1 <0>         0.0612
      24  C18         6.3420   37.1050   59.4630  C.ar      1 <0>        -0.1118
      25  C19         5.0910   36.5230   59.5140  C.ar      1 <0>        -0.1200
      26  F1          8.2880   37.6640   58.2330  F         1 <0>        -0.1394
      27  O2          0.4550   35.3120   56.2310  O.3       1 <0>        -0.5399
@<TRIPOS>BOND
     1     1     2 1
     2     2     7 ar
     3     2     3 ar
     4     3     4 ar
     5     4     5 ar
     6     5     6 ar
     7     6     7 ar
     8     6     9 1
     9     7     8 1
    10     9    10 1
    11    10    14 1
    12    10    11 2
    13    11    12 1
    14    12    13 2
    15    13    14 1
    16    13    15 1
    17    15    16 1
    18    16    17 1
    19    17    18 1
    20    17    27 1
    21    18    19 1
    22    19    20 1
    23    20    25 ar
    24    20    21 ar
    25    21    22 ar
    26    22    23 ar
    27    23    24 ar
    28    23    26 1
    29    24    25 ar

@<TRIPOS>MOLECULE
ZINC62138324_replica-1.pdb
 21 22 0 0 0
SMALL
GASTEIGER

@<TRIPOS>ATOM
       1  C1          0.5510   25.7960   54.4300  C.3       1 <0>        -0.1184
       2  C2         -0.2340   26.4890   53.3470  C.ar      1 <0>        -0.0846
       3  C3         -0.5770   25.8040   52.1960  C.ar      1 <0>        -0.1206
       4  C4         -1.2960   26.4400   51.2020  C.ar      1 <0>        -0.1217
       5  C5         -1.6740   27.7610   51.3590  C.ar      1 <0>        -0.1234
       6  C6         -1.3320   28.4450   52.5100  C.ar      1 <0>        -0.1134
       7  C7         -0.6150   27.8080   53.5070  C.ar      1 <0>        -0.0822
       8  C8         -0.2470   28.5520   54.7640  C.3       1 <0>        -0.0772
       9  C9         -0.1910   30.0530   54.4700  C.3       1 <0>        -0.1397
      10  C10         0.4100   30.7860   55.6720  C.3       1 <0>         0.1196
      11  C11        -0.7090   31.2000   56.6280  C.3       1 <0>        -0.1368
      12  C12        -0.4110   30.6740   58.0090  C.ar      1 <0>        -0.0046
      13  C13        -0.8680   29.4250   58.3850  C.ar      1 <0>        -0.1149
      14  C14        -0.5950   28.9420   59.6510  C.ar      1 <0>        -0.0625
      15  C15         0.1360   29.7080   60.5400  C.ar      1 <0>        -0.1236
      16  C16         0.5940   30.9570   60.1630  C.ar      1 <0>        -0.0525
      17  C17         0.3240   31.4380   58.8960  C.ar      1 <0>        -0.0527
      18  N1          0.8180   32.7730   58.4900  N.pl3     1 <0>         0.0374
      19  O1          0.0960   33.7390   58.5840  O.2       1 <0>        -0.1604
      20  O2          1.9430   32.8990   58.0640  O.3       1 <0>        -0.1595
      21  O3          1.1060   31.9500   55.2200  O.3       1 <0>        -0.5587
@<TRIPOS>BOND
     1     1     2 1
     2     2     7 ar
     3     2     3 ar
     4     3     4 ar
     5     4     5 ar
     6     5     6 ar
     7     6     7 ar
     8     7     8 1
     9     8     9 1
    10     9    10 1
    11    10    11 1
    12    10    21 1
    13    11    12 1
    14    12    17 ar
    15    12    13 ar
    16    13    14 ar
    17    14    15 ar
    18    15    16 ar
    19    16    17 ar
    20    17    18 1
    21    18    19 2
    22    18    20 1

@<TRIPOS>MOLECULE
ZINC05332919_replica-1.pdb
 29 31 0 0 0
SMALL
GASTEIGER

@<TRIPOS>ATOM
       1  C1          4.3350   33.5490   60.5970  C.3       1 <0>        -0.1531
       2  C2          4.6270   34.9020   59.9460  C.3       1 <0>         0.0581
       3  O1          6.0640   35.1060   59.8760  O.3       1 <0>        -0.3510
       4  C3          6.6600   34.8600   58.6920  C.2       1 <0>         0.5339
       5  O2          6.8370   33.7130   58.3260  O.2       1 <0>        -0.4887
       6  C4          7.0940   35.9730   57.8470  C.2       1 <0>        -0.2010
       7  C5          8.3370   36.6780   58.0960  C.2       1 <0>        -0.0237
       8  C6          8.6430   37.6940   57.2500  C.2       1 <0>        -0.2208
       9  S1          7.2720   37.7080   56.1140  S.3       1 <0>         0.2551
      10  C7          6.3350   36.4070   56.7670  C.2       1 <0>         0.0789
      11  N1          5.1220   35.9110   56.3170  N.am      1 <0>        -0.6171
      12  C8          5.0960   34.8710   55.4600  C.2       1 <0>         0.5082
      13  O3          6.1350   34.3690   55.0840  O.2       1 <0>        -0.4891
      14  C9          3.7770   34.3270   54.9750  C.3       1 <0>         0.1158
      15  N2          2.6860   35.1480   55.5060  N.pl3     1 <0>        -0.7398
      16  C10         2.1010   34.8250   56.7320  C.ar      1 <0>         0.2094
      17  C11         1.7680   35.8310   57.6310  C.ar      1 <0>        -0.1957
      18  C12         1.1850   35.5080   58.8410  C.ar      1 <0>        -0.0723
      19  C13         0.9430   34.1850   59.1620  C.ar      1 <0>        -0.1411
      20  C14         1.2790   33.1820   58.2720  C.ar      1 <0>        -0.0712
      21  C15         1.8570   33.4980   57.0590  C.ar      1 <0>        -0.1839
      22  C16         0.3120   33.8370   60.4860  C.3       1 <0>        -0.1087
      23  C17         9.2300   36.3050   59.2190  C.ar      1 <0>        -0.0484
      24  C18         9.9450   35.1080   59.1770  C.ar      1 <0>        -0.1040
      25  C19        10.7770   34.7680   60.2240  C.ar      1 <0>        -0.1189
      26  C20        10.8960   35.6080   61.3170  C.ar      1 <0>        -0.0794
      27  C21        10.1860   36.7940   61.3670  C.ar      1 <0>        -0.1194
      28  C22         9.3540   37.1470   60.3230  C.ar      1 <0>        -0.0936
      29  C23        11.8030   35.2280   62.4600  C.3       1 <0>        -0.1175
@<TRIPOS>BOND
     1     1     2 1
     2     2     3 1
     3     3     4 1
     4     4     5 2
     5     4     6 1
     6     6    10 2
     7     6     7 1
     8     7     8 2
     9     7    23 1
    10     8     9 1
    11     9    10 1
    12    10    11 1
    13    11    12 am
    14    12    13 2
    15    12    14 1
    16    14    15 1
    17    15    16 1
    18    16    21 ar
    19    16    17 ar
    20    17    18 ar
    21    18    19 ar
    22    19    20 ar
    23    19    22 1
    24    20    21 ar
    25    23    28 ar
    26    23    24 ar
    27    24    25 ar
    28    25    26 ar
    29    26    27 ar
    30    26    29 1
    31    27    28 ar

@<TRIPOS>MOLECULE
ZINC61625212_replica-1.pdb
 19 20 0 0 0
SMALL
GASTEIGER

@<TRIPOS>ATOM
       1  C1         -0.7890   26.0330   51.6600  C.ar      1 <0>        -0.1224
       2  C2         -1.5390   27.0760   51.1480  C.ar      1 <0>        -0.1183
       3  C3         -1.7200   28.2270   51.8920  C.ar      1 <0>        -0.1164
       4  C4         -1.1520   28.3350   53.1480  C.ar      1 <0>        -0.0867
       5  C5         -0.4020   27.2920   53.6600  C.ar      1 <0>        -0.1164
       6  C6         -0.2200   26.1420   52.9150  C.ar      1 <0>        -0.1179
       7  C7         -1.3490   29.5900   53.9580  C.3       1 <0>        -0.0770
       8  C8          0.0090   30.0950   54.4530  C.3       1 <0>        -0.1176
       9  C9         -0.0970   30.4740   55.9320  C.3       1 <0>         0.2526
      10  C10         0.5630   31.7710   56.1540  C.1       1 <0>         0.1796
      11  N1          1.0720   32.7730   56.3250  N.1       1 <0>        -0.4087
      12  N2          0.5570   29.4480   56.7480  N.pl3     1 <0>        -0.7329
      13  C11        -0.1610   28.3230   57.1630  C.ar      1 <0>         0.1993
      14  C12         0.4550   27.0790   57.2050  C.ar      1 <0>        -0.1670
      15  C13        -0.2580   25.9710   57.6160  C.ar      1 <0>        -0.1039
      16  C14        -1.5850   26.0980   57.9880  C.ar      1 <0>         0.0453
      17  C15        -2.2020   27.3360   57.9480  C.ar      1 <0>        -0.1047
      18  C16        -1.4920   28.4500   57.5410  C.ar      1 <0>        -0.1569
      19  F1         -2.2800   25.0100   58.3900  F         1 <0>        -0.1439
@<TRIPOS>BOND
     1     1     6 ar
     2     1     2 ar
     3     2     3 ar
     4     3     4 ar
     5     4     5 ar
     6     4     7 1
     7     5     6 ar
     8     7     8 1
     9     8     9 1
    10     9    10 1
    11     9    12 1
    12    10    11 3
    13    12    13 1
    14    13    18 ar
    15    13    14 ar
    16    14    15 ar
    17    15    16 ar
    18    16    17 ar
    19    16    19 1
    20    17    18 ar

@<TRIPOS>MOLECULE
ZINC14024651_replica-1.pdb
 25 26 0 0 0
SMALL
GASTEIGER

@<TRIPOS>ATOM
       1  C1         -0.0660   26.1890   53.5480  C.3       1 <0>        -0.1477
       2  C2         -0.5310   26.9720   52.3190  C.3       1 <0>        -0.0952
       3  C3         -1.2790   26.0340   51.3700  C.3       1 <0>        -0.1492
       4  C4         -1.4630   28.1040   52.7570  C.3       1 <0>         0.0594
       5  O1         -1.4630   28.1950   54.1830  O.3       1 <0>        -0.3060
       6  C5         -0.7380   29.2000   54.7360  C.ar      1 <0>         0.1648
       7  C6         -0.7560   30.4650   54.1600  C.ar      1 <0>        -0.1588
       8  C7         -0.0220   31.4880   54.7180  C.ar      1 <0>        -0.0120
       9  C8          0.7400   31.2530   55.8670  C.ar      1 <0>        -0.1767
      10  C9          0.7590   29.9790   56.4390  C.ar      1 <0>        -0.0429
      11  C10         0.0170   28.9630   55.8780  C.ar      1 <0>        -0.2177
      12  C11         1.5270   32.3470   56.4680  C.2       1 <0>         0.5825
      13  O2          1.3620   32.6460   57.6340  O.2       1 <0>        -0.5001
      14  N1          2.4310   33.0140   55.7220  N.am      1 <0>        -0.5825
      15  N2          3.1780   34.0530   56.2920  N.2       1 <0>        -0.2266
      16  C12         4.4740   34.0270   56.2330  C.2       1 <0>         0.1113
      17  C13         5.2620   35.1200   56.8340  C.ar      1 <0>        -0.0636
      18  C14         5.2120   35.3460   58.2120  C.ar      1 <0>        -0.0858
      19  C15         5.9520   36.3700   58.7660  C.ar      1 <0>        -0.1235
      20  C16         6.7430   37.1700   57.9620  C.ar      1 <0>        -0.0577
      21  C17         6.7940   36.9550   56.5960  C.ar      1 <0>        -0.1201
      22  C18         6.0640   35.9320   56.0280  C.ar      1 <0>        -0.0741
      23  C19         7.5490   38.2860   58.5760  C.3       1 <0>        -0.0607
      24  C20         8.5420   38.8250   57.5440  C.3       1 <0>        -0.1460
      25  C21         8.3130   37.7550   59.7910  C.3       1 <0>        -0.1459
@<TRIPOS>BOND
     1     1     2 1
     2     2     3 1
     3     2     4 1
     4     4     5 1
     5     5     6 1
     6     6    11 ar
     7     6     7 ar
     8     7     8 ar
     9     8     9 ar
    10     9    10 ar
    11     9    12 1
    12    10    11 ar
    13    12    13 2
    14    12    14 am
    15    14    15 1
    16    15    16 2
    17    16    17 1
    18    17    22 ar
    19    17    18 ar
    20    18    19 ar
    21    19    20 ar
    22    20    21 ar
    23    20    23 1
    24    21    22 ar
    25    23    24 1
    26    23    25 1

@<TRIPOS>MOLECULE
ZINC50004153_replica-1.pdb
 21 22 0 0 0
SMALL
GASTEIGER

@<TRIPOS>ATOM
       1  C1          3.8720   36.0610   56.3210  C.3       1 <0>         0.0881
       2  N1          5.2690   35.8770   56.7220  N.pl3     1 <0>        -0.6268
       3  C2          6.3470   36.1460   55.7670  C.3       1 <0>         0.1270
       4  C3          6.8540   37.5760   55.9610  C.3       1 <0>        -0.1421
       5  C4          8.2610   37.5390   56.5610  C.3       1 <0>         0.0588
       6  O1          8.1940   37.8670   57.9510  O.3       1 <0>        -0.3074
       7  C5          8.8760   37.0640   58.8080  C.ar      1 <0>         0.1622
       8  C6          9.1720   37.5120   60.0890  C.ar      1 <0>        -0.2125
       9  C7          9.8630   36.7010   60.9620  C.ar      1 <0>        -0.0266
      10  C8         10.2650   35.4240   60.5570  C.ar      1 <0>        -0.0702
      11  C9          9.9640   34.9780   59.2670  C.ar      1 <0>        -0.0282
      12  C10         9.2690   35.7940   58.4030  C.ar      1 <0>        -0.1531
      13  C11        10.9840   34.5780   61.4610  C.1       1 <0>         0.2543
      14  N2         11.5530   33.9050   62.1780  N.1       1 <0>        -0.4179
      15  C12         5.5730   35.4450   58.0150  C.ar      1 <0>         0.2415
      16  C13         5.3440   36.2820   59.1000  C.ar      1 <0>        -0.2079
      17  C14         5.6460   35.8530   60.3780  C.ar      1 <0>        -0.0424
      18  C15         6.1750   34.5910   60.5790  C.ar      1 <0>        -0.2120
      19  C16         6.4050   33.7530   59.5010  C.ar      1 <0>         0.1462
      20  C17         6.1000   34.1760   58.2190  C.ar      1 <0>        -0.2354
      21  F1          6.9230   32.5220   59.7000  F         1 <0>        -0.1388
@<TRIPOS>BOND
     1     1     2 1
     2     2     3 1
     3     2    15 1
     4     3     4 1
     5     4     5 1
     6     5     6 1
     7     6     7 1
     8     7    12 ar
     9     7     8 ar
    10     8     9 ar
    11     9    10 ar
    12    10    11 ar
    13    10    13 1
    14    11    12 ar
    15    13    14 3
    16    15    20 ar
    17    15    16 ar
    18    16    17 ar
    19    17    18 ar
    20    18    19 ar
    21    19    20 ar
    22    19    21 1

@<TRIPOS>MOLECULE
CHEMBL414086_replica-1.pdb
 33 37 0 0 0
SMALL
GASTEIGER

@<TRIPOS>ATOM
       1  C1          6.1670   33.4040   58.7530  C.3       1 <0>         0.0547
       2  N1          7.4510   32.7290   58.5380  N.am      1 <0>        -0.6047
       3  C2          8.4700   33.3470   57.6880  C.3       1 <0>         0.1511
       4  C3          8.6210   34.7990   58.0590  C.ar      1 <0>        -0.0888
       5  C4          9.2660   35.1580   59.2410  C.ar      1 <0>        -0.0333
       6  C5          9.7880   34.1780   60.1130  C.ar      1 <0>        -0.1229
       7  C6         10.4100   34.5610   61.2570  C.ar      1 <0>        -0.1074
       8  C7         10.5500   35.9070   61.6000  C.ar      1 <0>        -0.1205
       9  C8         10.0720   36.8990   60.8070  C.ar      1 <0>        -0.0992
      10  C9          9.4130   36.5710   59.6020  C.ar      1 <0>        -0.0546
      11  C10         8.9100   37.5660   58.7650  C.ar      1 <0>        -0.0844
      12  C11         8.2650   37.2070   57.5830  C.ar      1 <0>        -0.0507
      13  C12         8.1230   35.7930   57.2190  C.ar      1 <0>        -0.0293
      14  C13         7.4700   35.4670   56.0100  C.ar      1 <0>        -0.1009
      15  C14         6.9970   36.4600   55.2150  C.ar      1 <0>        -0.1173
      16  C15         7.1380   37.8050   55.5580  C.ar      1 <0>        -0.1096
      17  C16         7.7430   38.1870   56.7110  C.ar      1 <0>        -0.1154
      18  C17         7.6920   31.5390   59.1250  C.2       1 <0>         0.5292
      19  O1          8.7880   31.0300   59.0320  O.2       1 <0>        -0.5216
      20  C18         6.6000   30.8440   59.8960  C.3       1 <0>        -0.1228
      21  C19         6.6860   31.1790   61.4020  C.3       1 <0>        -0.1435
      22  C20         6.3060   29.8880   62.0930  C.2       1 <0>         0.5212
      23  O2          5.9780   29.7930   63.2570  O.2       1 <0>        -0.5214
      24  N2          6.3810   28.8620   61.2280  N.am      1 <0>        -0.6146
      25  C21         6.8150   29.3140   59.9010  C.3       1 <0>         0.1154
      26  C22         6.0710   27.4710   61.5670  C.3       1 <0>         0.1415
      27  C23         7.3700   26.7100   61.8440  C.3       1 <0>        -0.1287
      28  C24         7.0500   25.4030   62.5700  C.3       1 <0>        -0.1258
      29  C25         6.0180   25.6670   63.6680  C.3       1 <0>        -0.1296
      30  C26         4.7030   24.9720   63.3110  C.3       1 <0>        -0.1217
      31  C27         3.9850   25.7700   62.2210  C.3       1 <0>        -0.1301
      32  C28         4.6670   25.5230   60.8750  C.3       1 <0>        -0.1254
      33  C29         5.3360   26.8130   60.3960  C.3       1 <0>        -0.1297
@<TRIPOS>BOND
     1     1     2 1
     2     2     3 1
     3     2    18 am
     4     3     4 1
     5     4    13 ar
     6     4     5 ar
     7     5    10 ar
     8     5     6 ar
     9     6     7 ar
    10     7     8 ar
    11     8     9 ar
    12     9    10 ar
    13    10    11 ar
    14    11    12 ar
    15    12    17 ar
    16    12    13 ar
    17    13    14 ar
    18    14    15 ar
    19    15    16 ar
    20    16    17 ar
    21    18    19 2
    22    18    20 1
    23    20    25 1
    24    20    21 1
    25    21    22 1
    26    22    23 2
    27    22    24 am
    28    24    25 1
    29    24    26 1
    30    26    33 1
    31    26    27 1
    32    27    28 1
    33    28    29 1
    34    29    30 1
    35    30    31 1
    36    31    32 1
    37    32    33 1

@<TRIPOS>MOLECULE
ZINC43535261_replica-1.pdb
 20 21 0 0 0
SMALL
GASTEIGER

@<TRIPOS>ATOM
       1  C1          6.4480   32.8770   58.7130  C.3       1 <0>        -0.1077
       2  C2          6.0680   34.2650   59.1580  C.ar      1 <0>        -0.1528
       3  C3          6.3010   34.6610   60.4610  C.ar      1 <0>        -0.0757
       4  C4          5.9520   35.9350   60.8710  C.ar      1 <0>        -0.1670
       5  C5          5.3690   36.8160   59.9780  C.ar      1 <0>        -0.0776
       6  C6          5.1330   36.4260   58.6750  C.ar      1 <0>        -0.1878
       7  C7          5.4880   35.1490   58.2580  C.ar      1 <0>         0.2091
       8  N1          5.2550   34.7540   56.9390  N.pl3     1 <0>        -0.7331
       9  C8          5.9260   35.4480   55.8370  C.3       1 <0>         0.2520
      10  C9          7.4310   35.1870   55.9110  C.3       1 <0>        -0.1172
      11  C10         8.1670   36.5070   56.1550  C.3       1 <0>        -0.0480
      12  C11         7.2070   37.6760   55.9280  C.3       1 <0>        -0.1456
      13  C12         8.6750   36.5420   57.5740  C.ar      1 <0>        -0.0830
      14  C13         8.5600   37.6990   58.3210  C.ar      1 <0>        -0.1167
      15  C14         9.0270   37.7320   59.6220  C.ar      1 <0>        -0.1182
      16  C15         9.6080   36.6070   60.1750  C.ar      1 <0>        -0.1219
      17  C16         9.7240   35.4500   59.4280  C.ar      1 <0>        -0.1165
      18  C17         9.2530   35.4160   58.1300  C.ar      1 <0>        -0.1104
      19  C18         5.4040   34.9490   54.5540  C.1       1 <0>         0.1820
      20  N2          5.0010   34.5660   53.5640  N.1       1 <0>        -0.4132
@<TRIPOS>BOND
     1     1     2 1
     2     2     7 ar
     3     2     3 ar
     4     3     4 ar
     5     4     5 ar
     6     5     6 ar
     7     6     7 ar
     8     7     8 1
     9     8     9 1
    10     9    10 1
    11     9    19 1
    12    10    11 1
    13    11    12 1
    14    11    13 1
    15    13    18 ar
    16    13    14 ar
    17    14    15 ar
    18    15    16 ar
    19    16    17 ar
    20    17    18 ar
    21    19    20 3

@<TRIPOS>MOLECULE
ZINC01079465_replica-1.pdb
 27 30 0 0 0
SMALL
GASTEIGER

@<TRIPOS>ATOM
       1  C1         10.8550   35.1570   61.0370  C.ar      1 <0>        -0.1080
       2  C2         10.4840   36.3630   61.5990  C.ar      1 <0>        -0.1206
       3  C3          9.6450   37.2190   60.9090  C.ar      1 <0>        -0.0879
       4  C4          9.1790   36.8680   59.6560  C.ar      1 <0>        -0.1202
       5  C5          9.5470   35.6590   59.0960  C.ar      1 <0>        -0.1012
       6  C6         10.3880   34.8050   59.7850  C.ar      1 <0>        -0.1215
       7  C7          8.2660   37.8000   58.9020  C.3       1 <0>         0.1762
       8  N1          7.0640   37.0760   58.4860  N.pl3     1 <0>        -0.3816
       9  C8          6.0210   36.7490   59.2810  C.2       1 <0>         0.3868
      10  C9          5.1030   36.0730   58.4950  C.2       1 <0>        -0.2647
      11  C10         5.6360   36.0070   57.1930  C.2       1 <0>         0.1162
      12  N2          6.8000   36.5980   57.1970  N.2       1 <0>        -0.2799
      13  C11         4.9780   35.3590   56.0010  C.3       1 <0>         0.1467
      14  O1          5.1770   33.9450   56.0590  O.3       1 <0>        -0.3054
      15  C12         4.1240   33.1910   56.4720  C.ar      1 <0>         0.1344
      16  C13         4.3210   32.1620   57.3820  C.ar      1 <0>        -0.1521
      17  C14         3.2490   31.3980   57.8000  C.ar      1 <0>        -0.0804
      18  C15         1.9810   31.6560   57.3130  C.ar      1 <0>        -0.1600
      19  C16         1.7830   32.6810   56.4060  C.ar      1 <0>        -0.0793
      20  C17         2.8510   33.4480   55.9850  C.ar      1 <0>        -0.2098
      21  C18         3.8000   35.5220   58.9420  C.ar      1 <0>         0.0078
      22  C19         2.6090   36.0650   58.4620  C.ar      1 <0>        -0.1028
      23  C20         1.4010   35.5440   58.8750  C.ar      1 <0>        -0.1183
      24  C21         1.3690   34.4940   59.7750  C.ar      1 <0>        -0.1244
      25  C22         2.5470   33.9550   60.2590  C.ar      1 <0>        -0.1202
      26  C23         3.7630   34.4630   59.8470  C.ar      1 <0>        -0.1166
      27  N3          5.8940   37.0360   60.6330  N.pl3     1 <0>        -0.8469
@<TRIPOS>BOND
     1     1     6 ar
     2     1     2 ar
     3     2     3 ar
     4     3     4 ar
     5     4     5 ar
     6     4     7 1
     7     5     6 ar
     8     7     8 1
     9     8    12 1
    10     8     9 1
    11     9    10 2
    12     9    27 1
    13    10    11 1
    14    10    21 1
    15    11    12 2
    16    11    13 1
    17    13    14 1
    18    14    15 1
    19    15    20 ar
    20    15    16 ar
    21    16    17 ar
    22    17    18 ar
    23    18    19 ar
    24    19    20 ar
    25    21    26 ar
    26    21    22 ar
    27    22    23 ar
    28    23    24 ar
    29    24    25 ar
    30    25    26 ar

@<TRIPOS>MOLECULE
ZINC16617745_replica-1.pdb
 26 29 0 0 0
SMALL
GASTEIGER

@<TRIPOS>ATOM
       1  C1          1.7800   34.9110   56.6490  C.ar      1 <0>        -0.0971
       2  C2          2.8330   35.6430   56.1320  C.ar      1 <0>        -0.1189
       3  C3          3.9530   35.8800   56.9040  C.ar      1 <0>        -0.0782
       4  C4          4.0280   35.3870   58.1980  C.ar      1 <0>        -0.1123
       5  C5          2.9710   34.6580   58.7160  C.ar      1 <0>        -0.0723
       6  C6          1.8510   34.4200   57.9380  C.ar      1 <0>        -0.1083
       7  C7          3.2840   34.2420   60.1380  C.3       1 <0>        -0.0832
       8  C8          4.8110   34.4230   60.2870  C.3       1 <0>        -0.1157
       9  C9          5.1160   35.4940   59.2320  C.3       1 <0>         0.1648
      10  C10         6.4800   35.2900   58.6250  C.2       1 <0>         0.5374
      11  O1          6.8810   34.3160   58.0260  O.2       1 <0>        -0.4490
      12  N1          7.1600   36.4260   58.8930  N.am      1 <0>        -0.5753
      13  C11         6.4110   37.3000   59.5780  C.2       1 <0>         0.7041
      14  O2          6.8040   38.3930   59.9340  O.2       1 <0>        -0.5332
      15  N2          5.1720   36.8290   59.8270  N.am      1 <0>        -0.7104
      16  C12         8.5460   36.6710   58.4860  C.3       1 <0>         0.1554
      17  C13         9.4800   36.1780   59.5620  C.ar      1 <0>        -0.0903
      18  C14        10.0550   34.9260   59.4580  C.ar      1 <0>        -0.0975
      19  C15        10.9120   34.4730   60.4440  C.ar      1 <0>        -0.0733
      20  C16        11.1940   35.2750   61.5350  C.ar      1 <0>        -0.1724
      21  C17        10.6210   36.5280   61.6380  C.ar      1 <0>        -0.0730
      22  C18         9.7670   36.9820   60.6500  C.ar      1 <0>        -0.0922
      23  C19        12.1280   34.7820   62.6100  C.3       1 <0>         0.5075
      24  F1         13.4080   34.6070   62.0720  F         1 <0>        -0.1754
      25  F2         12.1810   35.7200   63.6470  F         1 <0>        -0.1753
      26  F3         11.6610   33.5610   63.1090  F         1 <0>        -0.1754
@<TRIPOS>BOND
     1     1     6 ar
     2     1     2 ar
     3     2     3 ar
     4     3     4 ar
     5     4     9 1
     6     4     5 ar
     7     5     6 ar
     8     5     7 1
     9     7     8 1
    10     8     9 1
    11     9    15 1
    12     9    10 1
    13    10    11 2
    14    10    12 am
    15    12    13 am
    16    12    16 1
    17    13    14 2
    18    13    15 am
    19    16    17 1
    20    17    22 ar
    21    17    18 ar
    22    18    19 ar
    23    19    20 ar
    24    20    21 ar
    25    20    23 1
    26    21    22 ar
    27    23    24 1
    28    23    25 1
    29    23    26 1

@<TRIPOS>MOLECULE
ZINC00511378_replica-1.pdb
 25 26 0 0 0
SMALL
GASTEIGER

@<TRIPOS>ATOM
       1  C1         -0.6550   25.0610   52.1290  C.3       1 <0>        -0.1460
       2  C2         -0.6520   26.5080   51.6320  C.3       1 <0>        -0.0611
       3  C3         -1.9030   26.7590   50.7870  C.3       1 <0>        -0.1461
       4  C4         -0.6460   27.4440   52.8120  C.ar      1 <0>        -0.0560
       5  C5          0.1070   27.1370   53.9310  C.ar      1 <0>        -0.1237
       6  C6          0.1160   27.9900   55.0150  C.ar      1 <0>        -0.0844
       7  C7         -0.6360   29.1660   54.9820  C.ar      1 <0>        -0.0664
       8  C8         -1.3980   29.4680   53.8500  C.ar      1 <0>        -0.0733
       9  C9         -1.3950   28.6080   52.7710  C.ar      1 <0>        -0.1204
      10  C10        -0.6320   30.0820   56.1370  C.2       1 <0>         0.1173
      11  N1         -0.4960   31.3600   55.9510  N.2       1 <0>        -0.2277
      12  N2         -0.4920   32.2300   57.0500  N.am      1 <0>        -0.5834
      13  C11         0.4920   33.1420   57.1820  C.2       1 <0>         0.5324
      14  O1          1.3720   33.2110   56.3510  O.2       1 <0>        -0.4739
      15  C12         0.4960   34.0780   58.3640  C.3       1 <0>         0.0493
      16  O2          1.3930   33.5830   59.3590  O.3       1 <0>        -0.2860
      17  C13         0.8410   33.0940   60.5010  C.ar      1 <0>         0.1258
      18  C14         0.1880   33.9490   61.3770  C.ar      1 <0>        -0.2079
      19  C15        -0.3780   33.4500   62.5340  C.ar      1 <0>        -0.0850
      20  C16        -0.2850   32.1020   62.8250  C.ar      1 <0>        -0.1511
      21  C17         0.3710   31.2490   61.9560  C.ar      1 <0>        -0.0776
      22  C18         0.9330   31.7420   60.7950  C.ar      1 <0>        -0.0974
      23  C19         1.6480   30.8120   59.8490  C.3       1 <0>        -0.0565
      24  C20         2.8970   30.2520   60.5310  C.3       1 <0>        -0.1422
      25  C21         0.7170   29.6600   59.4660  C.3       1 <0>        -0.1422
@<TRIPOS>BOND
     1     1     2 1
     2     2     3 1
     3     2     4 1
     4     4     9 ar
     5     4     5 ar
     6     5     6 ar
     7     6     7 ar
     8     7     8 ar
     9     7    10 1
    10     8     9 ar
    11    10    11 2
    12    11    12 1
    13    12    13 am
    14    13    14 2
    15    13    15 1
    16    15    16 1
    17    16    17 1
    18    17    22 ar
    19    17    18 ar
    20    18    19 ar
    21    19    20 ar
    22    20    21 ar
    23    21    22 ar
    24    22    23 1
    25    23    24 1
    26    23    25 1

@<TRIPOS>MOLECULE
ZINC21243860_replica-1.pdb
 34 38 0 0 0
SMALL
GASTEIGER

@<TRIPOS>ATOM
       1  C1         16.0990   34.0600   64.2450  C.3       1 <0>        -0.1513
       2  C2         14.7720   33.6740   63.5880  C.3       1 <0>         0.0767
       3  C3         14.4630   32.2050   63.8850  C.3       1 <0>        -0.1817
       4  O1         13.7260   34.4950   64.1100  O.3       1 <0>        -0.3160
       5  C4         12.7570   34.8870   63.2400  C.ar      1 <0>         0.1348
       6  C5         12.1260   36.1100   63.4090  C.ar      1 <0>        -0.2096
       7  C6         11.1410   36.5060   62.5250  C.ar      1 <0>        -0.0706
       8  C7         10.7850   35.6840   61.4720  C.ar      1 <0>        -0.1211
       9  C8         11.4080   34.4610   61.3060  C.ar      1 <0>        -0.0729
      10  C9         12.3970   34.0630   62.1840  C.ar      1 <0>        -0.1507
      11  C10         9.7100   36.1180   60.5090  C.3       1 <0>        -0.0315
      12  C11         9.4770   35.0270   59.4660  C.3       1 <0>        -0.1014
      13  C12         8.3830   35.4550   58.5030  C.2       1 <0>         0.2706
      14  C13         7.3670   36.2250   58.9270  C.2       1 <0>        -0.3042
      15  C14         6.2040   36.6990   58.0880  C.3       1 <0>         0.2871
      16  N1          6.3660   36.4840   56.6650  N.pl3     1 <0>        -0.7823
      17  C15         6.4440   35.1980   56.1360  C.ar      1 <0>         0.1725
      18  C16         5.4450   34.6900   55.3210  C.ar      1 <0>        -0.1259
      19  C17         5.5340   33.3860   54.8670  C.ar      1 <0>        -0.1084
      20  C18         6.6010   32.5880   55.2340  C.ar      1 <0>        -0.1232
      21  C19         7.6000   33.0910   56.0500  C.ar      1 <0>        -0.1169
      22  C20         7.5280   34.4050   56.4780  C.ar      1 <0>         0.1129
      23  N2          8.5360   34.9960   57.2340  N.pl3     1 <0>        -0.6972
      24  C21         4.9630   35.9730   58.5420  C.ar      1 <0>        -0.0830
      25  C22         5.0770   34.8200   59.2980  C.ar      1 <0>        -0.0693
      26  C23         3.9430   34.1550   59.7200  C.ar      1 <0>        -0.1372
      27  C24         2.6870   34.6390   59.3740  C.ar      1 <0>        -0.0814
      28  C25         2.5770   35.7950   58.6110  C.ar      1 <0>        -0.1034
      29  C26         3.7150   36.4580   58.1970  C.ar      1 <0>        -0.0864
      30  S1          1.2370   33.7900   59.9050  S.3       1 <0>        -0.1277
      31  C27         0.2320   33.6560   58.4010  C.3       1 <0>        -0.1447
      32  C28         7.3230   36.6700   60.2690  C.2       1 <0>         0.4008
      33  O2          6.3830   37.3520   60.6280  O.2       1 <0>        -0.4734
      34  C29         8.3920   36.3300   61.2630  C.3       1 <0>        -0.1601
@<TRIPOS>BOND
     1     1     2 1
     2     2     3 1
     3     2     4 1
     4     4     5 1
     5     5    10 ar
     6     5     6 ar
     7     6     7 ar
     8     7     8 ar
     9     8     9 ar
    10     8    11 1
    11     9    10 ar
    12    11    34 1
    13    11    12 1
    14    12    13 1
    15    13    23 1
    16    13    14 2
    17    14    15 1
    18    14    32 1
    19    15    16 1
    20    15    24 1
    21    16    17 1
    22    17    22 ar
    23    17    18 ar
    24    18    19 ar
    25    19    20 ar
    26    20    21 ar
    27    21    22 ar
    28    22    23 1
    29    24    29 ar
    30    24    25 ar
    31    25    26 ar
    32    26    27 ar
    33    27    28 ar
    34    27    30 1
    35    28    29 ar
    36    30    31 1
    37    32    33 2
    38    32    34 1

@<TRIPOS>MOLECULE
ZINC13094267_replica-1.pdb
 25 26 0 0 0
SMALL
GASTEIGER

@<TRIPOS>ATOM
       1  C1         -0.1320   25.6310   56.9070  C.3       1 <0>        -0.1461
       2  C2          0.2170   27.0990   56.6480  C.3       1 <0>        -0.0996
       3  C3          1.1660   27.5980   57.7390  C.3       1 <0>        -0.1571
       4  C4          0.8960   27.2280   55.2830  C.3       1 <0>        -0.1091
       5  C5          0.0230   28.0780   54.3580  C.3       1 <0>         0.1813
       6  C6         -0.4530   27.2350   53.2030  C.ar      1 <0>        -0.1079
       7  C7         -0.1080   25.8980   53.1330  C.ar      1 <0>        -0.0998
       8  C8         -0.5490   25.1240   52.0770  C.ar      1 <0>        -0.1189
       9  C9         -1.3270   25.6880   51.0840  C.ar      1 <0>        -0.1156
      10  C10        -1.6680   27.0260   51.1500  C.ar      1 <0>        -0.1194
      11  C11        -1.2310   27.7990   52.2090  C.ar      1 <0>        -0.1063
      12  N1         -1.1320   28.5830   55.1040  N.pl3     1 <0>        -1.1066
      13  S1         -1.4370   30.2100   55.1580  S.o2      1 <0>         2.6958
      14  O1         -2.7500   30.3580   55.6810  O.2       1 <0>        -0.9506
      15  O2         -1.0550   30.7370   53.8960  O.2       1 <0>        -0.9538
      16  C12        -0.3400   30.9050   56.3480  C.ar      1 <0>        -0.7237
      17  C13         0.6630   31.7590   55.9430  C.ar      1 <0>         0.0358
      18  C14         1.5330   32.3100   56.8870  C.ar      1 <0>        -0.1387
      19  C15         1.3820   31.9880   58.2380  C.ar      1 <0>         0.0034
      20  C16         0.3730   31.1380   58.6340  C.ar      1 <0>        -0.1822
      21  C17        -0.4870   30.5940   57.6910  C.ar      1 <0>         0.1888
      22  F1         -1.4720   29.7570   58.0840  F         1 <0>        -0.1296
      23  C18         2.6090   33.2250   56.4580  C.2       1 <0>         0.4911
      24  O3          2.3700   34.4030   56.2790  O.co2     1 <0>        -0.6216
      25  O4          3.8580   32.7550   56.2730  O.co2     1 <0>        -0.7482
@<TRIPOS>BOND
     1     1     2 1
     2     2     3 1
     3     2     4 1
     4     4     5 1
     5     5     6 1
     6     5    12 1
     7     6    11 ar
     8     6     7 ar
     9     7     8 ar
    10     8     9 ar
    11     9    10 ar
    12    10    11 ar
    13    12    13 1
    14    13    14 2
    15    13    15 2
    16    13    16 1
    17    16    21 ar
    18    16    17 ar
    19    17    18 ar
    20    18    19 ar
    21    18    23 1
    22    19    20 ar
    23    20    21 ar
    24    21    22 1
    25    23    24 2
    26    23    25 1

@<TRIPOS>MOLECULE
ZINC00709482_replica-1.pdb
 28 32 0 0 0
SMALL
GASTEIGER

@<TRIPOS>ATOM
       1  C1          0.4040   35.9170   56.9770  C.3       1 <0>         0.0935
       2  N1          1.4710   35.6000   57.9280  N.pl3     1 <0>        -0.6390
       3  C2          1.1520   35.3750   59.3400  C.3       1 <0>         0.0886
       4  C3          2.7950   35.5130   57.4890  C.ar      1 <0>         0.2191
       5  C4          3.7410   34.8490   58.2600  C.ar      1 <0>        -0.1988
       6  C5          5.0490   34.7640   57.8230  C.ar      1 <0>        -0.0478
       7  C6          5.4160   35.3400   56.6200  C.ar      1 <0>        -0.1660
       8  C7          4.4780   36.0060   55.8540  C.ar      1 <0>        -0.0505
       9  C8          3.1670   36.0900   56.2820  C.ar      1 <0>        -0.2030
      10  C9          6.8430   35.2450   56.1470  C.3       1 <0>         0.2590
      11  C10         7.5130   34.0670   56.8090  C.2       1 <0>        -0.2543
      12  C11         8.2870   34.2130   57.9180  C.2       1 <0>         0.0719
      13  C12         8.7380   32.9980   58.6880  C.3       1 <0>        -0.1092
      14  C13         7.8760   31.7800   58.3570  C.3       1 <0>        -0.1188
      15  C14         7.9000   31.5680   56.8390  C.3       1 <0>        -0.1595
      16  C15         7.3360   32.8100   56.2000  C.2       1 <0>         0.3998
      17  O1          6.7310   32.7250   55.1520  O.2       1 <0>        -0.4697
      18  C16         8.6350   35.5050   58.3910  C.ar      1 <0>        -0.1645
      19  C17         9.4380   35.7330   59.5910  C.ar      1 <0>        -0.0231
      20  C18        10.1630   34.7310   60.2450  C.ar      1 <0>        -0.0977
      21  C19        10.8070   35.0310   61.4170  C.ar      1 <0>        -0.1548
      22  C20        10.7290   36.3170   61.9430  C.ar      1 <0>         0.1050
      23  N2         10.0850   37.2650   61.3090  N.ar      1 <0>        -0.4583
      24  C21         9.4990   37.0450   60.1290  C.ar      1 <0>         0.0866
      25  C22         8.9480   38.1230   59.4090  C.ar      1 <0>        -0.0247
      26  C23         8.3250   37.9160   58.2250  C.ar      1 <0>        -0.1595
      27  C24         8.1600   36.6310   57.7010  C.ar      1 <0>         0.2640
      28  N3          7.5430   36.4870   56.4690  N.pl3     1 <0>        -0.7133
@<TRIPOS>BOND
     1     1     2 1
     2     2     3 1
     3     2     4 1
     4     4     9 ar
     5     4     5 ar
     6     5     6 ar
     7     6     7 ar
     8     7     8 ar
     9     7    10 1
    10     8     9 ar
    11    10    28 1
    12    10    11 1
    13    11    16 1
    14    11    12 2
    15    12    13 1
    16    12    18 1
    17    13    14 1
    18    14    15 1
    19    15    16 1
    20    16    17 2
    21    18    27 ar
    22    18    19 ar
    23    19    24 ar
    24    19    20 ar
    25    20    21 ar
    26    21    22 ar
    27    22    23 ar
    28    23    24 ar
    29    24    25 ar
    30    25    26 ar
    31    26    27 ar
    32    27    28 1

@<TRIPOS>MOLECULE
ZINC40961353_replica-1.pdb
 25 26 0 0 0
SMALL
GASTEIGER

@<TRIPOS>ATOM
       1  C1         -0.7090   25.7870   51.9280  C.3       1 <0>        -0.1205
       2  C2         -0.6900   27.0820   52.7000  C.ar      1 <0>        -0.0664
       3  C3         -1.5200   28.1220   52.3200  C.ar      1 <0>        -0.1268
       4  C4         -1.5080   29.3100   53.0220  C.ar      1 <0>        -0.0836
       5  C5         -0.6550   29.4610   54.1170  C.ar      1 <0>        -0.0676
       6  C6          0.1800   28.4080   54.4940  C.ar      1 <0>        -0.0723
       7  C7          0.1540   27.2230   53.7870  C.ar      1 <0>        -0.1265
       8  C8         -0.6360   30.7280   54.8720  C.2       1 <0>         0.1166
       9  N1          0.4940   31.2410   55.2510  N.2       1 <0>        -0.2279
      10  N2          0.5120   32.4450   55.9670  N.am      1 <0>        -0.5817
      11  C9          1.6620   32.8870   56.5130  C.2       1 <0>         0.5347
      12  O1          2.6820   32.2430   56.3840  O.2       1 <0>        -0.4740
      13  C10         1.6810   34.1820   57.2840  C.3       1 <0>         0.0765
      14  C11         0.2560   34.5460   57.7050  C.3       1 <0>        -0.1784
      15  O2          2.2140   35.2200   56.4590  O.3       1 <0>        -0.2843
      16  C12         3.4810   35.6320   56.7260  C.ar      1 <0>         0.1226
      17  C13         4.3090   36.0430   55.6930  C.ar      1 <0>        -0.2090
      18  C14         5.5980   36.4610   55.9670  C.ar      1 <0>        -0.0748
      19  C15         6.0610   36.4690   57.2700  C.ar      1 <0>        -0.1042
      20  C16         5.2370   36.0580   58.3010  C.ar      1 <0>        -0.0797
      21  C17         3.9460   35.6450   58.0330  C.ar      1 <0>        -0.1425
      22  C18         7.4660   36.9250   57.5650  C.3       1 <0>        -0.0265
      23  C19         7.5140   37.5640   58.9540  C.3       1 <0>        -0.1395
      24  C20         8.4120   35.7220   57.5260  C.3       1 <0>        -0.1466
      25  C21         7.9000   37.9510   56.5160  C.3       1 <0>        -0.1393
@<TRIPOS>BOND
     1     1     2 1
     2     2     7 ar
     3     2     3 ar
     4     3     4 ar
     5     4     5 ar
     6     5     6 ar
     7     5     8 1
     8     6     7 ar
     9     8     9 2
    10     9    10 1
    11    10    11 am
    12    11    12 2
    13    11    13 1
    14    13    14 1
    15    13    15 1
    16    15    16 1
    17    16    21 ar
    18    16    17 ar
    19    17    18 ar
    20    18    19 ar
    21    19    20 ar
    22    19    22 1
    23    20    21 ar
    24    22    23 1
    25    22    24 1
    26    22    25 1

@<TRIPOS>MOLECULE
ZINC00621513_replica-1.pdb
 24 26 0 0 0
SMALL
GASTEIGER

@<TRIPOS>ATOM
       1  C1          1.8590   28.7270   58.6880  C.3       1 <0>        -0.1587
       2  C2          0.8830   29.6360   57.9370  C.3       1 <0>         0.1901
       3  C3          0.7400   30.9400   58.6780  C.ar      1 <0>        -0.1367
       4  C4          0.5250   32.1120   57.9760  C.ar      1 <0>        -0.0769
       5  C5          0.3880   33.3090   58.6530  C.ar      1 <0>        -0.2042
       6  C6          0.4780   33.3350   60.0370  C.ar      1 <0>         0.1333
       7  C7          0.7000   32.1600   60.7380  C.ar      1 <0>        -0.1450
       8  C8          0.8300   30.9650   60.0570  C.ar      1 <0>        -0.0596
       9  O1          0.3510   34.5120   60.7050  O.3       1 <0>        -0.3153
      10  C9         -0.4120   34.4940   61.9120  C.3       1 <0>         0.0258
      11  N1         -0.4230   28.9790   57.8470  N.pl3     1 <0>        -0.6741
      12  C10        -1.0560   28.8980   56.6590  C.2       1 <0>         0.5571
      13  S1         -2.7400   28.5960   56.6060  S.2       1 <0>        -0.6102
      14  N2         -0.3630   29.0550   55.5150  N.pl3     1 <0>        -0.6279
      15  C11        -1.0310   29.0600   54.2900  C.ar      1 <0>         0.1133
      16  C12        -1.8020   30.1430   53.9220  C.ar      1 <0>        -0.0505
      17  C13        -2.4770   30.1560   52.7050  C.ar      1 <0>        -0.1085
      18  C14        -2.3850   29.1080   51.8400  C.ar      1 <0>        -0.0959
      19  C15        -1.6050   27.9880   52.1740  C.ar      1 <0>        -0.0513
      20  C16        -0.9190   27.9610   53.4120  C.ar      1 <0>        -0.0393
      21  C17        -0.1380   26.8420   53.7440  C.ar      1 <0>        -0.1203
      22  C18        -0.0530   25.7980   52.8730  C.ar      1 <0>        -0.1054
      23  C19        -0.7280   25.8240   51.6540  C.ar      1 <0>        -0.1237
      24  C20        -1.4920   26.8930   51.2990  C.ar      1 <0>        -0.0942
@<TRIPOS>BOND
     1     1     2 1
     2     2     3 1
     3     2    11 1
     4     3     8 ar
     5     3     4 ar
     6     4     5 ar
     7     5     6 ar
     8     6     7 ar
     9     6     9 1
    10     7     8 ar
    11     9    10 1
    12    11    12 1
    13    12    13 2
    14    12    14 1
    15    14    15 1
    16    15    20 ar
    17    15    16 ar
    18    16    17 ar
    19    17    18 ar
    20    18    19 ar
    21    19    24 ar
    22    19    20 ar
    23    20    21 ar
    24    21    22 ar
    25    22    23 ar
    26    23    24 ar

@<TRIPOS>MOLECULE
ZINC45928991_replica-1.pdb
 23 24 0 0 0
SMALL
GASTEIGER

@<TRIPOS>ATOM
       1  C1         -0.7300   26.3820   51.6360  C.ar      1 <0>        -0.1563
       2  C2         -0.2040   26.2300   52.9060  C.ar      1 <0>        -0.0800
       3  C3         -0.4030   27.2090   53.8590  C.ar      1 <0>        -0.1507
       4  C4         -1.1330   28.3460   53.5430  C.ar      1 <0>         0.1259
       5  C5         -1.6600   28.4960   52.2690  C.ar      1 <0>        -0.2093
       6  C6         -1.4580   27.5140   51.3190  C.ar      1 <0>        -0.0801
       7  O1         -1.3320   29.3100   54.4810  O.3       1 <0>        -0.3139
       8  C7         -0.6160   30.5350   54.3110  C.3       1 <0>         0.0449
       9  C8          0.3990   30.6930   55.4450  C.3       1 <0>         0.1221
      10  N1          1.0320   32.0110   55.3560  N.am      1 <0>        -0.7161
      11  C9          1.8880   32.4140   56.3150  C.2       1 <0>         0.5568
      12  O2          2.1350   31.6840   57.2560  O.2       1 <0>        -0.5091
      13  C10         2.5240   33.7410   56.2250  C.ar      1 <0>        -0.1162
      14  C11         3.6860   33.9150   55.4690  C.ar      1 <0>        -0.0646
      15  C12         4.2750   35.1570   55.3880  C.ar      1 <0>        -0.1190
      16  C13         3.7220   36.2390   56.0550  C.ar      1 <0>        -0.0646
      17  C14         2.5750   36.0850   56.8060  C.ar      1 <0>        -0.1302
      18  C15         1.9620   34.8410   56.8950  C.ar      1 <0>        -0.0624
      19  S1          0.4920   34.6420   57.8460  S.3       1 <0>         0.0927
      20  C16         1.0970   34.2170   59.5030  C.3       1 <0>         0.3943
      21  F1          0.5460   35.0990   60.4400  F         1 <0>        -0.1733
      22  F2          0.7170   32.9080   59.8160  F         1 <0>        -0.1510
      23  F3          2.4910   34.3180   59.5310  F         1 <0>        -0.1731
@<TRIPOS>BOND
     1     1     6 ar
     2     1     2 ar
     3     2     3 ar
     4     3     4 ar
     5     4     5 ar
     6     4     7 1
     7     5     6 ar
     8     7     8 1
     9     8     9 1
    10     9    10 1
    11    10    11 am
    12    11    12 2
    13    11    13 1
    14    13    18 ar
    15    13    14 ar
    16    14    15 ar
    17    15    16 ar
    18    16    17 ar
    19    17    18 ar
    20    18    19 1
    21    19    20 1
    22    20    21 1
    23    20    22 1
    24    20    23 1

@<TRIPOS>MOLECULE
ZINC21257301_replica-1.pdb
 35 39 0 0 0
SMALL
GASTEIGER

@<TRIPOS>ATOM
       1  C1         15.7500   33.9830   64.8580  C.3       1 <0>        -0.1821
       2  C2         14.6850   33.5950   63.8310  C.3       1 <0>         0.0770
       3  C3         15.2780   33.6800   62.4230  C.3       1 <0>        -0.1511
       4  O1         13.5750   34.4880   63.9360  O.3       1 <0>        -0.3162
       5  C4         12.5290   34.2740   63.0950  C.ar      1 <0>         0.1343
       6  C5         11.9670   33.0100   62.9930  C.ar      1 <0>        -0.2093
       7  C6         10.9000   32.7970   62.1410  C.ar      1 <0>        -0.0720
       8  C7         10.4010   33.8390   61.3820  C.ar      1 <0>        -0.1197
       9  C8         10.9630   35.0980   61.4770  C.ar      1 <0>        -0.0709
      10  C9         12.0260   35.3180   62.3320  C.ar      1 <0>        -0.1513
      11  C10         9.2410   33.6010   60.4500  C.3       1 <0>        -0.0295
      12  C11         9.6210   34.0250   59.0320  C.3       1 <0>        -0.1025
      13  C12         8.4600   33.7690   58.0850  C.2       1 <0>         0.2640
      14  C13         7.6210   32.7410   58.2970  C.2       1 <0>        -0.2980
      15  C14         6.4340   32.3750   57.4390  C.3       1 <0>         0.2915
      16  N1          6.3760   33.0620   56.1680  N.pl3     1 <0>        -0.7817
      17  C15         6.2040   34.4440   56.1050  C.ar      1 <0>         0.1782
      18  C16         5.0670   35.0090   55.5500  C.ar      1 <0>        -0.1273
      19  C17         4.9200   36.3850   55.5530  C.ar      1 <0>        -0.1087
      20  C18         5.8970   37.1920   56.1070  C.ar      1 <0>        -0.1264
      21  C19         7.0410   36.6320   56.6480  C.ar      1 <0>        -0.1176
      22  C20         7.1990   35.2580   56.6250  C.ar      1 <0>         0.1143
      23  N2          8.3710   34.6380   57.0470  N.pl3     1 <0>        -0.6985
      24  C21         5.1750   32.6880   58.2060  C.ar      1 <0>        -0.1358
      25  C22         5.1780   33.6970   59.1520  C.ar      1 <0>        -0.0564
      26  C23         4.0250   33.9920   59.8520  C.ar      1 <0>        -0.1972
      27  C24         2.8640   33.2660   59.6140  C.ar      1 <0>         0.2121
      28  C25         2.8660   32.2500   58.6670  C.ar      1 <0>        -0.1981
      29  C26         4.0220   31.9640   57.9660  C.ar      1 <0>        -0.0437
      30  N3          1.6970   33.5580   60.3250  N.pl3     1 <0>        -0.6401
      31  C27         0.7530   34.5500   59.8050  C.3       1 <0>         0.0944
      32  C28         1.4190   32.8730   61.5890  C.3       1 <0>         0.0952
      33  C29         7.8040   31.8910   59.4150  C.2       1 <0>         0.4003
      34  O2          7.0470   30.9530   59.5670  O.2       1 <0>        -0.4707
      35  C30         8.8990   32.1070   60.4150  C.3       1 <0>        -0.1596
@<TRIPOS>BOND
     1     1     2 1
     2     2     3 1
     3     2     4 1
     4     4     5 1
     5     5    10 ar
     6     5     6 ar
     7     6     7 ar
     8     7     8 ar
     9     8     9 ar
    10     8    11 1
    11     9    10 ar
    12    11    35 1
    13    11    12 1
    14    12    13 1
    15    13    23 1
    16    13    14 2
    17    14    15 1
    18    14    33 1
    19    15    16 1
    20    15    24 1
    21    16    17 1
    22    17    22 ar
    23    17    18 ar
    24    18    19 ar
    25    19    20 ar
    26    20    21 ar
    27    21    22 ar
    28    22    23 1
    29    24    29 ar
    30    24    25 ar
    31    25    26 ar
    32    26    27 ar
    33    27    28 ar
    34    27    30 1
    35    28    29 ar
    36    30    31 1
    37    30    32 1
    38    33    34 2
    39    33    35 1

@<TRIPOS>MOLECULE
ZINC19989366_replica-1.pdb
 20 21 0 0 0
SMALL
GASTEIGER

@<TRIPOS>ATOM
       1  C1         15.4470   33.5830   64.5530  C.3       1 <0>        -0.1498
       2  C2         14.7180   32.3960   63.9180  C.3       1 <0>        -0.0905
       3  C3         13.4900   32.8880   63.1960  C.ar      1 <0>        -0.0673
       4  C4         13.5150   34.1030   62.5380  C.ar      1 <0>        -0.1196
       5  C5         12.3890   34.5530   61.8760  C.ar      1 <0>        -0.0965
       6  C6         11.2360   33.7890   61.8720  C.ar      1 <0>        -0.1087
       7  C7         11.2090   32.5770   62.5360  C.ar      1 <0>        -0.0840
       8  C8         12.3380   32.1240   63.1930  C.ar      1 <0>        -0.1197
       9  C9         10.0080   34.2810   61.1510  C.3       1 <0>         0.2226
      10  C10         9.3420   33.1490   60.4870  C.1       1 <0>         0.2173
      11  N1          8.8280   32.2750   59.9740  N.1       1 <0>        -0.4181
      12  N2         10.3980   35.2770   60.1450  N.3       1 <0>        -0.6568
      13  C11         9.7310   36.5630   60.3900  C.3       1 <0>         0.0845
      14  C12         9.0430   37.0220   59.1310  C.ar      1 <0>        -0.0904
      15  C13         8.5870   38.3230   59.0270  C.ar      1 <0>        -0.1070
      16  C14         7.9590   38.7450   57.8700  C.ar      1 <0>        -0.1220
      17  C15         7.7810   37.8640   56.8200  C.ar      1 <0>        -0.0815
      18  C16         8.2340   36.5620   56.9250  C.ar      1 <0>        -0.1217
      19  C17         8.8650   36.1410   58.0810  C.ar      1 <0>        -0.0916
      20  C18         7.0930   38.3230   55.5590  C.3       1 <0>        -0.1200
@<TRIPOS>BOND
     1     1     2 1
     2     2     3 1
     3     3     8 ar
     4     3     4 ar
     5     4     5 ar
     6     5     6 ar
     7     6     7 ar
     8     6     9 1
     9     7     8 ar
    10     9    10 1
    11     9    12 1
    12    10    11 3
    13    12    13 1
    14    13    14 1
    15    14    19 ar
    16    14    15 ar
    17    15    16 ar
    18    16    17 ar
    19    17    18 ar
    20    17    20 1
    21    18    19 ar

@<TRIPOS>MOLECULE
ZINC62171466_replica-1.pdb
 21 23 0 0 0
SMALL
GASTEIGER

@<TRIPOS>ATOM
       1  C1          7.2130   37.1500   60.6360  C.3       1 <0>        -0.1710
       2  C2          8.5590   37.1700   59.9080  C.3       1 <0>         0.1529
       3  C3          8.5430   38.2620   58.8360  C.3       1 <0>        -0.0897
       4  C4          8.2080   37.6500   57.5000  C.ar      1 <0>        -0.0806
       5  C5          7.5650   38.4030   56.5370  C.ar      1 <0>        -0.1110
       6  C6          7.2570   37.8420   55.3120  C.ar      1 <0>        -0.1169
       7  C7          7.5940   36.5270   55.0490  C.ar      1 <0>        -0.1232
       8  C8          8.2390   35.7740   56.0130  C.ar      1 <0>        -0.1170
       9  C9          8.5500   36.3360   57.2360  C.ar      1 <0>        -0.1176
      10  N1          9.6290   37.4440   60.8680  N.pl3     1 <0>        -0.7357
      11  C10        10.4260   36.4000   61.3430  C.ar      1 <0>         0.2331
      12  C11        10.3840   35.1580   60.7220  C.ar      1 <0>        -0.2016
      13  C12        11.1700   34.1260   61.1890  C.ar      1 <0>        -0.0399
      14  C13        12.0070   34.3290   62.2850  C.ar      1 <0>        -0.0834
      15  C14        12.0470   35.5760   62.9070  C.ar      1 <0>        -0.0423
      16  C15        11.2640   36.6070   62.4330  C.ar      1 <0>        -0.1988
      17  C16        12.8530   33.2190   62.7900  C.2       1 <0>         0.1302
      18  C17        12.3970   31.9490   63.1960  C.2       1 <0>        -0.2664
      19  C18        13.4720   31.2300   63.5870  C.2       1 <0>         0.0591
      20  N2         14.5680   32.0040   63.4380  N.pl3     1 <0>        -0.4787
      21  N3         14.1610   33.2450   62.9320  N.2       1 <0>        -0.2946
@<TRIPOS>BOND
     1     1     2 1
     2     2     3 1
     3     2    10 1
     4     3     4 1
     5     4     9 ar
     6     4     5 ar
     7     5     6 ar
     8     6     7 ar
     9     7     8 ar
    10     8     9 ar
    11    10    11 1
    12    11    16 ar
    13    11    12 ar
    14    12    13 ar
    15    13    14 ar
    16    14    15 ar
    17    14    17 1
    18    15    16 ar
    19    17    21 2
    20    17    18 1
    21    18    19 2
    22    19    20 1
    23    20    21 1

@<TRIPOS>MOLECULE
ZINC03373748_replica-1.pdb
 27 29 0 0 0
SMALL
GASTEIGER

@<TRIPOS>ATOM
       1  C1          9.9160   36.6360   60.8350  C.3       1 <0>        -0.1151
       2  C2          9.2680   36.9790   59.5180  C.ar      1 <0>        -0.1215
       3  C3          8.7800   38.2520   59.2990  C.ar      1 <0>        -0.0924
       4  C4          8.1810   38.5660   58.0930  C.ar      1 <0>        -0.1379
       5  C5          8.0720   37.6090   57.1010  C.ar      1 <0>        -0.0928
       6  C6          8.5620   36.3350   57.3120  C.ar      1 <0>        -0.1574
       7  C7          9.1640   36.0160   58.5230  C.ar      1 <0>         0.1558
       8  N1          9.6620   34.7290   58.7400  N.pl3     1 <0>        -0.5980
       9  C8          8.8040   33.7110   59.1440  C.2       1 <0>         0.3348
      10  N2          8.2300   33.5170   60.3150  N.2       1 <0>        -0.3548
      11  N3          7.4020   32.4340   60.5020  N.2       1 <0>        -0.2819
      12  C9          7.1950   31.5890   59.5100  C.2       1 <0>         0.0284
      13  S1          8.1860   32.3170   58.2140  S.3       1 <0>         0.0268
      14  S2          6.2010   30.1340   59.4730  S.3       1 <0>         0.1354
      15  C10         4.9210   30.4440   60.7200  C.3       1 <0>        -0.1616
      16  C11         3.9330   31.4500   60.1870  C.2       1 <0>         0.5370
      17  O1          3.1460   31.1270   59.3230  O.2       1 <0>        -0.5011
      18  N4          3.9240   32.7080   60.6710  N.am      1 <0>        -0.6628
      19  C12         3.0690   33.6650   60.1150  C.ar      1 <0>         0.1402
      20  C13         1.7010   33.5980   60.3520  C.ar      1 <0>        -0.1157
      21  C14         0.8600   34.5470   59.8060  C.ar      1 <0>        -0.1064
      22  C15         1.3770   35.5580   59.0150  C.ar      1 <0>        -0.1266
      23  C16         2.7370   35.6250   58.7740  C.ar      1 <0>        -0.0988
      24  C17         3.5830   34.6810   59.3210  C.ar      1 <0>        -0.0968
      25  C18         5.0660   34.7540   59.0560  C.3       1 <0>        -0.0564
      26  C19         5.3170   34.6920   57.5480  C.3       1 <0>        -0.1443
      27  C20         5.6190   36.0670   59.6120  C.3       1 <0>        -0.1459
@<TRIPOS>BOND
     1     1     2 1
     2     2     7 ar
     3     2     3 ar
     4     3     4 ar
     5     4     5 ar
     6     5     6 ar
     7     6     7 ar
     8     7     8 1
     9     8     9 1
    10     9    13 1
    11     9    10 2
    12    10    11 1
    13    11    12 2
    14    12    13 1
    15    12    14 1
    16    14    15 1
    17    15    16 1
    18    16    17 2
    19    16    18 am
    20    18    19 1
    21    19    24 ar
    22    19    20 ar
    23    20    21 ar
    24    21    22 ar
    25    22    23 ar
    26    23    24 ar
    27    24    25 1
    28    25    26 1
    29    25    27 1

@<TRIPOS>MOLECULE
ZINC02407757_replica-1.pdb
 22 24 0 0 0
SMALL
GASTEIGER

@<TRIPOS>ATOM
       1  C1          8.7910   38.5060   57.3680  C.3       1 <0>        -0.1195
       2  C2          7.7180   37.4800   57.1100  C.ar      1 <0>        -0.0584
       3  C3          6.9800   37.5310   55.9430  C.ar      1 <0>        -0.1113
       4  C4          5.9950   36.5900   55.7050  C.ar      1 <0>        -0.0932
       5  C5          5.7440   35.5980   56.6360  C.ar      1 <0>        -0.1141
       6  C6          6.4820   35.5390   57.8000  C.ar      1 <0>        -0.0881
       7  C7          7.4720   36.4830   58.0430  C.ar      1 <0>         0.0848
       8  N1          8.2200   36.4280   59.2260  N.am      1 <0>        -0.5319
       9  C8          9.2860   35.6440   59.2600  C.2       1 <0>         0.5103
      10  O1          9.6310   34.9790   58.3070  O.2       1 <0>        -0.4286
      11  C9         10.0510   35.6390   60.5750  C.3       1 <0>         0.1793
      12  S1          9.0200   36.8120   61.5430  S.3       1 <0>        -0.1878
      13  C10         7.8150   37.1700   60.2730  C.2       1 <0>         0.5692
      14  O2          6.8540   37.9110   60.3390  O.2       1 <0>        -0.3995
      15  N2         10.0500   34.3050   61.1810  N.pl3     1 <0>        -0.6936
      16  C11        11.2130   33.8100   61.7810  C.ar      1 <0>         0.1886
      17  C12        11.1890   32.5880   62.4410  C.ar      1 <0>        -0.1421
      18  C13        12.3390   32.0990   63.0270  C.ar      1 <0>        -0.1058
      19  C14        13.5140   32.8290   62.9660  C.ar      1 <0>         0.0579
      20  C15        13.5380   34.0510   62.3140  C.ar      1 <0>        -0.1046
      21  C16        12.3920   34.5420   61.7220  C.ar      1 <0>        -0.1573
      22  F1         14.6360   32.3510   63.5450  F         1 <0>        -0.1403
@<TRIPOS>BOND
     1     1     2 1
     2     2     7 ar
     3     2     3 ar
     4     3     4 ar
     5     4     5 ar
     6     5     6 ar
     7     6     7 ar
     8     7     8 1
     9     8    13 am
    10     8     9 am
    11     9    10 2
    12     9    11 1
    13    11    12 1
    14    11    15 1
    15    12    13 1
    16    13    14 2
    17    15    16 1
    18    16    21 ar
    19    16    17 ar
    20    17    18 ar
    21    18    19 ar
    22    19    20 ar
    23    19    22 1
    24    20    21 ar

@<TRIPOS>MOLECULE
ZINC17113631_replica-1.pdb
 33 37 0 0 0
SMALL
GASTEIGER

@<TRIPOS>ATOM
       1  C1          6.0790   28.1740   59.2710  C.3       1 <0>        -0.1431
       2  C2          6.2520   29.6700   59.0040  C.3       1 <0>        -0.0570
       3  C3          6.9660   29.8700   57.6650  C.3       1 <0>        -0.1430
       4  C4          4.8990   30.3320   58.9540  C.ar      1 <0>        -0.0789
       5  C5          4.5980   31.2160   57.9350  C.ar      1 <0>        -0.1190
       6  C6          3.3570   31.8240   57.8910  C.ar      1 <0>        -0.0848
       7  C7          2.4160   31.5450   58.8650  C.ar      1 <0>        -0.0657
       8  C8          2.7190   30.6650   59.8870  C.ar      1 <0>        -0.1087
       9  C9          3.9580   30.0540   59.9300  C.ar      1 <0>        -0.1199
      10  C10         1.0640   32.2080   58.8170  C.3       1 <0>         0.0956
      11  C11         0.1860   31.4670   57.8540  C.2       1 <0>        -0.2932
      12  C12        -0.3980   30.2500   58.2220  C.2       1 <0>         0.5465
      13  O1         -0.2050   29.7770   59.3300  O.2       1 <0>        -0.5170
      14  N1         -1.1830   29.6110   57.3280  N.am      1 <0>        -0.6205
      15  C13        -1.3870   30.1440   56.0920  C.2       1 <0>         0.3943
      16  N2         -0.8400   31.2910   55.7410  N.2       1 <0>        -0.5617
      17  C14        -0.0590   31.9710   56.5880  C.2       1 <0>         0.4229
      18  N3          0.5040   33.1730   56.2100  N.pl3     1 <0>        -0.6229
      19  C15         0.9570   34.0570   57.1520  C.2       1 <0>         0.2186
      20  C16         1.2360   33.6490   58.4070  C.2       1 <0>        -0.2640
      21  C17         1.7000   34.5560   59.3760  C.2       1 <0>         0.3997
      22  O2          1.9200   34.1620   60.5050  O.2       1 <0>        -0.4606
      23  C18         1.9310   36.0050   59.0440  C.3       1 <0>        -0.1592
      24  C19         2.2740   36.1240   57.5540  C.3       1 <0>        -0.1122
      25  C20         1.1350   35.5000   56.7460  C.3       1 <0>        -0.0946
      26  S1         -2.4090   29.2890   54.9400  S.3       1 <0>         0.0184
      27  C21        -1.3930   29.4330   53.4490  C.3       1 <0>        -0.0557
      28  C22        -1.0800   28.0580   52.9180  C.ar      1 <0>        -0.0933
      29  C23        -1.5500   27.6740   51.6750  C.ar      1 <0>        -0.0973
      30  C24        -1.2630   26.4130   51.1880  C.ar      1 <0>        -0.1192
      31  C25        -0.5070   25.5360   51.9430  C.ar      1 <0>        -0.1063
      32  C26        -0.0370   25.9200   53.1850  C.ar      1 <0>        -0.1192
      33  C27        -0.3240   27.1810   53.6730  C.ar      1 <0>        -0.0973
@<TRIPOS>BOND
     1     1     2 1
     2     2     3 1
     3     2     4 1
     4     4     9 ar
     5     4     5 ar
     6     5     6 ar
     7     6     7 ar
     8     7     8 ar
     9     7    10 1
    10     8     9 ar
    11    10    20 1
    12    10    11 1
    13    11    17 2
    14    11    12 1
    15    12    13 2
    16    12    14 am
    17    14    15 1
    18    15    16 2
    19    15    26 1
    20    16    17 1
    21    17    18 1
    22    18    19 1
    23    19    25 1
    24    19    20 2
    25    20    21 1
    26    21    22 2
    27    21    23 1
    28    23    24 1
    29    24    25 1
    30    26    27 1
    31    27    28 1
    32    28    33 ar
    33    28    29 ar
    34    29    30 ar
    35    30    31 ar
    36    31    32 ar
    37    32    33 ar

@<TRIPOS>MOLECULE
ZINC64676146_replica-1.pdb
 27 30 0 0 0
SMALL
GASTEIGER

@<TRIPOS>ATOM
       1  C1          0.1640   33.5420   60.6790  C.3       1 <0>        -0.1172
       2  C2          1.3990   34.1710   60.0860  C.ar      1 <0>        -0.0808
       3  C3          2.6480   33.6720   60.4060  C.ar      1 <0>        -0.1203
       4  C4          3.7820   34.2430   59.8660  C.ar      1 <0>        -0.0841
       5  C5          3.6660   35.3260   58.9960  C.ar      1 <0>        -0.0153
       6  C6          2.4040   35.8250   58.6770  C.ar      1 <0>        -0.1015
       7  C7          1.2770   35.2420   59.2190  C.ar      1 <0>        -0.1198
       8  C8          4.8820   35.9450   58.4130  C.2       1 <0>         0.0847
       9  C9          5.8660   36.5700   59.1050  C.2       1 <0>        -0.0270
      10  N1          6.8140   37.0040   58.1860  N.pl3     1 <0>        -0.4218
      11  C10         8.0160   37.6800   58.1950  C.2       1 <0>         0.0777
      12  C11         8.6680   37.9250   57.0600  C.2       1 <0>        -0.1654
      13  S1          7.5860   37.1900   55.8440  S.3       1 <0>         0.1435
      14  C12         6.3350   36.6070   56.9650  C.2       1 <0>         0.1840
      15  N2          5.2030   35.9810   57.1040  N.2       1 <0>        -0.4323
      16  C13         8.5990   38.1450   59.5040  C.3       1 <0>        -0.0884
      17  C14         8.9820   36.9490   60.3370  C.2       1 <0>         0.5112
      18  O1          8.4730   36.7800   61.4250  O.2       1 <0>        -0.5022
      19  N3          9.8890   36.0670   59.8730  N.am      1 <0>        -0.6708
      20  C15        10.3170   35.0100   60.6840  C.ar      1 <0>         0.1357
      21  C16         9.6430   33.7950   60.6570  C.ar      1 <0>        -0.1441
      22  C17        10.0680   32.7540   61.4590  C.ar      1 <0>        -0.0987
      23  C18        11.1620   32.9190   62.2880  C.ar      1 <0>        -0.0977
      24  C19        11.8350   34.1270   62.3170  C.ar      1 <0>        -0.0684
      25  C20        11.4190   35.1720   61.5140  C.ar      1 <0>        -0.1153
      26  C21        13.0260   34.3040   63.2230  C.3       1 <0>        -0.1187
      27  C22        11.6230   31.7810   63.1610  C.3       1 <0>        -0.1181
@<TRIPOS>BOND
     1     1     2 1
     2     2     7 ar
     3     2     3 ar
     4     3     4 ar
     5     4     5 ar
     6     5     6 ar
     7     5     8 1
     8     6     7 ar
     9     8    15 1
    10     8     9 2
    11     9    10 1
    12    10    14 1
    13    10    11 1
    14    11    12 2
    15    11    16 1
    16    12    13 1
    17    13    14 1
    18    14    15 2
    19    16    17 1
    20    17    18 2
    21    17    19 am
    22    19    20 1
    23    20    25 ar
    24    20    21 ar
    25    21    22 ar
    26    22    23 ar
    27    23    24 ar
    28    23    27 1
    29    24    25 ar
    30    24    26 1

@<TRIPOS>MOLECULE
ZINC40123993_replica-1.pdb
 28 30 0 0 0
SMALL
GASTEIGER

@<TRIPOS>ATOM
       1  C1         11.3970   36.7070   62.8140  C.3       1 <0>        -0.1001
       2  C2         10.6890   36.2180   61.5770  C.ar      1 <0>        -0.1341
       3  C3          9.6890   36.9760   61.0110  C.ar      1 <0>        -0.0365
       4  C4          9.0330   36.5210   59.8630  C.ar      1 <0>        -0.1686
       5  C5          9.3960   35.2960   59.2950  C.ar      1 <0>        -0.0290
       6  C6         10.3970   34.5440   59.8670  C.ar      1 <0>        -0.2221
       7  C7         11.0510   35.0030   61.0050  C.ar      1 <0>         0.1399
       8  O1         12.0410   34.2610   61.5620  O.3       1 <0>        -0.3088
       9  C8         11.6440   33.1650   62.3890  C.3       1 <0>         0.0845
      10  C9         12.8660   32.5210   62.9910  C.2       1 <0>        -0.1535
      11  C10        14.0230   33.1320   62.9350  C.2       1 <0>        -0.1740
      12  C11         7.9600   37.3300   59.2530  C.2       1 <0>         0.5068
      13  O2          7.6980   38.4300   59.7030  O.2       1 <0>        -0.4757
      14  C12         7.2110   36.8100   58.1050  C.2       1 <0>        -0.5033
      15  C13         7.6090   36.8170   56.8110  C.2       1 <0>         0.2611
      16  C14         6.5580   36.1970   55.9780  C.2       1 <0>         0.5113
      17  O3          6.6170   36.0550   54.7720  O.2       1 <0>        -0.5391
      18  N1          5.5260   35.8130   56.7500  N.am      1 <0>        -0.7242
      19  C15         5.8500   36.1560   58.1390  C.3       1 <0>         0.2613
      20  C16         5.8930   34.9110   58.9870  C.ar      1 <0>        -0.0731
      21  C17         6.4160   33.7410   58.4680  C.ar      1 <0>        -0.0726
      22  C18         6.4570   32.5980   59.2420  C.ar      1 <0>        -0.0977
      23  C19         5.9740   32.6260   60.5450  C.ar      1 <0>        -0.0910
      24  C20         5.4510   33.8040   61.0640  C.ar      1 <0>        -0.1327
      25  C21         5.4170   34.9430   60.2850  C.ar      1 <0>        -0.0966
      26  S1          6.0240   31.1700   61.5360  S.3       1 <0>        -0.1350
      27  C22         7.0140   30.0060   60.5570  C.3       1 <0>        -0.1402
      28  O4          8.7810   37.3140   56.3540  O.3       1 <0>        -0.6538
@<TRIPOS>BOND
     1     1     2 1
     2     2     7 ar
     3     2     3 ar
     4     3     4 ar
     5     4     5 ar
     6     4    12 1
     7     5     6 ar
     8     6     7 ar
     9     7     8 1
    10     8     9 1
    11     9    10 1
    12    10    11 2
    13    12    13 2
    14    12    14 1
    15    14    19 1
    16    14    15 2
    17    15    16 1
    18    15    28 1
    19    16    17 2
    20    16    18 am
    21    18    19 1
    22    19    20 1
    23    20    25 ar
    24    20    21 ar
    25    21    22 ar
    26    22    23 ar
    27    23    24 ar
    28    23    26 1
    29    24    25 ar
    30    26    27 1

@<TRIPOS>MOLECULE
ZINC32675363_replica-1.pdb
 24 25 0 0 0
SMALL
GASTEIGER

@<TRIPOS>ATOM
      1  C11       -0.0790   32.0960   56.7200 C.2     0  <0>0        0.2811
      2  O2         0.9870   31.9820   56.1530 O.2     0  <0>0       -0.2697
      3  N1        -0.2960   33.1410   57.5430 N.am    0  <0>0       -0.2289
      4  H14       -1.2630   33.2450   58.0570 H       0  <0>0        0.1707
      5  C10       -1.1610   31.0690   56.5030 C.3     0  <0>0        0.2907
      6  O1        -0.5910   29.7600   56.5450 O.3     0  <0>0       -0.4656
      7  C7        -0.6030   29.0450   55.3900 C.ar    0  <0>0        0.1393
      8  C6         0.1330   27.8730   55.2900 C.ar    0  <0>0        0.0366
      9  C5         0.1190   27.1480   54.1140 C.ar    0  <0>0       -0.0012
     10  C4        -0.6280   27.5890   53.0370 C.ar    0  <0>0       -0.0223
     11  C9        -1.3630   28.7560   53.1350 C.ar    0  <0>0       -0.0012
     12  C8        -1.3510   29.4840   54.3080 C.ar    0  <0>0        0.0366
     13  C2        -0.6420   26.7950   51.7560 C.3     0  <0>0        0.0224
     14  C1        -0.6490   25.3000   52.0820 C.3     0  <0>0        0.0047
     15  C3        -1.8950   27.1490   50.9520 C.3     0  <0>0        0.0047
     16  N2         0.7100   34.0950   57.7440 N.3     0  <0>0       -0.1265
     17  C12        1.0160   34.4710   58.9470 C.3     0  <0>0        0.1378
     18  C13        0.6880   33.6060   60.0960 C.ar    0  <0>0       -0.0029
     19  C18       -0.0990   34.0970   61.1410 C.ar    0  <0>0       -0.0019
     20  C17       -0.4020   33.2840   62.2120 C.ar    0  <0>0        0.0111
     21  C16        0.0730   31.9830   62.2550 C.ar    0  <0>0        0.0577
     22  C15        0.8550   31.4910   61.2230 C.ar    0  <0>0        0.0111
     23 Cl         -0.3130   30.9660   63.6070 Cl      0  <0>0       -0.0822
     24  C14        1.1590   32.2920   60.1420 C.ar    0  <0>0       -0.0019
@<TRIPOS>BOND
     1    15    13    1
     2    13    14    1
     3    13    10    1
     4    10    11   ar
     5    10     9   ar
     6    11    12   ar
     7     9     8   ar
     8    12     7   ar
     9     8     7   ar
    10     7     6    1
    11     2     1    2
    12     5     6    1
    13     5     1    1
    14     1     3   am
    15     3    16    1
    16     3     4    1
    17    16    17    1
    18    17    18    1
    19    18    24   ar
    20    18    19   ar
    21    24    22   ar
    22    19    20   ar
    23    22    21   ar
    24    20    21   ar
    25    21    23    1


@<TRIPOS>MOLECULE
ZINC02783386_replica-1.pdb
 22 23 0 0 0
SMALL
GASTEIGER

@<TRIPOS>ATOM
       1  C1         -0.5750   25.0370   51.5560  C.3       1 <0>        -0.1168
       2  C2         -0.7230   26.3790   52.2270  C.ar      1 <0>        -0.0874
       3  C3         -1.4650   27.3750   51.6200  C.ar      1 <0>        -0.1002
       4  C4         -1.6030   28.6060   52.2310  C.ar      1 <0>        -0.0924
       5  C5         -0.9940   28.8420   53.4580  C.ar      1 <0>        -0.0941
       6  C6         -0.2440   27.8410   54.0620  C.ar      1 <0>        -0.1298
       7  C7         -0.1160   26.6110   53.4480  C.ar      1 <0>        -0.1017
       8  S1         -1.1670   30.4110   54.2420  S.3       1 <0>        -0.0754
       9  C8          0.1780   30.4450   55.4570  C.3       1 <0>        -0.1361
      10  C9         -0.0420   31.6050   56.4300  C.3       1 <0>         0.1425
      11  N1          0.5360   32.8290   55.8690  N.pl3     1 <0>        -0.6801
      12  C10         1.7150   33.2910   56.3340  C.2       1 <0>         0.5545
      13  S2          2.7330   32.2680   57.2530  S.2       1 <0>        -0.6022
      14  N2          2.0900   34.5590   56.0730  N.pl3     1 <0>        -0.6295
      15  C11         3.2570   35.0750   56.6480  C.ar      1 <0>         0.1271
      16  C12         3.2690   35.4400   57.9880  C.ar      1 <0>        -0.0709
      17  C13         4.4220   35.9490   58.5530  C.ar      1 <0>        -0.1126
      18  C14         5.5640   36.0950   57.7860  C.ar      1 <0>        -0.1085
      19  C15         5.5550   35.7320   56.4520  C.ar      1 <0>        -0.0831
      20  C16         4.4060   35.2170   55.8820  C.ar      1 <0>        -0.0886
      21  C17         4.3990   34.8160   54.4300  C.3       1 <0>        -0.1181
      22  C18         6.8010   35.8920   55.6200  C.3       1 <0>        -0.1149
@<TRIPOS>BOND
     1     1     2 1
     2     2     7 ar
     3     2     3 ar
     4     3     4 ar
     5     4     5 ar
     6     5     6 ar
     7     5     8 1
     8     6     7 ar
     9     8     9 1
    10     9    10 1
    11    10    11 1
    12    11    12 1
    13    12    13 2
    14    12    14 1
    15    14    15 1
    16    15    20 ar
    17    15    16 ar
    18    16    17 ar
    19    17    18 ar
    20    18    19 ar
    21    19    20 ar
    22    19    22 1
    23    20    21 1

@<TRIPOS>MOLECULE
ZINC66183481_replica-1.pdb
 21 22 0 0 0
SMALL
GASTEIGER

@<TRIPOS>ATOM
       1  C1         14.4070   33.6950   62.7320  C.ar      1 <0>        -0.0705
       2  C2         14.1410   32.4810   63.3410  C.ar      1 <0>        -0.1303
       3  C3         12.8720   31.9380   63.2830  C.ar      1 <0>        -0.1325
       4  C4         11.8630   32.6060   62.6170  C.ar      1 <0>        -0.1456
       5  C5         12.1250   33.8250   62.0040  C.ar      1 <0>         0.2161
       6  C6         13.4020   34.3680   62.0640  C.ar      1 <0>        -0.1659
       7  N1         11.1070   34.5030   61.3300  N.pl3     1 <0>        -0.7431
       8  C7         10.7910   35.8890   61.6830  C.3       1 <0>         0.1149
       9  C8          9.3450   36.1990   61.2880  C.3       1 <0>         0.1146
      10  N2          9.3160   37.3950   60.4430  N.pl3     1 <0>        -0.7447
      11  C9          8.9520   37.2920   59.0970  C.ar      1 <0>         0.2056
      12  C10         8.9230   36.0500   58.4780  C.ar      1 <0>        -0.1692
      13  C11         8.5630   35.9500   57.1490  C.ar      1 <0>        -0.1038
      14  C12         8.2300   37.0870   56.4330  C.ar      1 <0>         0.0399
      15  C13         8.2570   38.3270   57.0490  C.ar      1 <0>        -0.1034
      16  C14         8.6120   38.4310   58.3790  C.ar      1 <0>        -0.1645
      17  F1          7.8770   36.9870   55.1330  F         1 <0>        -0.1447
      18  C15        12.5880   30.6150   63.9470  C.3       1 <0>         0.5071
      19  F2         13.0670   29.5780   63.1400  F         1 <0>        -0.1757
      20  F3         13.2280   30.5710   65.1910  F         1 <0>        -0.1763
      21  F4         11.2090   30.4690   64.1260  F         1 <0>        -0.1763
@<TRIPOS>BOND
     1     1     6 ar
     2     1     2 ar
     3     2     3 ar
     4     3     4 ar
     5     3    18 1
     6     4     5 ar
     7     5     6 ar
     8     5     7 1
     9     7     8 1
    10     8     9 1
    11     9    10 1
    12    10    11 1
    13    11    16 ar
    14    11    12 ar
    15    12    13 ar
    16    13    14 ar
    17    14    15 ar
    18    14    17 1
    19    15    16 ar
    20    18    19 1
    21    18    20 1
    22    18    21 1

@<TRIPOS>MOLECULE
ZINC13399474_replica-1.pdb
 25 27 0 0 0
SMALL
GASTEIGER

@<TRIPOS>ATOM
       1  C1          6.4910   36.8930   57.7120  C.ar      1 <0>        -0.1158
       2  C2          5.6670   36.1010   56.9380  C.ar      1 <0>        -0.0790
       3  C3          6.0870   35.6890   55.6720  C.ar      1 <0>        -0.1008
       4  C4          7.3390   36.0850   55.1950  C.ar      1 <0>        -0.0879
       5  C5          8.1510   36.8800   55.9770  C.ar      1 <0>        -0.1142
       6  C6          7.7270   37.2860   57.2300  C.ar      1 <0>        -0.0924
       7  C7          8.6200   38.1540   58.0790  C.3       1 <0>        -0.0411
       8  S1          8.7420   37.4500   59.7460  S.3       1 <0>        -0.1962
       9  C8          9.6590   35.9040   59.5030  C.3       1 <0>        -0.0550
      10  C9         10.5400   35.6500   60.7000  C.ar      1 <0>        -0.0776
      11  C10        10.6680   36.6160   61.6800  C.ar      1 <0>        -0.0740
      12  C11        11.4710   36.3820   62.7810  C.ar      1 <0>        -0.1463
      13  C12        12.1550   35.1830   62.8950  C.ar      1 <0>         0.1060
      14  C13        12.0300   34.2190   61.9100  C.ar      1 <0>        -0.1491
      15  C14        11.2230   34.4530   60.8130  C.ar      1 <0>        -0.0672
      16  F1         12.9440   34.9560   63.9680  F         1 <0>        -0.1373
      17  C15         8.6890   34.7630   59.3430  C.2       1 <0>         0.5335
      18  O1          7.8660   34.5410   60.2060  O.2       1 <0>        -0.5298
      19  N1          8.7350   33.9880   58.2420  N.am      1 <0>        -0.6906
      20  C16         7.7200   32.9520   58.0330  C.3       1 <0>         0.0771
      21  C17         8.1890   31.4950   58.0330  C.3       1 <0>        -0.1904
      22  C18         7.7740   32.1660   56.7210  C.3       1 <0>        -0.1879
      23  C19         5.2130   34.8370   54.8400  C.2       1 <0>         0.4870
      24  O2          5.5790   33.7270   54.5130  O.co2     1 <0>        -0.6293
      25  O3          4.0090   35.2940   54.4440  O.co2     1 <0>        -0.7524
@<TRIPOS>BOND
     1     1     6 ar
     2     1     2 ar
     3     2     3 ar
     4     3     4 ar
     5     3    23 1
     6     4     5 ar
     7     5     6 ar
     8     6     7 1
     9     7     8 1
    10     8     9 1
    11     9    10 1
    12     9    17 1
    13    10    15 ar
    14    10    11 ar
    15    11    12 ar
    16    12    13 ar
    17    13    14 ar
    18    13    16 1
    19    14    15 ar
    20    17    18 2
    21    17    19 am
    22    19    20 1
    23    20    22 1
    24    20    21 1
    25    21    22 1
    26    23    24 2
    27    23    25 1

@<TRIPOS>MOLECULE
ZINC66861835_replica-1.pdb
 25 27 0 0 0
SMALL
GASTEIGER

@<TRIPOS>ATOM
       1  C1         -0.2240   26.6720   52.9610  C.ar      1 <0>        -0.0790
       2  C2         -0.8670   26.7540   51.7390  C.ar      1 <0>        -0.1497
       3  C3         -1.6770   27.8370   51.4520  C.ar      1 <0>        -0.1046
       4  C4         -1.8460   28.8430   52.3860  C.ar      1 <0>         0.0228
       5  C5         -1.2000   28.7630   53.6150  C.ar      1 <0>         0.1897
       6  C6         -0.3880   27.6730   53.8990  C.ar      1 <0>        -0.1774
       7  N1         -1.3680   29.7770   54.5630  N.pl3     1 <0>        -0.7343
       8  C7         -0.5930   31.0160   54.4550  C.3       1 <0>         0.1080
       9  C8          0.4170   31.0760   55.5710  C.2       1 <0>         0.5155
      10  O1          0.4780   30.1770   56.3830  O.2       1 <0>        -0.5194
      11  N2          1.2530   32.1270   55.6670  N.am      1 <0>        -0.7221
      12  C9          2.2360   32.1860   56.7510  C.3       1 <0>         0.2809
      13  C10         1.6410   32.9090   57.9320  C.ar      1 <0>        -0.1074
      14  C11         1.3040   34.2460   57.8250  C.ar      1 <0>        -0.0786
      15  C12         0.7570   34.9100   58.9060  C.ar      1 <0>        -0.1471
      16  C13         0.5460   34.2360   60.0970  C.ar      1 <0>         0.1080
      17  C14         0.8830   32.8980   60.2030  C.ar      1 <0>        -0.1479
      18  C15         1.4250   32.2340   59.1190  C.ar      1 <0>        -0.0686
      19  F1          0.0110   34.8840   61.1550  F         1 <0>        -0.1353
      20  C16         3.4640   32.9220   56.2780  C.2       1 <0>        -0.1588
      21  C17         3.5780   33.8460   55.2930  C.2       1 <0>        -0.1366
      22  C18         4.8190   34.3950   55.0300  C.2       1 <0>        -0.1562
      23  C19         5.8840   33.9950   55.7650  C.2       1 <0>        -0.1682
      24  S1          5.1420   32.8100   56.8760  S.3       1 <0>         0.0434
      25  F2         -2.6370   29.9010   52.1060  F         1 <0>        -0.1419
@<TRIPOS>BOND
     1     1     6 ar
     2     1     2 ar
     3     2     3 ar
     4     3     4 ar
     5     4     5 ar
     6     4    25 1
     7     5     6 ar
     8     5     7 1
     9     7     8 1
    10     8     9 1
    11     9    10 2
    12     9    11 am
    13    11    12 1
    14    12    13 1
    15    12    20 1
    16    13    18 ar
    17    13    14 ar
    18    14    15 ar
    19    15    16 ar
    20    16    17 ar
    21    16    19 1
    22    17    18 ar
    23    20    24 1
    24    20    21 2
    25    21    22 1
    26    22    23 2
    27    23    24 1

@<TRIPOS>MOLECULE
ZINC62726442_replica-1.pdb
 21 22 0 0 0
SMALL
GASTEIGER

@<TRIPOS>ATOM
       1  C1         11.9160   36.2520   63.3800  C.3       1 <0>        -0.1364
       2  C2         11.9850   35.3550   62.1420  C.3       1 <0>         0.1270
       3  C3         12.3450   33.9520   62.5580  C.ar      1 <0>        -0.1029
       4  C4         13.6570   33.6350   62.8610  C.ar      1 <0>        -0.0713
       5  C5         13.9880   32.3500   63.2430  C.ar      1 <0>        -0.1542
       6  C6         13.0060   31.3770   63.3230  C.ar      1 <0>         0.0985
       7  C7         11.6930   31.6940   63.0200  C.ar      1 <0>        -0.1533
       8  C8         11.3630   32.9820   62.6430  C.ar      1 <0>        -0.0830
       9  F1         13.3290   30.1190   63.6960  F         1 <0>        -0.1397
      10  N1         10.6770   35.3460   61.4710  N.3       1 <0>        -0.6792
      11  C9         10.1500   36.7090   61.3300  C.3       1 <0>         0.0740
      12  C10         8.6830   36.6460   60.8960  C.3       1 <0>        -0.1011
      13  C11         8.5710   37.0420   59.4460  C.ar      1 <0>        -0.0120
      14  C12         8.6310   38.3750   59.0870  C.ar      1 <0>        -0.1178
      15  C13         8.5280   38.7380   57.7570  C.ar      1 <0>        -0.0632
      16  C14         8.3650   37.7670   56.7870  C.ar      1 <0>        -0.1226
      17  C15         8.3060   36.4340   57.1460  C.ar      1 <0>        -0.0531
      18  C16         8.4140   36.0710   58.4750  C.ar      1 <0>        -0.0517
      19  N2          8.3540   34.6430   58.8600  N.pl3     1 <0>         0.0370
      20  O1          7.2840   34.1050   59.0230  O.2       1 <0>        -0.1636
      21  O2          9.3760   34.0150   59.0100  O.3       1 <0>        -0.1556
@<TRIPOS>BOND
     1     1     2 1
     2     2     3 1
     3     2    10 1
     4     3     8 ar
     5     3     4 ar
     6     4     5 ar
     7     5     6 ar
     8     6     7 ar
     9     6     9 1
    10     7     8 ar
    11    10    11 1
    12    11    12 1
    13    12    13 1
    14    13    18 ar
    15    13    14 ar
    16    14    15 ar
    17    15    16 ar
    18    16    17 ar
    19    17    18 ar
    20    18    19 1
    21    19    20 2
    22    19    21 1

@<TRIPOS>MOLECULE
ZINC09408789_replica-1.pdb
 32 36 0 0 0
SMALL
GASTEIGER

@<TRIPOS>ATOM
       1  C1          4.3440   34.6840   54.2320  C.3       1 <0>         0.0203
       2  O1          3.4330   34.7300   55.3320  O.3       1 <0>        -0.2876
       3  C2          3.9090   35.2140   56.5070  C.ar      1 <0>         0.1841
       4  C3          5.2280   35.6300   56.6050  C.ar      1 <0>        -0.2252
       5  C4          5.7140   36.1180   57.8020  C.ar      1 <0>        -0.0429
       6  C5          4.8870   36.1990   58.9110  C.ar      1 <0>        -0.1715
       7  C6          3.5720   35.7940   58.8300  C.ar      1 <0>        -0.0247
       8  C7          3.0700   35.3000   57.6250  C.ar      1 <0>        -0.2047
       9  C8          1.6610   34.8630   57.5310  C.2       1 <0>         0.4808
      10  O2          0.8020   35.6490   57.1670  O.2       1 <0>        -0.4133
      11  C9          1.3110   33.5410   57.8640  C.2       1 <0>        -0.2066
      12  C10         1.2090   32.4730   56.9700  C.2       1 <0>         0.3040
      13  C11         0.8370   31.3410   57.7110  C.2       1 <0>        -0.1920
      14  C12         0.7130   31.7430   59.0570  C.2       1 <0>         0.1404
      15  N1          1.0090   33.0770   59.1350  N.pl3     1 <0>        -0.2844
      16  C13         0.9670   33.7170   60.3390  C.2       1 <0>         0.0662
      17  C14         0.6260   33.0520   61.4650  C.2       1 <0>        -0.1422
      18  C15         0.3220   31.6840   61.4130  C.2       1 <0>        -0.0832
      19  C16         0.3650   31.0320   60.2150  C.2       1 <0>        -0.1107
      20  C17         0.6120   29.9860   57.1810  C.2       1 <0>         0.2395
      21  N2          0.2070   29.6130   55.9740  N.2       1 <0>        -0.5271
      22  C18         0.0630   28.3360   55.6660  C.2       1 <0>         0.1145
      23  C19         0.3360   27.3810   56.6060  C.2       1 <0>        -0.2174
      24  S1          0.8200   28.4050   57.9900  S.3       1 <0>        -0.0035
      25  C20        -0.3900   27.9410   54.3090  C.ar      1 <0>        -0.0335
      26  C21        -0.0090   26.7120   53.7740  C.ar      1 <0>        -0.0579
      27  C22        -0.4370   26.3470   52.5140  C.ar      1 <0>        -0.1554
      28  C23        -1.2360   27.2060   51.7760  C.ar      1 <0>         0.1029
      29  C24        -1.6120   28.4310   52.3010  C.ar      1 <0>        -0.1526
      30  C25        -1.1930   28.8020   53.5630  C.ar      1 <0>        -0.0759
      31  F1         -1.6480   26.8470   50.5410  F         1 <0>        -0.1382
      32  N3          1.4320   32.5230   55.5990  N.pl3     1 <0>        -0.8371
@<TRIPOS>BOND
     1     1     2 1
     2     2     3 1
     3     3     8 ar
     4     3     4 ar
     5     4     5 ar
     6     5     6 ar
     7     6     7 ar
     8     7     8 ar
     9     8     9 1
    10     9    10 2
    11     9    11 1
    12    11    15 1
    13    11    12 2
    14    12    13 1
    15    12    32 1
    16    13    14 2
    17    13    20 1
    18    14    19 1
    19    14    15 1
    20    15    16 1
    21    16    17 2
    22    17    18 1
    23    18    19 2
    24    20    24 1
    25    20    21 2
    26    21    22 1
    27    22    23 2
    28    22    25 1
    29    23    24 1
    30    25    30 ar
    31    25    26 ar
    32    26    27 ar
    33    27    28 ar
    34    28    29 ar
    35    28    31 1
    36    29    30 ar

@<TRIPOS>MOLECULE
ZINC13590879_replica-1.pdb
 31 35 0 0 0
SMALL
GASTEIGER

@<TRIPOS>ATOM
       1  C1          3.5400   32.1010   59.1000  C.3       1 <0>         0.0231
       2  O1          4.8090   31.8500   59.7050  O.3       1 <0>        -0.3083
       3  C2          5.5250   30.7980   59.2240  C.ar      1 <0>         0.1477
       4  C3          5.1850   29.5040   59.5850  C.ar      1 <0>        -0.2034
       5  C4          5.9150   28.4360   59.0970  C.ar      1 <0>        -0.0643
       6  C5          6.9840   28.6550   58.2490  C.ar      1 <0>        -0.1485
       7  C6          7.3330   29.9430   57.8880  C.ar      1 <0>        -0.0621
       8  C7          6.6020   31.0190   58.3690  C.ar      1 <0>         0.0746
       9  N1          6.9510   32.3280   58.0000  N.am      1 <0>        -0.5357
      10  C8          7.8040   33.1030   58.7210  C.2       1 <0>         0.5427
      11  O2          8.5290   32.7410   59.6230  O.2       1 <0>        -0.4536
      12  C9          7.6710   34.4910   58.1770  C.3       1 <0>        -0.1171
      13  C10         8.9080   35.3620   58.1190  C.3       1 <0>        -0.0054
      14  C11         8.5750   36.5410   57.2280  C.2       1 <0>        -0.1380
      15  C12         7.5830   36.5700   56.3900  C.2       1 <0>        -0.1371
      16  C13         6.6270   35.4190   56.1570  C.3       1 <0>        -0.0052
      17  C14         7.3000   34.1730   56.6950  C.3       1 <0>        -0.1176
      18  C15         6.4640   32.9440   56.8920  C.2       1 <0>         0.5462
      19  O3          5.5400   32.5740   56.2010  O.2       1 <0>        -0.4543
      20  C16         5.3360   35.6650   56.8940  C.ar      1 <0>        -0.0894
      21  C17         4.1410   35.7030   56.2000  C.ar      1 <0>        -0.0961
      22  C18         2.9550   35.9250   56.8770  C.ar      1 <0>        -0.1168
      23  C19         2.9670   36.1190   58.2450  C.ar      1 <0>        -0.1169
      24  C20         4.1620   36.0850   58.9380  C.ar      1 <0>        -0.1219
      25  C21         5.3470   35.8590   58.2630  C.ar      1 <0>        -0.1186
      26  C22         9.2660   35.8460   59.5000  C.ar      1 <0>        -0.0777
      27  C23         8.4110   36.6960   60.1770  C.ar      1 <0>        -0.1176
      28  C24         8.7370   37.1360   61.4470  C.ar      1 <0>        -0.1171
      29  C25         9.9210   36.7330   62.0350  C.ar      1 <0>        -0.1188
      30  C26        10.7770   35.8870   61.3560  C.ar      1 <0>        -0.1158
      31  C27        10.4500   35.4440   60.0880  C.ar      1 <0>        -0.1001
@<TRIPOS>BOND
     1     1     2 1
     2     2     3 1
     3     3     8 ar
     4     3     4 ar
     5     4     5 ar
     6     5     6 ar
     7     6     7 ar
     8     7     8 ar
     9     8     9 1
    10     9    18 am
    11     9    10 am
    12    10    11 2
    13    10    12 1
    14    12    17 1
    15    12    13 1
    16    13    14 1
    17    13    26 1
    18    14    15 2
    19    15    16 1
    20    16    17 1
    21    16    20 1
    22    17    18 1
    23    18    19 2
    24    20    25 ar
    25    20    21 ar
    26    21    22 ar
    27    22    23 ar
    28    23    24 ar
    29    24    25 ar
    30    26    31 ar
    31    26    27 ar
    32    27    28 ar
    33    28    29 ar
    34    29    30 ar
    35    30    31 ar

@<TRIPOS>MOLECULE
ZINC35560627_replica-1.pdb
 30 32 0 0 0
SMALL
GASTEIGER

@<TRIPOS>ATOM
       1  C1         14.3520   33.7730   62.6160  C.3       1 <0>        -0.1476
       2  C2         12.9570   33.1700   62.7940  C.3       1 <0>        -0.0827
       3  C3         11.9210   34.1440   62.2920  C.ar      1 <0>        -0.0918
       4  C4         12.1190   35.4990   62.4370  C.ar      1 <0>        -0.0991
       5  C5         11.1730   36.4050   61.9790  C.ar      1 <0>        -0.1405
       6  C6         10.0270   35.9670   61.3750  C.ar      1 <0>        -0.0768
       7  C7          9.8080   34.5980   61.2160  C.ar      1 <0>        -0.0942
       8  C8         10.7660   33.6750   61.6750  C.ar      1 <0>         0.1029
       9  N1         10.2890   32.4170   61.3840  N.pl3     1 <0>        -0.5914
      10  C9          9.0770   32.5110   60.7580  C.2       1 <0>         0.0580
      11  C10         8.7250   33.8010   60.6330  C.2       1 <0>        -0.1622
      12  C11         7.4640   34.3300   60.0010  C.3       1 <0>         0.0451
      13  C12         6.4570   33.1880   59.8400  C.3       1 <0>        -0.1288
      14  C13         5.0760   33.7610   59.6560  C.2       1 <0>         0.5030
      15  O1          4.4730   34.2120   60.6070  O.2       1 <0>        -0.5086
      16  N2          4.5090   33.7730   58.4330  N.am      1 <0>        -0.7362
      17  C14         3.1650   34.3290   58.2530  C.3       1 <0>         0.1251
      18  C15         3.2730   35.7560   57.7120  C.3       1 <0>        -0.1084
      19  C16         4.4110   35.8310   56.6930  C.3       1 <0>        -0.1464
      20  C17         1.9570   36.1470   57.0370  C.3       1 <0>        -0.1489
      21  C18         7.7860   34.9100   58.6470  C.ar      1 <0>        -0.0405
      22  C19         8.1100   34.0720   57.5960  C.ar      1 <0>        -0.1495
      23  C20         8.4050   34.6000   56.3530  C.ar      1 <0>        -0.0875
      24  C21         8.3800   35.9690   56.1560  C.ar      1 <0>        -0.2040
      25  C22         8.0560   36.8130   57.2060  C.ar      1 <0>         0.1078
      26  C23         7.7530   36.2810   58.4550  C.ar      1 <0>         0.0993
      27  O2          7.4290   37.1050   59.4870  O.3       1 <0>        -0.3064
      28  C24         6.0400   37.3670   59.6970  C.3       1 <0>         0.0309
      29  O3          8.0310   38.1600   57.0140  O.3       1 <0>        -0.3066
      30  C25         7.3050   38.6400   55.8810  C.3       1 <0>         0.0258
@<TRIPOS>BOND
     1     1     2 1
     2     2     3 1
     3     3     8 ar
     4     3     4 ar
     5     4     5 ar
     6     5     6 ar
     7     6     7 ar
     8     7    11 1
     9     7     8 ar
    10     8     9 1
    11     9    10 1
    12    10    11 2
    13    11    12 1
    14    12    13 1
    15    12    21 1
    16    13    14 1
    17    14    15 2
    18    14    16 am
    19    16    17 1
    20    17    18 1
    21    18    19 1
    22    18    20 1
    23    21    26 ar
    24    21    22 ar
    25    22    23 ar
    26    23    24 ar
    27    24    25 ar
    28    25    26 ar
    29    25    29 1
    30    26    27 1
    31    27    28 1
    32    29    30 1

@<TRIPOS>MOLECULE
ZINC23329186_replica-1.pdb
 26 28 0 0 0
SMALL
GASTEIGER

@<TRIPOS>ATOM
       1  C1         -2.4690   30.1030   52.7510  C.3       1 <0>        -0.1477
       2  C2         -1.3470   29.4620   53.5700  C.3       1 <0>        -0.0348
       3  C3         -1.0500   28.0870   53.0260  C.ar      1 <0>        -0.0751
       4  C4         -1.5470   27.7100   51.7930  C.ar      1 <0>        -0.1028
       5  C5         -1.2750   26.4500   51.2950  C.ar      1 <0>        -0.1174
       6  C6         -0.5050   25.5680   52.0280  C.ar      1 <0>        -0.1117
       7  C7         -0.0070   25.9450   53.2610  C.ar      1 <0>        -0.1180
       8  C8         -0.2750   27.2070   53.7580  C.ar      1 <0>        -0.0992
       9  S1         -1.8640   29.3260   55.3030  S.3       1 <0>         0.0357
      10  C9         -0.4920   29.9630   56.2080  C.2       1 <0>         0.1968
      11  N1          0.1910   29.3320   57.1360  N.2       1 <0>        -0.2862
      12  N2          1.1230   30.0950   57.5850  N.2       1 <0>        -0.2381
      13  C10         1.0910   31.2470   56.9760  C.2       1 <0>         0.1396
      14  N3          0.0640   31.2020   56.0740  N.pl3     1 <0>        -0.2972
      15  N4         -0.3250   32.1930   55.2190  N.3       1 <0>        -0.5830
      16  C11         2.0170   32.4110   57.2180  C.3       1 <0>         0.1534
      17  O1          2.3510   33.0210   55.9700  O.3       1 <0>        -0.3098
      18  C12         3.3350   33.9590   55.9850  C.ar      1 <0>         0.1210
      19  C13         3.2960   34.9920   56.9110  C.ar      1 <0>        -0.2051
      20  C14         4.2980   35.9430   56.9240  C.ar      1 <0>        -0.0766
      21  C15         5.3380   35.8670   56.0160  C.ar      1 <0>        -0.1077
      22  C16         5.3790   34.8380   55.0930  C.ar      1 <0>        -0.0735
      23  C17         4.3820   33.8800   55.0790  C.ar      1 <0>        -0.1418
      24  C18         6.4290   36.9050   56.0330  C.3       1 <0>        -0.0545
      25  C19         7.0380   36.9850   57.4350  C.3       1 <0>        -0.1462
      26  C20         7.5150   36.5200   55.0260  C.3       1 <0>        -0.1457
@<TRIPOS>BOND
     1     1     2 1
     2     2     3 1
     3     2     9 1
     4     3     8 ar
     5     3     4 ar
     6     4     5 ar
     7     5     6 ar
     8     6     7 ar
     9     7     8 ar
    10     9    10 1
    11    10    14 1
    12    10    11 2
    13    11    12 1
    14    12    13 2
    15    13    14 1
    16    13    16 1
    17    14    15 1
    18    16    17 1
    19    17    18 1
    20    18    23 ar
    21    18    19 ar
    22    19    20 ar
    23    20    21 ar
    24    21    22 ar
    25    21    24 1
    26    22    23 ar
    27    24    25 1
    28    24    26 1

@<TRIPOS>MOLECULE
ZINC13088705_replica-1.pdb
 26 27 0 0 0
SMALL
GASTEIGER

@<TRIPOS>ATOM
       1  C1          8.6700   34.9680   56.7040  C.3       1 <0>        -0.1098
       2  C2          8.8800   34.4160   58.0910  C.ar      1 <0>        -0.1287
       3  C3          9.7600   35.0360   58.9540  C.ar      1 <0>        -0.0170
       4  C4          9.9560   34.5200   60.2360  C.ar      1 <0>        -0.1333
       5  C5          9.2520   33.3830   60.6390  C.ar      1 <0>         0.0105
       6  C6          8.3720   32.7750   59.7680  C.ar      1 <0>        -0.6889
       7  C7          8.1860   33.2890   58.4960  C.ar      1 <0>         0.0061
       8  C8          7.2230   32.6200   57.5510  C.3       1 <0>        -0.1331
       9  S1          7.4840   31.3400   60.2750  S.o2      1 <0>         2.6981
      10  O1          7.6670   30.3680   59.2550  O.2       1 <0>        -0.9579
      11  O2          7.8410   31.1000   61.6290  O.2       1 <0>        -0.9631
      12  N1          5.8750   31.7330   60.2710  N.pl3     1 <0>        -1.1200
      13  C9          5.3790   32.7980   61.1450  C.3       1 <0>         0.1199
      14  C10         4.4780   33.7380   60.3440  C.3       1 <0>        -0.0831
      15  C11         5.2620   34.9570   59.9330  C.ar      1 <0>        -0.0881
      16  C12         6.1230   35.5610   60.8310  C.ar      1 <0>        -0.1101
      17  C13         6.8460   36.6770   60.4520  C.ar      1 <0>        -0.1130
      18  C14         6.7020   37.1940   59.1790  C.ar      1 <0>        -0.0784
      19  C15         5.8370   36.5940   58.2820  C.ar      1 <0>        -0.1161
      20  C16         5.1180   35.4760   58.6590  C.ar      1 <0>        -0.1097
      21  C17         7.4870   38.4120   58.7680  C.3       1 <0>        -0.0576
      22  C18         8.8530   38.3960   59.4570  C.3       1 <0>        -0.1433
      23  C19         7.6820   38.4050   57.2500  C.3       1 <0>        -0.1462
      24  C20        10.9010   35.1750   61.1630  C.2       1 <0>         0.4901
      25  O3         10.6880   36.3070   61.5470  O.co2     1 <0>        -0.6238
      26  O4         11.9960   34.5140   61.5870  O.co2     1 <0>        -0.7515
@<TRIPOS>BOND
     1     1     2 1
     2     2     7 ar
     3     2     3 ar
     4     3     4 ar
     5     4     5 ar
     6     4    24 1
     7     5     6 ar
     8     6     7 ar
     9     6     9 1
    10     7     8 1
    11     9    10 2
    12     9    11 2
    13     9    12 1
    14    12    13 1
    15    13    14 1
    16    14    15 1
    17    15    20 ar
    18    15    16 ar
    19    16    17 ar
    20    17    18 ar
    21    18    19 ar
    22    18    21 1
    23    19    20 ar
    24    21    22 1
    25    21    23 1
    26    24    25 2
    27    24    26 1

@<TRIPOS>MOLECULE
ZINC32004134_replica-1.pdb
 18 19 0 0 0
SMALL
GASTEIGER

@<TRIPOS>ATOM
      1  C7         9.4950   35.2010   59.7930 C.ar    0  <0>0        0.0108
      2  C8         9.5280   34.7470   58.4750 C.ar    0  <0>0        0.0017
      3  C9         8.7230   35.3320   57.5160 C.ar    0  <0>0        0.0117
      4  C10        7.8740   36.3680   57.8570 C.ar    0  <0>0        0.0649
      5  C11        7.8350   36.8370   59.1730 C.ar    0  <0>0        0.1008
      6  C12        8.6480   36.2490   60.1450 C.ar    0  <0>0        0.0648
      7 Cl          8.6020   36.8190   61.7830 Cl      0  <0>0       -0.0820
      8 Cl          6.8610   37.0930   56.6480 Cl      0  <0>0       -0.0820
      9  C6        10.3620   34.5710   60.8180 C.ar    0  <0>0        0.0010
     10  C1        10.1050   33.2700   61.2460 C.ar    0  <0>0        0.0023
     11  C2        10.9180   32.6860   62.1960 C.ar    0  <0>0        0.0296
     12  C3        11.9810   33.3950   62.7310 C.ar    0  <0>0        0.1401
     13  C4        12.2370   34.6900   62.3120 C.ar    0  <0>0        0.0296
     14  F1        12.7710   32.8210   63.6660 F       0  <0>0       -0.2042
     15  C5        11.4330   35.2800   61.3590 C.ar    0  <0>0        0.0023
     16  C13        6.9340   37.9480   59.5380 C.2     0  <0>0        0.3894
     17  O1         7.2500   39.0940   59.2890 O.co2   0  <0>0       -0.2405
     18  O2         5.7590   37.6900   60.1450 O.co2   0  <0>0       -0.2405
@<TRIPOS>BOND
     1     8     4    1
     2     3     4   ar
     3     3     2   ar
     4     4     5   ar
     5     2     1   ar
     6     5    16    1
     7     5     6   ar
     8    17    16   ar
     9    16    18   ar
    10     1     6   ar
    11     1     9    1
    12     6     7    1
    13     9    10   ar
    14     9    15   ar
    15    10    11   ar
    16    15    13   ar
    17    11    12   ar
    18    13    12   ar
    19    12    14    1


@<TRIPOS>MOLECULE
ZINC34734379_replica-1.pdb
 29 32 0 0 0
SMALL
GASTEIGER

@<TRIPOS>ATOM
       1  C1          0.3370   31.5130   61.8160  C.3       1 <0>        -0.1151
       2  C2          0.3040   30.3470   60.8590  C.2       1 <0>        -0.0728
       3  C3          0.1990   29.0940   61.3220  C.2       1 <0>        -0.1609
       4  S1          0.2020   28.1030   59.8400  S.3       1 <0>         0.0992
       5  C4          0.3430   29.4000   58.6390  C.ar      1 <0>         0.1974
       6  C5          0.3780   30.5730   59.4250  C.ar      1 <0>        -0.2905
       7  C6          0.4870   31.7910   58.7020  C.ar      1 <0>         0.5187
       8  N1          0.5420   31.7570   57.3800  N.ar      1 <0>        -0.6192
       9  C7          0.4980   30.6180   56.7020  C.ar      1 <0>         0.6230
      10  N2          0.4070   29.4500   57.3230  N.ar      1 <0>        -0.5622
      11  N3          0.5590   30.6480   55.3180  N.pl3     1 <0>        -0.6905
      12  C8          0.5120   29.3990   54.5550  C.3       1 <0>         0.1423
      13  C9         -0.8920   29.2040   53.9810  C.3       1 <0>        -0.0927
      14  C10        -0.9090   27.9850   53.0960  C.ar      1 <0>        -0.0828
      15  C11        -1.5900   28.0140   51.8930  C.ar      1 <0>        -0.1130
      16  C12        -1.6060   26.8950   51.0800  C.ar      1 <0>        -0.1181
      17  C13        -0.9390   25.7490   51.4690  C.ar      1 <0>        -0.1203
      18  C14        -0.2560   25.7210   52.6710  C.ar      1 <0>        -0.1181
      19  C15        -0.2380   26.8400   53.4820  C.ar      1 <0>        -0.1129
      20  N4          0.5350   33.0010   59.3720  N.pl3     1 <0>        -0.6347
      21  C16         1.6470   33.8390   59.2260  C.ar      1 <0>         0.1225
      22  C17         2.8230   33.5600   59.9090  C.ar      1 <0>        -0.0902
      23  C18         3.9190   34.3890   59.7630  C.ar      1 <0>        -0.1359
      24  C19         3.8480   35.4960   58.9380  C.ar      1 <0>        -0.0989
      25  C20         2.6800   35.7810   58.2560  C.ar      1 <0>        -0.1883
      26  C21         1.5790   34.9520   58.3920  C.ar      1 <0>         0.0946
      27  O1          0.4300   35.2270   57.7160  O.3       1 <0>        -0.3239
      28  C22         0.5490   36.0170   56.5310  C.3       1 <0>         0.0293
      29  C23         0.1030   28.6320   62.7530  C.3       1 <0>        -0.0677
@<TRIPOS>BOND
     1     1     2 1
     2     2     6 1
     3     2     3 2
     4     3     4 1
     5     3    29 1
     6     4     5 1
     7     5    10 ar
     8     5     6 ar
     9     6     7 ar
    10     7     8 ar
    11     7    20 1
    12     8     9 ar
    13     9    10 ar
    14     9    11 1
    15    11    12 1
    16    12    13 1
    17    13    14 1
    18    14    19 ar
    19    14    15 ar
    20    15    16 ar
    21    16    17 ar
    22    17    18 ar
    23    18    19 ar
    24    20    21 1
    25    21    26 ar
    26    21    22 ar
    27    22    23 ar
    28    23    24 ar
    29    24    25 ar
    30    25    26 ar
    31    26    27 1
    32    27    28 1

@<TRIPOS>MOLECULE
ZINC14023387_replica-1.pdb
 27 28 0 0 0
SMALL
GASTEIGER

@<TRIPOS>ATOM
       1  C1         -3.0940   30.7800   55.6750  C.3       1 <0>        -0.1579
       2  C2         -2.0130   29.8010   56.1390  C.3       1 <0>        -0.1419
       3  C3         -0.8220   29.8660   55.1810  C.3       1 <0>         0.0783
       4  C4          0.3240   30.5770   55.8520  C.2       1 <0>         0.5163
       5  O1          0.7280   30.1960   56.9310  O.2       1 <0>        -0.5111
       6  N1          0.9010   31.6380   55.2540  N.am      1 <0>        -0.5177
       7  N2          1.9670   32.3000   55.8770  N.am      1 <0>        -0.5180
       8  C5          1.7420   33.4280   56.5790  C.2       1 <0>         0.5651
       9  O2          0.6150   33.8740   56.6680  O.2       1 <0>        -0.5341
      10  C6          2.8670   34.1240   57.2410  C.ar      1 <0>        -0.1378
      11  C7          4.0980   33.4830   57.3880  C.ar      1 <0>        -0.0808
      12  C8          5.1450   34.1390   58.0020  C.ar      1 <0>        -0.1270
      13  C9          4.9730   35.4250   58.4820  C.ar      1 <0>        -0.0356
      14  C10         3.7530   36.0640   58.3450  C.ar      1 <0>        -0.1228
      15  C11         2.7000   35.4210   57.7280  C.ar      1 <0>        -0.0488
      16  C12         6.1180   36.1340   59.1570  C.3       1 <0>        -0.0356
      17  C13         7.0100   36.7860   58.0990  C.3       1 <0>        -0.1406
      18  C14         5.5690   37.2120   60.0950  C.3       1 <0>        -0.1477
      19  C15         6.9380   35.1270   59.9650  C.3       1 <0>        -0.1406
      20  O3         -0.4200   28.5390   54.8330  O.3       1 <0>        -0.2799
      21  C16        -0.8090   28.0770   53.6150  C.ar      1 <0>         0.1328
      22  C17        -1.5760   28.8780   52.7810  C.ar      1 <0>        -0.1534
      23  C18        -1.9650   28.4090   51.5410  C.ar      1 <0>        -0.0742
      24  C19        -1.6010   27.1380   51.1360  C.ar      1 <0>        -0.1569
      25  C20        -0.8430   26.3350   51.9680  C.ar      1 <0>        -0.0448
      26  C21        -0.4460   26.8020   53.2060  C.ar      1 <0>        -0.2132
      27  C22        -0.4480   24.9510   51.5230  C.3       1 <0>        -0.1188
@<TRIPOS>BOND
     1     1     2 1
     2     2     3 1
     3     3     4 1
     4     3    20 1
     5     4     5 2
     6     4     6 am
     7     6     7 1
     8     7     8 am
     9     8     9 2
    10     8    10 1
    11    10    15 ar
    12    10    11 ar
    13    11    12 ar
    14    12    13 ar
    15    13    14 ar
    16    13    16 1
    17    14    15 ar
    18    16    17 1
    19    16    18 1
    20    16    19 1
    21    20    21 1
    22    21    26 ar
    23    21    22 ar
    24    22    23 ar
    25    23    24 ar
    26    24    25 ar
    27    25    26 ar
    28    25    27 1

@<TRIPOS>MOLECULE
ZINC06332543_replica-1.pdb
 22 23 0 0 0
SMALL
GASTEIGER

@<TRIPOS>ATOM
       1  C1         -1.0200   31.2250   56.0400  C.3       1 <0>        -0.1643
       2  C2          0.2390   31.1070   55.1780  C.3       1 <0>         0.1419
       3  C3          0.2660   29.7360   54.5000  C.3       1 <0>        -0.1223
       4  C4         -1.1400   29.3760   54.0170  C.3       1 <0>        -0.0807
       5  C5         -1.0700   28.1650   53.1250  C.ar      1 <0>        -0.0837
       6  C6         -0.3860   27.0380   53.5420  C.ar      1 <0>        -0.1196
       7  C7         -0.3210   25.9260   52.7230  C.ar      1 <0>        -0.1180
       8  C8         -0.9410   25.9400   51.4870  C.ar      1 <0>        -0.1240
       9  C9         -1.6260   27.0660   51.0710  C.ar      1 <0>        -0.1164
      10  C10        -1.6940   28.1770   51.8920  C.ar      1 <0>        -0.1165
      11  N1          1.4260   31.2580   56.0240  N.pl3     1 <0>        -0.6805
      12  C11         1.8510   32.4870   56.3760  C.2       1 <0>         0.5623
      13  S1          1.4430   33.1250   57.9120  S.2       1 <0>        -0.6373
      14  N2          2.5970   33.2140   55.5210  N.pl3     1 <0>        -0.6879
      15  C12         3.0590   34.5500   55.9050  C.3       1 <0>         0.1302
      16  C13         4.0510   35.0650   54.8610  C.3       1 <0>        -0.0926
      17  C14         5.2820   35.5900   55.5540  C.ar      1 <0>        -0.0849
      18  C15         6.4790   35.6730   54.8690  C.ar      1 <0>        -0.1117
      19  C16         7.6090   36.1530   55.5050  C.ar      1 <0>        -0.1176
      20  C17         7.5410   36.5520   56.8270  C.ar      1 <0>        -0.1183
      21  C18         6.3430   36.4700   57.5120  C.ar      1 <0>        -0.1176
      22  C19         5.2130   35.9930   56.8750  C.ar      1 <0>        -0.1117
@<TRIPOS>BOND
     1     1     2 1
     2     2     3 1
     3     2    11 1
     4     3     4 1
     5     4     5 1
     6     5    10 ar
     7     5     6 ar
     8     6     7 ar
     9     7     8 ar
    10     8     9 ar
    11     9    10 ar
    12    11    12 1
    13    12    13 2
    14    12    14 1
    15    14    15 1
    16    15    16 1
    17    16    17 1
    18    17    22 ar
    19    17    18 ar
    20    18    19 ar
    21    19    20 ar
    22    20    21 ar
    23    21    22 ar

@<TRIPOS>MOLECULE
ZINC64567242_replica-1.pdb
 28 30 0 0 0
SMALL
GASTEIGER

@<TRIPOS>ATOM
       1  C1          0.0200   25.9410   53.4420  C.ar      1 <0>        -0.1330
       2  C2         -0.3070   25.1440   52.3590  C.ar      1 <0>        -0.0864
       3  C3         -1.0640   25.6610   51.3250  C.ar      1 <0>        -0.1579
       4  C4         -1.4940   26.9770   51.3720  C.ar      1 <0>         0.1152
       5  C5         -1.1660   27.7720   52.4560  C.ar      1 <0>        -0.1384
       6  C6         -0.4080   27.2540   53.4890  C.ar      1 <0>        -0.0718
       7  C7         -1.6320   29.2040   52.5080  C.3       1 <0>         0.1642
       8  N1         -2.2130   29.4810   53.8250  N.am      1 <0>        -0.7373
       9  C8         -1.7210   30.4830   54.5810  C.2       1 <0>         0.5203
      10  O1         -0.7990   31.1560   54.1710  O.2       1 <0>        -0.5050
      11  C9         -2.3170   30.7670   55.9360  C.3       1 <0>        -0.0782
      12  C10        -1.7780   29.7790   56.9390  C.ar      1 <0>         0.1889
      13  C11        -2.4340   28.5840   57.1650  C.ar      1 <0>        -0.3277
      14  C12        -1.9010   27.6990   58.1010  C.ar      1 <0>         0.4448
      15  O2         -2.5120   26.5160   58.3540  O.3       1 <0>        -0.7039
      16  N2         -0.7870   28.0320   58.7410  N.ar      1 <0>        -0.6126
      17  C13        -0.1870   29.1870   58.4960  C.ar      1 <0>         0.3328
      18  N3         -0.6670   30.0460   57.6080  N.ar      1 <0>        -0.5596
      19  S1          1.2910   29.5900   59.3680  S.3       1 <0>        -0.0437
      20  C14         0.7430   29.8100   61.0830  C.3       1 <0>        -0.0613
      21  C15         0.4190   31.2620   61.3250  C.ar      1 <0>        -0.0723
      22  C16         0.6220   32.1910   60.3220  C.ar      1 <0>        -0.0731
      23  C17         0.3260   33.5230   60.5430  C.ar      1 <0>        -0.1537
      24  C18        -0.1750   33.9250   61.7690  C.ar      1 <0>         0.0931
      25  C19        -0.3780   32.9950   62.7730  C.ar      1 <0>        -0.1533
      26  C20        -0.0850   31.6620   62.5480  C.ar      1 <0>        -0.0725
      27  F1         -0.4650   35.2270   61.9860  F         1 <0>        -0.1437
      28  F2         -2.2340   27.4830   50.3610  F         1 <0>        -0.1317
@<TRIPOS>BOND
     1     1     6 ar
     2     1     2 ar
     3     2     3 ar
     4     3     4 ar
     5     4     5 ar
     6     4    28 1
     7     5     6 ar
     8     5     7 1
     9     7     8 1
    10     8     9 am
    11     9    10 2
    12     9    11 1
    13    11    12 1
    14    12    18 ar
    15    12    13 ar
    16    13    14 ar
    17    14    15 1
    18    14    16 ar
    19    16    17 ar
    20    17    18 ar
    21    17    19 1
    22    19    20 1
    23    20    21 1
    24    21    26 ar
    25    21    22 ar
    26    22    23 ar
    27    23    24 ar
    28    24    25 ar
    29    24    27 1
    30    25    26 ar

@<TRIPOS>MOLECULE
ZINC05945652_replica-1.pdb
 23 25 0 0 0
SMALL
GASTEIGER

@<TRIPOS>ATOM
       1  C1         -1.8700   27.3650   50.9120  C.ar      1 <0>        -0.1310
       2  C2         -1.2120   26.2790   51.4050  C.ar      1 <0>        -0.0519
       3  C3         -0.6010   26.3240   52.6690  C.ar      1 <0>        -0.0757
       4  C4          0.0810   25.2120   53.1910  C.ar      1 <0>        -0.0271
       5  C5          0.6610   25.2940   54.4200  C.ar      1 <0>        -0.1455
       6  C6          0.5890   26.4650   55.1700  C.ar      1 <0>         0.0269
       7  C7         -0.0640   27.5620   54.6950  C.ar      1 <0>        -0.6831
       8  C8         -0.6770   27.5130   53.4370  C.ar      1 <0>         0.0629
       9  C9         -1.3840   28.6660   52.8850  C.ar      1 <0>        -0.0514
      10  C10        -1.9640   28.5500   51.6280  C.ar      1 <0>        -0.0148
      11  C11        -1.4790   29.8870   53.6250  C.1       1 <0>         0.2369
      12  N1         -1.5550   30.8570   54.2120  N.1       1 <0>        -0.3695
      13  S1         -0.1430   29.0350   55.6610  S.o2      1 <0>         2.6777
      14  O1         -1.4830   29.1480   56.1200  O.2       1 <0>        -0.9413
      15  O2          0.4900   30.0540   54.8990  O.2       1 <0>        -0.9408
      16  N2          0.7990   28.7920   57.0010  N.pl3     1 <0>        -1.0613
      17  C12         0.6460   29.6130   58.1220  C.ar      1 <0>         0.1460
      18  C13         1.0810   30.9310   58.0840  C.ar      1 <0>        -0.1408
      19  C14         0.9320   31.7390   59.1940  C.ar      1 <0>        -0.1205
      20  C15         0.3500   31.2350   60.3450  C.ar      1 <0>         0.0885
      21  C16        -0.0840   29.9210   60.3850  C.ar      1 <0>        -0.1262
      22  C17         0.0620   29.1100   59.2770  C.ar      1 <0>        -0.0992
      23  F1          0.2070   32.0270   61.4300  F         1 <0>        -0.1359
@<TRIPOS>BOND
     1     1    10 ar
     2     1     2 ar
     3     2     3 ar
     4     3     8 ar
     5     3     4 ar
     6     4     5 ar
     7     5     6 ar
     8     6     7 ar
     9     7     8 ar
    10     7    13 1
    11     8     9 ar
    12     9    10 ar
    13     9    11 1
    14    11    12 3
    15    13    14 2
    16    13    15 2
    17    13    16 1
    18    16    17 1
    19    17    22 ar
    20    17    18 ar
    21    18    19 ar
    22    19    20 ar
    23    20    21 ar
    24    20    23 1
    25    21    22 ar

@<TRIPOS>MOLECULE
ZINC01216277_replica-1.pdb
 27 29 0 0 0
SMALL
GASTEIGER

@<TRIPOS>ATOM
       1  C1         -1.1330   28.0220   58.4830  C.3       1 <0>        -0.1457
       2  C2          0.1600   27.3490   58.0190  C.3       1 <0>         0.0498
       3  O1          0.6800   28.0490   56.8870  O.3       1 <0>        -0.2715
       4  C3          0.2980   27.6090   55.6600  C.ar      1 <0>         0.1814
       5  C4          0.6180   26.3120   55.2590  C.ar      1 <0>        -0.2001
       6  C5          0.2610   25.8310   54.0400  C.ar      1 <0>        -0.0417
       7  C6         -0.4550   26.6320   53.1330  C.ar      1 <0>        -0.0886
       8  C7         -0.8300   26.1450   51.8680  C.ar      1 <0>        -0.0847
       9  C8         -1.5230   26.9490   51.0150  C.ar      1 <0>        -0.1328
      10  C9         -1.8690   28.2480   51.3760  C.ar      1 <0>        -0.0934
      11  C10        -1.5220   28.7530   52.5940  C.ar      1 <0>        -0.1248
      12  C11        -0.8090   27.9540   53.4960  C.ar      1 <0>         0.0145
      13  C12        -0.4160   28.4540   54.8120  C.ar      1 <0>        -0.1120
      14  C13        -0.7610   29.8200   55.2300  C.2       1 <0>         0.1166
      15  N1          0.1170   30.7720   55.1300  N.2       1 <0>        -0.2054
      16  N2         -0.2120   32.0750   55.5280  N.am      1 <0>        -0.5852
      17  C14         0.3670   32.6120   56.6200  C.2       1 <0>         0.5271
      18  O2          1.1720   31.9680   57.2590  O.2       1 <0>        -0.4928
      19  C15         0.0130   34.0130   57.0480  C.3       1 <0>         0.1142
      20  N3          0.8080   34.9730   56.2780  N.pl3     1 <0>        -0.7378
      21  C16         2.1040   35.2920   56.6880  C.ar      1 <0>         0.2120
      22  C17         2.3470   35.6650   58.0030  C.ar      1 <0>        -0.1969
      23  C18         3.6310   35.9750   58.4050  C.ar      1 <0>        -0.0720
      24  C19         4.6740   35.9250   57.4980  C.ar      1 <0>        -0.1443
      25  C20         4.4350   35.5600   56.1860  C.ar      1 <0>        -0.0709
      26  C21         3.1530   35.2440   55.7780  C.ar      1 <0>        -0.1865
      27  C22         6.0730   36.2700   57.9390  C.3       1 <0>        -0.1077
@<TRIPOS>BOND
     1     1     2 1
     2     2     3 1
     3     3     4 1
     4     4    13 ar
     5     4     5 ar
     6     5     6 ar
     7     6     7 ar
     8     7    12 ar
     9     7     8 ar
    10     8     9 ar
    11     9    10 ar
    12    10    11 ar
    13    11    12 ar
    14    12    13 ar
    15    13    14 1
    16    14    15 2
    17    15    16 1
    18    16    17 am
    19    17    18 2
    20    17    19 1
    21    19    20 1
    22    20    21 1
    23    21    26 ar
    24    21    22 ar
    25    22    23 ar
    26    23    24 ar
    27    24    25 ar
    28    24    27 1
    29    25    26 ar

@<TRIPOS>MOLECULE
ZINC13564472_replica-1.pdb
 26 27 0 0 0
SMALL
GASTEIGER

@<TRIPOS>ATOM
       1  C1          9.8740   37.1260   61.1130  C.ar      1 <0>        -0.0958
       2  C2         10.7470   36.3300   61.8350  C.ar      1 <0>        -0.0907
       3  C3         11.1340   35.0960   61.3450  C.ar      1 <0>        -0.1620
       4  C4         10.6530   34.6500   60.1320  C.ar      1 <0>        -0.0692
       5  C5          9.7720   35.4470   59.3980  C.ar      1 <0>         0.1117
       6  C6          9.3850   36.6920   59.8980  C.ar      1 <0>        -0.1392
       7  N1          9.2910   35.0100   58.1930  N.2       1 <0>        -0.5389
       8  C7          8.2320   34.2340   58.1520  C.2       1 <0>         0.4024
       9  N2          7.5350   33.9580   59.3080  N.pl3     1 <0>        -0.6053
      10  C8          6.2940   34.4710   59.4900  C.1       1 <0>         0.3993
      11  N3          5.2540   34.9000   59.6420  N.1       1 <0>        -0.3745
      12  S1          7.7030   33.5470   56.6190  S.3       1 <0>        -0.0033
      13  C9          6.9220   34.9400   55.7580  C.3       1 <0>        -0.0385
      14  C10         5.4370   34.9180   56.0100  C.ar      1 <0>        -0.1087
      15  C11         4.7380   36.1070   56.1180  C.ar      1 <0>        -0.1119
      16  C12         3.3790   36.0950   56.3490  C.ar      1 <0>        -0.0880
      17  C13         2.7060   34.8760   56.4740  C.ar      1 <0>        -0.1147
      18  C14         3.4180   33.6790   56.3640  C.ar      1 <0>        -0.0879
      19  C15         4.7760   33.7070   56.1270  C.ar      1 <0>        -0.1114
      20  C16         1.2530   34.8540   56.7210  C.2       1 <0>         0.5170
      21  O1          0.6370   35.9030   56.8490  O.co2     1 <0>        -0.6841
      22  O2          0.6610   33.7860   56.8000  O.co2     1 <0>        -0.6840
      23  C17        12.0860   34.2370   62.1390  C.3       1 <0>         0.5089
      24  F1         13.3390   34.2310   61.5150  F         1 <0>        -0.1766
      25  F2         12.2110   34.7530   63.4330  F         1 <0>        -0.1738
      26  F3         11.5910   32.9300   62.2020  F         1 <0>        -0.1753
@<TRIPOS>BOND
     1     1     6 ar
     2     1     2 ar
     3     2     3 ar
     4     3     4 ar
     5     3    23 1
     6     4     5 ar
     7     5     6 ar
     8     5     7 1
     9     7     8 2
    10     8     9 1
    11     8    12 1
    12     9    10 1
    13    10    11 3
    14    12    13 1
    15    13    14 1
    16    14    19 ar
    17    14    15 ar
    18    15    16 ar
    19    16    17 ar
    20    17    18 ar
    21    17    20 1
    22    18    19 ar
    23    20    21 2
    24    20    22 1
    25    23    24 1
    26    23    25 1
    27    23    26 1

@<TRIPOS>MOLECULE
ZINC60953417_replica-1.pdb
 27 29 0 0 0
SMALL
GASTEIGER

@<TRIPOS>ATOM
       1  C1          0.6420   25.3890   54.4820  C.3       1 <0>        -0.1236
       2  C2         -0.1000   26.1740   53.4310  C.ar      1 <0>        -0.0766
       3  C3         -0.5200   25.5500   52.2700  C.ar      1 <0>        -0.1201
       4  C4         -1.2010   26.2690   51.3060  C.ar      1 <0>        -0.1187
       5  C5         -1.4630   27.6130   51.5020  C.ar      1 <0>        -0.1258
       6  C6         -1.0450   28.2350   52.6630  C.ar      1 <0>        -0.1098
       7  C7         -0.3670   27.5150   53.6290  C.ar      1 <0>        -0.0822
       8  C8          0.0840   28.1930   54.8970  C.3       1 <0>        -0.0938
       9  C9         -0.3810   29.6510   54.8880  C.3       1 <0>         0.1245
      10  N1          0.7640   30.5300   55.1390  N.am      1 <0>        -0.7336
      11  C10         0.6630   31.5270   56.0400  C.2       1 <0>         0.5254
      12  O1         -0.3760   31.6970   56.6440  O.2       1 <0>        -0.5353
      13  C11         1.8410   32.4320   56.2980  C.3       1 <0>        -0.1603
      14  C12         1.3470   33.7590   56.8760  C.3       1 <0>         0.1330
      15  N2          2.4470   34.4230   57.5820  N.pl3     1 <0>        -0.4870
      16  C13         2.6460   34.4810   58.9430  C.2       1 <0>         0.1404
      17  N3          3.7460   35.1700   59.1410  N.2       1 <0>        -0.2701
      18  N4          4.2410   35.5410   58.0140  N.2       1 <0>        -0.3380
      19  C14         3.4890   35.1080   57.0270  C.2       1 <0>         0.3791
      20  S1          3.7730   35.3660   55.3070  S.3       1 <0>        -0.7970
      21  C15         1.7860   33.8810   59.9830  C.ar      1 <0>         0.0155
      22  C16         0.6180   34.5320   60.3870  C.ar      1 <0>        -0.1039
      23  C17        -0.1820   33.9670   61.3580  C.ar      1 <0>        -0.1450
      24  C18         0.1720   32.7580   61.9340  C.ar      1 <0>         0.0876
      25  C19         1.3300   32.1080   61.5380  C.ar      1 <0>        -0.1466
      26  C20         2.1340   32.6610   60.5640  C.ar      1 <0>        -0.0622
      27  F1         -0.6160   32.2100   62.8860  F         1 <0>        -0.1434
@<TRIPOS>BOND
     1     1     2 1
     2     2     7 ar
     3     2     3 ar
     4     3     4 ar
     5     4     5 ar
     6     5     6 ar
     7     6     7 ar
     8     7     8 1
     9     8     9 1
    10     9    10 1
    11    10    11 am
    12    11    12 2
    13    11    13 1
    14    13    14 1
    15    14    15 1
    16    15    19 1
    17    15    16 1
    18    16    21 1
    19    16    17 2
    20    17    18 1
    21    18    19 2
    22    19    20 1
    23    21    26 ar
    24    21    22 ar
    25    22    23 ar
    26    23    24 ar
    27    24    25 ar
    28    24    27 1
    29    25    26 ar

@<TRIPOS>MOLECULE
ZINC14475320_replica-1.pdb
 35 40 0 0 0
SMALL
GASTEIGER

@<TRIPOS>ATOM
       1  C1          6.1850   35.9170   55.9300  C.3       1 <0>        -0.1181
       2  C2          6.7700   36.6870   57.0870  C.ar      1 <0>        -0.0673
       3  C3          7.4350   37.8760   56.8590  C.ar      1 <0>        -0.1257
       4  C4          7.9780   38.5800   57.9180  C.ar      1 <0>        -0.1005
       5  C5          7.8520   38.1000   59.2090  C.ar      1 <0>        -0.1231
       6  C6          7.1840   36.9140   59.4430  C.ar      1 <0>        -0.0568
       7  C7          6.6380   36.2040   58.3820  C.ar      1 <0>         0.1173
       8  N1          5.9620   35.0040   58.6170  N.pl3     1 <0>        -1.0606
       9  S1          4.3930   35.0280   59.1450  S.o2      1 <0>         2.6871
      10  O1          3.9260   36.3590   58.9750  O.2       1 <0>        -0.9460
      11  O2          4.3790   34.3710   60.4050  O.2       1 <0>        -0.9595
      12  C8          3.4560   34.0210   58.0430  C.ar      1 <0>        -0.7229
      13  C9          3.2720   34.4230   56.7320  C.ar      1 <0>         0.0222
      14  C10         2.5630   33.6480   55.9030  C.ar      1 <0>        -0.1965
      15  C11         2.0010   32.4550   56.3410  C.ar      1 <0>         0.2775
      16  C12         2.1680   32.0320   57.6350  C.ar      1 <0>        -0.1646
      17  C13         2.9090   32.8370   58.4910  C.ar      1 <0>         0.0330
      18  C14         1.5970   30.7560   58.1650  C.3       1 <0>        -0.0123
      19  C15         0.3970   31.0100   59.0460  C.2       1 <0>        -0.1565
      20  C16        -0.5020   30.0740   58.8690  C.2       1 <0>        -0.1676
      21  C17        -0.0210   29.0620   57.8470  C.3       1 <0>        -0.1004
      22  C18         1.0570   29.8470   57.0440  C.3       1 <0>        -0.0947
      23  C19         0.3220   30.6890   55.9970  C.3       1 <0>         0.2029
      24  N2          1.2520   31.6820   55.4480  N.pl3     1 <0>        -0.7372
      25  C20        -0.1750   29.7970   54.8890  C.ar      1 <0>        -0.0905
      26  C21        -1.0950   30.2940   53.9670  C.ar      1 <0>        -0.1097
      27  C22        -1.5600   29.5160   52.9520  C.ar      1 <0>        -0.0991
      28  C23        -1.1150   28.1870   52.8340  C.ar      1 <0>        -0.0498
      29  C24        -1.5770   27.3530   51.8030  C.ar      1 <0>        -0.1073
      30  C25        -1.1260   26.0710   51.7200  C.ar      1 <0>        -0.1130
      31  C26        -0.2100   25.5730   52.6450  C.ar      1 <0>        -0.1137
      32  C27         0.2600   26.3530   53.6570  C.ar      1 <0>        -0.1059
      33  C28        -0.1840   27.6810   53.7750  C.ar      1 <0>        -0.0491
      34  C29         0.2780   28.5160   54.8060  C.ar      1 <0>        -0.0883
      35  C30         7.0470   36.3910   60.8510  C.3       1 <0>        -0.1334
@<TRIPOS>BOND
     1     1     2 1
     2     2     7 ar
     3     2     3 ar
     4     3     4 ar
     5     4     5 ar
     6     5     6 ar
     7     6     7 ar
     8     6    35 1
     9     7     8 1
    10     8     9 1
    11     9    10 2
    12     9    11 2
    13     9    12 1
    14    12    17 ar
    15    12    13 ar
    16    13    14 ar
    17    14    15 ar
    18    15    24 1
    19    15    16 ar
    20    16    17 ar
    21    16    18 1
    22    18    22 1
    23    18    19 1
    24    19    20 2
    25    20    21 1
    26    21    22 1
    27    22    23 1
    28    23    24 1
    29    23    25 1
    30    25    34 ar
    31    25    26 ar
    32    26    27 ar
    33    27    28 ar
    34    28    33 ar
    35    28    29 ar
    36    29    30 ar
    37    30    31 ar
    38    31    32 ar
    39    32    33 ar
    40    33    34 ar

@<TRIPOS>MOLECULE
ZINC37775872_replica-1.pdb
 21 22 0 0 0
SMALL
GASTEIGER

@<TRIPOS>ATOM
       1  C1          5.0670   36.2440   55.9550  C.3       1 <0>        -0.1819
       2  C2          6.0920   35.6780   56.9400  C.3       1 <0>         0.0887
       3  C3          5.4080   34.6730   57.8680  C.3       1 <0>        -0.0689
       4  C4          6.4290   33.7000   58.3980  C.ar      1 <0>        -0.1391
       5  C5          7.0870   32.8470   57.5290  C.ar      1 <0>         0.1237
       6  C6          8.0260   31.9530   58.0170  C.ar      1 <0>        -0.1677
       7  C7          8.3060   31.9130   59.3690  C.ar      1 <0>        -0.0662
       8  C8          7.6480   32.7650   60.2370  C.ar      1 <0>        -0.1690
       9  C9          6.7140   33.6640   59.7510  C.ar      1 <0>         0.1572
      10  F1          6.0760   34.5000   60.5990  F         1 <0>        -0.1226
      11  F2          6.8130   32.8850   56.2070  F         1 <0>        -0.1325
      12  N1          6.6610   36.7730   57.7380  N.3       1 <0>        -0.6765
      13  C10         8.0910   36.9450   57.4510  C.3       1 <0>         0.1350
      14  C11         8.4920   36.0320   56.2900  C.3       1 <0>        -0.1296
      15  C12         8.8960   36.5840   58.6740  C.ar      1 <0>        -0.1142
      16  C13         9.6280   35.4130   58.6980  C.ar      1 <0>        -0.0925
      17  C14        10.3660   35.0810   59.8200  C.ar      1 <0>        -0.1275
      18  C15        10.3740   35.9200   60.9180  C.ar      1 <0>        -0.1052
      19  C16         9.6440   37.0930   60.8980  C.ar      1 <0>        -0.1455
      20  C17         8.9070   37.4300   59.7720  C.ar      1 <0>         0.1082
      21  O1          8.1920   38.5870   59.7480  O.3       1 <0>        -0.4951
@<TRIPOS>BOND
     1     1     2 1
     2     2     3 1
     3     2    12 1
     4     3     4 1
     5     4     9 ar
     6     4     5 ar
     7     5     6 ar
     8     5    11 1
     9     6     7 ar
    10     7     8 ar
    11     8     9 ar
    12     9    10 1
    13    12    13 1
    14    13    14 1
    15    13    15 1
    16    15    20 ar
    17    15    16 ar
    18    16    17 ar
    19    17    18 ar
    20    18    19 ar
    21    19    20 ar
    22    20    21 1

@<TRIPOS>MOLECULE
ZINC20526313_replica-1.pdb
 19 20 0 0 0
SMALL
GASTEIGER

@<TRIPOS>ATOM
       1  C1          0.6000   26.5920   55.4960  C.3       1 <0>        -0.1561
       2  C2         -0.1540   27.8440   55.0470  C.3       1 <0>         0.1762
       3  C3         -0.6630   27.6490   53.6430  C.ar      1 <0>        -0.0204
       4  C4         -0.4010   26.4700   52.9700  C.ar      1 <0>        -0.1191
       5  C5         -0.8690   26.2920   51.6810  C.ar      1 <0>        -0.0575
       6  C6         -1.5980   27.2920   51.0660  C.ar      1 <0>        -0.1193
       7  C7         -1.8600   28.4700   51.7390  C.ar      1 <0>        -0.0480
       8  C8         -1.3960   28.6470   53.0300  C.ar      1 <0>        -0.0411
       9  N1         -1.6820   29.9070   53.7520  N.pl3     1 <0>         0.0295
      10  O1         -0.7910   30.7180   53.9390  O.2       1 <0>        -0.1552
      11  O2         -2.8070   30.1330   54.1600  O.3       1 <0>        -0.1586
      12  N2         -1.2860   28.0820   55.9480  N.pl3     1 <0>        -0.7560
      13  C9         -1.0600   28.5410   57.2470  C.ar      1 <0>         0.2266
      14  C10        -1.6220   27.8730   58.3290  C.ar      1 <0>        -0.1825
      15  C11        -1.3930   28.3270   59.6130  C.ar      1 <0>        -0.0645
      16  C12        -0.6160   29.4510   59.8220  C.ar      1 <0>        -0.1456
      17  C13        -0.0580   30.1210   58.7480  C.ar      1 <0>        -0.0494
      18  C14        -0.2800   29.6690   57.4600  C.ar      1 <0>        -0.1644
      19  I1          1.1190   31.8230   59.0720  I         1 <0>        -0.0467
@<TRIPOS>BOND
     1     1     2 1
     2     2     3 1
     3     2    12 1
     4     3     8 ar
     5     3     4 ar
     6     4     5 ar
     7     5     6 ar
     8     6     7 ar
     9     7     8 ar
    10     8     9 1
    11     9    10 2
    12     9    11 1
    13    12    13 1
    14    13    18 ar
    15    13    14 ar
    16    14    15 ar
    17    15    16 ar
    18    16    17 ar
    19    17    18 ar
    20    17    19 1

@<TRIPOS>MOLECULE
ZINC03202154_replica-1.pdb
 27 29 0 0 0
SMALL
GASTEIGER

@<TRIPOS>ATOM
       1  C1          8.2560   38.4200   58.3960  C.3       1 <0>        -0.1735
       2  C2          7.1520   37.3800   58.5980  C.3       1 <0>         0.1156
       3  N1          6.6830   36.9070   57.2930  N.pl3     1 <0>        -0.6226
       4  C3          7.0840   37.6090   56.0720  C.3       1 <0>         0.1150
       5  C4          7.7970   36.6330   55.1330  C.3       1 <0>        -0.1735
       6  C5          5.8540   35.7880   57.2130  C.ar      1 <0>         0.2382
       7  C6          4.5610   35.9160   56.7160  C.ar      1 <0>        -0.2053
       8  C7          3.7400   34.8130   56.6360  C.ar      1 <0>        -0.0375
       9  C8          4.2070   33.5640   57.0550  C.ar      1 <0>        -0.1243
      10  C9          5.5060   33.4390   57.5540  C.ar      1 <0>        -0.0251
      11  C10         6.3240   34.5460   57.6270  C.ar      1 <0>        -0.2055
      12  C11         3.3310   32.3810   56.9720  C.2       1 <0>         0.1245
      13  N2          2.3180   32.3790   56.1610  N.2       1 <0>        -0.2440
      14  N3          1.4860   31.2550   56.0820  N.am      1 <0>        -0.5885
      15  C12         0.2230   31.3170   56.5490  C.2       1 <0>         0.4996
      16  O1         -0.1920   32.3470   57.0380  O.2       1 <0>        -0.4860
      17  C13        -0.6720   30.1080   56.4640  C.3       1 <0>         0.1184
      18  N4         -0.8040   29.6960   55.0640  N.pl3     1 <0>        -0.6126
      19  C14        -1.3230   30.6300   54.0560  C.3       1 <0>         0.1278
      20  C15        -2.3360   29.8710   53.1890  C.3       1 <0>        -0.1347
      21  C16        -1.6100   28.7450   52.4550  C.3       1 <0>        -0.0731
      22  C17        -0.8080   27.9140   53.4220  C.ar      1 <0>        -0.1454
      23  C18        -0.4320   28.4070   54.6630  C.ar      1 <0>         0.2203
      24  C19         0.3160   27.6190   55.5290  C.ar      1 <0>        -0.1839
      25  C20         0.6900   26.3430   55.1550  C.ar      1 <0>        -0.0805
      26  C21         0.3180   25.8520   53.9170  C.ar      1 <0>        -0.1685
      27  C22        -0.4360   26.6320   53.0560  C.ar      1 <0>        -0.0792
@<TRIPOS>BOND
     1     1     2 1
     2     2     3 1
     3     3     4 1
     4     3     6 1
     5     4     5 1
     6     6    11 ar
     7     6     7 ar
     8     7     8 ar
     9     8     9 ar
    10     9    10 ar
    11     9    12 1
    12    10    11 ar
    13    12    13 2
    14    13    14 1
    15    14    15 am
    16    15    16 2
    17    15    17 1
    18    17    18 1
    19    18    23 1
    20    18    19 1
    21    19    20 1
    22    20    21 1
    23    21    22 1
    24    22    27 ar
    25    22    23 ar
    26    23    24 ar
    27    24    25 ar
    28    25    26 ar
    29    26    27 ar

@<TRIPOS>MOLECULE
ZINC33749886_replica-1.pdb
 25 27 0 0 0
SMALL
GASTEIGER

@<TRIPOS>ATOM
       1  C1          0.7630   32.8240   59.5910  C.3       1 <0>        -0.1531
       2  C2          0.1750   33.7850   58.5540  C.3       1 <0>        -0.1303
       3  C3          1.0370   33.7630   57.2910  C.3       1 <0>         0.1453
       4  C4          1.4800   35.1870   56.9520  C.3       1 <0>        -0.1626
       5  N1          0.2560   33.2170   56.1780  N.am      1 <0>        -0.7429
       6  C5          0.4150   31.9300   55.8100  C.2       1 <0>         0.5110
       7  O1          1.2050   31.2240   56.4010  O.2       1 <0>        -0.5213
       8  C6         -0.3870   31.3680   54.6650  C.3       1 <0>        -0.1350
       9  C7         -0.9170   29.9850   55.0450  C.3       1 <0>         0.0067
      10  C8         -2.1940   30.1370   55.8730  C.3       1 <0>        -0.0744
      11  C9         -2.1650   29.1670   57.0270  C.ar      1 <0>        -0.0727
      12  C10        -1.2850   29.3640   58.0740  C.ar      1 <0>        -0.1181
      13  C11        -1.2580   28.4740   59.1310  C.ar      1 <0>        -0.1200
      14  C12        -2.1080   27.3840   59.1380  C.ar      1 <0>        -0.1242
      15  C13        -2.9920   27.1890   58.0930  C.ar      1 <0>        -0.1195
      16  C14        -3.0190   28.0800   57.0370  C.ar      1 <0>        -0.1009
      17  C15        -1.2220   29.2020   53.7930  C.2       1 <0>        -0.1351
      18  C16        -1.9580   29.6180   52.7510  C.2       1 <0>         0.0262
      19  N2         -2.0110   28.6380   51.7970  N.pl3     1 <0>        -0.6087
      20  C17        -1.3030   27.5360   52.2180  C.ar      1 <0>         0.1057
      21  C18        -0.7770   27.8410   53.4870  C.ar      1 <0>        -0.0743
      22  C19        -0.0040   26.8970   54.1660  C.ar      1 <0>        -0.0485
      23  C20         0.2380   25.6790   53.5930  C.ar      1 <0>        -0.1560
      24  C21        -0.2790   25.3740   52.3410  C.ar      1 <0>        -0.1003
      25  C22        -1.0450   26.2910   51.6550  C.ar      1 <0>        -0.1398
@<TRIPOS>BOND
     1     1     2 1
     2     2     3 1
     3     3     4 1
     4     3     5 1
     5     5     6 am
     6     6     7 2
     7     6     8 1
     8     8     9 1
     9     9    10 1
    10     9    17 1
    11    10    11 1
    12    11    16 ar
    13    11    12 ar
    14    12    13 ar
    15    13    14 ar
    16    14    15 ar
    17    15    16 ar
    18    17    21 1
    19    17    18 2
    20    18    19 1
    21    19    20 1
    22    20    25 ar
    23    20    21 ar
    24    21    22 ar
    25    22    23 ar
    26    23    24 ar
    27    24    25 ar

@<TRIPOS>MOLECULE
ZINC63094050_replica-1.pdb
 26 27 0 0 0
SMALL
GASTEIGER

@<TRIPOS>ATOM
       1  C1         -1.1770   26.4480   51.3030  C.ar      1 <0>        -0.0492
       2  C2         -1.5400   27.7300   51.6710  C.ar      1 <0>        -0.1604
       3  C3         -1.1660   28.2280   52.9110  C.ar      1 <0>         0.1578
       4  C4         -0.4260   27.4390   53.7790  C.ar      1 <0>        -0.2494
       5  C5         -0.0640   26.1560   53.4070  C.ar      1 <0>         0.1401
       6  C6         -0.4400   25.6620   52.1690  C.ar      1 <0>        -0.1909
       7  F1          0.6570   25.3860   54.2510  F         1 <0>        -0.1347
       8  O1         -1.5230   29.4880   53.2740  O.3       1 <0>        -0.2963
       9  C7         -1.6910   29.7380   54.6700  C.3       1 <0>         0.0264
      10  C8         -1.2290   31.1600   54.9930  C.3       1 <0>         0.1000
      11  C9          0.2850   31.1670   55.2120  C.3       1 <0>         0.0891
      12  N1          0.6860   32.4430   55.8130  N.am      1 <0>        -0.7122
      13  C10         1.5170   32.4560   56.8730  C.2       1 <0>         0.5623
      14  O2          1.9350   31.4100   57.3320  O.2       1 <0>        -0.5052
      15  C11         1.9200   33.7380   57.4770  C.ar      1 <0>        -0.1686
      16  C12         1.0730   34.4020   58.3730  C.ar      1 <0>        -0.0202
      17  C13         1.4990   35.6030   58.9130  C.ar      1 <0>        -0.1731
      18  C14         2.7360   36.1110   58.5570  C.ar      1 <0>         0.1540
      19  N2          3.5200   35.4720   57.7110  N.ar      1 <0>        -0.4826
      20  C15         3.1660   34.3150   57.1700  C.ar      1 <0>         0.1470
      21  S1          4.2560   33.5010   56.0520  S.3       1 <0>         0.1180
      22  C16         4.6500   34.7710   54.8190  C.3       1 <0>         0.4113
      23  F2          5.6920   35.5750   55.2950  F         1 <0>        -0.1661
      24  F3          5.0440   34.1570   53.6250  F         1 <0>        -0.1572
      25  F4          3.5200   35.5610   54.5860  F         1 <0>        -0.1659
      26  O3         -1.8840   31.6170   56.1780  O.3       1 <0>        -0.5468
@<TRIPOS>BOND
     1     1     6 ar
     2     1     2 ar
     3     2     3 ar
     4     3     4 ar
     5     3     8 1
     6     4     5 ar
     7     5     6 ar
     8     5     7 1
     9     8     9 1
    10     9    10 1
    11    10    11 1
    12    10    26 1
    13    11    12 1
    14    12    13 am
    15    13    14 2
    16    13    15 1
    17    15    20 ar
    18    15    16 ar
    19    16    17 ar
    20    17    18 ar
    21    18    19 ar
    22    19    20 ar
    23    20    21 1
    24    21    22 1
    25    22    23 1
    26    22    24 1
    27    22    25 1

@<TRIPOS>MOLECULE
ZINC00525230_replica-1.pdb
 24 26 0 0 0
SMALL
GASTEIGER

@<TRIPOS>ATOM
       1  C1          0.5400   24.0380   55.9460  C.3       1 <0>         0.0223
       2  O1          0.7800   24.6510   54.6780  O.3       1 <0>        -0.3067
       3  C2          0.3760   25.9380   54.5290  C.ar      1 <0>         0.1847
       4  C3          0.6280   26.8540   55.5260  C.ar      1 <0>        -0.2418
       5  C4          0.2280   28.1770   55.4160  C.ar      1 <0>        -0.0115
       6  C5         -0.4390   28.6240   54.2810  C.ar      1 <0>        -0.1159
       7  C6         -0.7130   27.6740   53.2040  C.ar      1 <0>         0.0138
       8  C7         -0.2910   26.3300   53.3500  C.ar      1 <0>        -0.0803
       9  C8         -0.5510   25.4130   52.3190  C.ar      1 <0>        -0.0777
      10  C9         -1.2040   25.8270   51.1970  C.ar      1 <0>        -0.1280
      11  C10        -1.6180   27.1490   51.0560  C.ar      1 <0>        -0.0942
      12  C11        -1.3820   28.0660   52.0380  C.ar      1 <0>        -0.1315
      13  C12        -0.8620   30.0270   54.1660  C.2       1 <0>         0.1751
      14  N1         -0.0750   30.9780   54.5740  N.2       1 <0>        -0.3015
      15  N2         -0.5500   31.9420   55.4740  N.pl3     1 <0>        -0.5360
      16  C13         0.3130   32.6050   56.2670  C.2       1 <0>         0.5843
      17  S1          1.3170   31.7390   57.3510  S.2       1 <0>        -0.5924
      18  N3          0.3890   33.9490   56.2080  N.pl3     1 <0>        -0.6134
      19  C14         1.3690   34.6280   56.9390  C.ar      1 <0>         0.1184
      20  C15         1.0810   35.1090   58.2100  C.ar      1 <0>        -0.1223
      21  C16         2.0520   35.7730   58.9320  C.ar      1 <0>        -0.1136
      22  C17         3.3080   35.9710   58.3870  C.ar      1 <0>        -0.1126
      23  C18         3.5960   35.4970   57.1200  C.ar      1 <0>        -0.1103
      24  C19         2.6300   34.8280   56.3940  C.ar      1 <0>        -0.0734
@<TRIPOS>BOND
     1     1     2 1
     2     2     3 1
     3     3     8 ar
     4     3     4 ar
     5     4     5 ar
     6     5     6 ar
     7     6     7 ar
     8     6    13 1
     9     7    12 ar
    10     7     8 ar
    11     8     9 ar
    12     9    10 ar
    13    10    11 ar
    14    11    12 ar
    15    13    14 2
    16    14    15 1
    17    15    16 1
    18    16    17 2
    19    16    18 1
    20    18    19 1
    21    19    24 ar
    22    19    20 ar
    23    20    21 ar
    24    21    22 ar
    25    22    23 ar
    26    23    24 ar

@<TRIPOS>MOLECULE
ZINC12976069_replica-1.pdb
 27 29 0 0 0
SMALL
GASTEIGER

@<TRIPOS>ATOM
       1  C1          0.5840   25.1570   60.9650  C.3       1 <0>        -0.1456
       2  C2          0.1750   26.4630   60.2810  C.3       1 <0>        -0.1212
       3  C3          0.6350   26.4410   58.8220  C.3       1 <0>        -0.1206
       4  C4         -0.5270   26.0050   57.9270  C.3       1 <0>         0.1882
       5  C5         -0.1330   24.7710   57.1570  C.ar      1 <0>        -0.0846
       6  C6         -0.2900   23.5210   57.7270  C.ar      1 <0>        -0.1137
       7  C7          0.0710   22.3890   57.0200  C.ar      1 <0>        -0.1161
       8  C8          0.5880   22.5070   55.7440  C.ar      1 <0>        -0.1227
       9  C9          0.7450   23.7570   55.1740  C.ar      1 <0>        -0.1168
      10  C10         0.3790   24.8880   55.8790  C.ar      1 <0>        -0.1080
      11  N1         -0.8510   27.0830   56.9890  N.am      1 <0>        -0.7274
      12  C11        -2.0190   27.7450   57.1020  C.2       1 <0>         0.5054
      13  O1         -2.8020   27.4510   57.9800  O.2       1 <0>        -0.4986
      14  C12        -2.3530   28.8530   56.1370  C.3       1 <0>         0.0970
      15  N2         -1.1190   29.5160   55.7060  N.pl3     1 <0>        -0.4724
      16  C13        -0.5060   29.4120   54.4790  C.2       1 <0>         0.1517
      17  N3          0.5670   30.1670   54.5200  N.2       1 <0>        -0.2709
      18  N4          0.6650   30.7280   55.6720  N.2       1 <0>        -0.3405
      19  C14        -0.3430   30.3690   56.4360  C.2       1 <0>         0.3899
      20  S1         -0.6340   30.8890   58.0940  S.3       1 <0>        -0.7971
      21  C15        -0.9670   28.6020   53.3310  C.ar      1 <0>         0.0294
      22  C16        -1.8780   29.1370   52.4180  C.ar      1 <0>        -0.1307
      23  C17        -2.3050   28.3760   51.3490  C.ar      1 <0>        -0.1102
      24  C18        -1.8310   27.0870   51.1810  C.ar      1 <0>        -0.1278
      25  C19        -0.9280   26.5520   52.0820  C.ar      1 <0>        -0.0841
      26  C20        -0.4880   27.3040   53.1520  C.ar      1 <0>        -0.0905
      27  C21        -0.4170   25.1470   51.8900  C.3       1 <0>        -0.1116
@<TRIPOS>BOND
     1     1     2 1
     2     2     3 1
     3     3     4 1
     4     4     5 1
     5     4    11 1
     6     5    10 ar
     7     5     6 ar
     8     6     7 ar
     9     7     8 ar
    10     8     9 ar
    11     9    10 ar
    12    11    12 am
    13    12    13 2
    14    12    14 1
    15    14    15 1
    16    15    19 1
    17    15    16 1
    18    16    17 2
    19    16    21 1
    20    17    18 1
    21    18    19 2
    22    19    20 1
    23    21    26 ar
    24    21    22 ar
    25    22    23 ar
    26    23    24 ar
    27    24    25 ar
    28    25    26 ar
    29    25    27 1

@<TRIPOS>MOLECULE
ZINC03957923_replica-1.pdb
 22 24 0 0 0
SMALL
GASTEIGER

@<TRIPOS>ATOM
       1  C1          1.7860   35.3590   59.1780  C.3       1 <0>        -0.1329
       2  C2          2.7540   34.3350   58.5850  C.3       1 <0>        -0.0072
       3  C3          4.1490   34.6150   59.0820  C.2       1 <0>        -0.4350
       4  C4          4.6390   33.9590   60.2290  C.2       1 <0>         0.3949
       5  O1          3.9390   33.1580   60.8330  O.3       1 <0>        -0.5942
       6  C5          5.9520   34.2430   60.6700  C.2       1 <0>        -0.2645
       7  C6          6.7100   35.1390   59.9800  C.2       1 <0>         0.1847
       8  N1          6.2060   35.7660   58.8700  N.am      1 <0>        -0.4660
       9  C7          4.9450   35.5030   58.4240  C.2       1 <0>         0.4679
      10  O2          4.4790   36.1330   57.3230  O.2       1 <0>        -0.6873
      11  C8          7.0020   36.6870   58.1800  C.ar      1 <0>         0.1600
      12  C9          7.7160   36.2870   57.0590  C.ar      1 <0>        -0.1168
      13  C10         8.4970   37.2010   56.3770  C.ar      1 <0>        -0.1103
      14  C11         8.5760   38.5100   56.8180  C.ar      1 <0>        -0.1289
      15  C12         7.8700   38.9100   57.9380  C.ar      1 <0>        -0.1126
      16  C13         7.0830   38.0020   58.6200  C.ar      1 <0>        -0.1037
      17  C14         8.0860   35.4370   60.4300  C.ar      1 <0>        -0.0502
      18  C15         9.1520   34.6530   59.9890  C.ar      1 <0>        -0.0936
      19  C16        10.4340   34.9360   60.4130  C.ar      1 <0>        -0.1239
      20  C17        10.6640   35.9950   61.2740  C.ar      1 <0>        -0.1182
      21  C18         9.6100   36.7760   61.7160  C.ar      1 <0>        -0.1199
      22  C19         8.3230   36.5030   61.2990  C.ar      1 <0>        -0.1046
@<TRIPOS>BOND
     1     1     2 1
     2     2     3 1
     3     3     4 2
     4     3     9 1
     5     4     6 1
     6     4     5 1
     7     6     7 2
     8     7     8 1
     9     7    17 1
    10     8    11 1
    11     8     9 am
    12     9    10 2
    13    11    16 ar
    14    11    12 ar
    15    12    13 ar
    16    13    14 ar
    17    14    15 ar
    18    15    16 ar
    19    17    22 ar
    20    17    18 ar
    21    18    19 ar
    22    19    20 ar
    23    20    21 ar
    24    21    22 ar

@<TRIPOS>MOLECULE
ZINC13468500_replica-1.pdb
 28 30 0 0 0
SMALL
GASTEIGER

@<TRIPOS>ATOM
       1  C1          8.8290   37.7040   59.5500  C.3       1 <0>        -0.1254
       2  C2          8.7310   36.2420   59.9900  C.3       1 <0>        -0.0592
       3  C3          7.4620   36.0460   60.8230  C.3       1 <0>        -0.1135
       4  C4          6.2610   36.4640   60.0150  C.2       1 <0>         0.5148
       5  O1          5.8420   37.5990   60.0950  O.2       1 <0>        -0.4881
       6  N1          5.6520   35.5760   59.2050  N.am      1 <0>        -0.7365
       7  C5          4.4840   35.9820   58.4190  C.3       1 <0>         0.2730
       8  C6          4.6630   35.5400   56.9890  C.ar      1 <0>        -0.0949
       9  C7          5.6460   34.6240   56.6670  C.ar      1 <0>        -0.0778
      10  C8          5.8070   34.2140   55.3570  C.ar      1 <0>        -0.1484
      11  C9          4.9900   34.7320   54.3650  C.ar      1 <0>         0.0992
      12  C10         4.0100   35.6540   54.6880  C.ar      1 <0>        -0.1491
      13  C11         3.8470   36.0570   56.0000  C.ar      1 <0>        -0.0699
      14  F1          5.1510   34.3360   53.0830  F         1 <0>        -0.1405
      15  C12         3.2470   35.3400   58.9920  C.2       1 <0>        -0.1348
      16  C13         1.9520   35.7250   58.8720  C.2       1 <0>        -0.1496
      17  C14         0.9700   34.9750   59.4910  C.2       1 <0>        -0.1501
      18  C15         1.3300   33.8770   60.2000  C.2       1 <0>        -0.1832
      19  S1          3.1040   33.8770   60.0050  S.3       1 <0>         0.0409
      20  C16         9.9370   35.8860   60.8200  C.ar      1 <0>        -0.0225
      21  C17        10.3930   36.7610   61.7880  C.ar      1 <0>        -0.1282
      22  C18        11.4960   36.4310   62.5530  C.ar      1 <0>        -0.1221
      23  C19        12.1510   35.2320   62.3420  C.ar      1 <0>        -0.1424
      24  C20        11.6980   34.3600   61.3690  C.ar      1 <0>        -0.1194
      25  C21        10.5910   34.6870   60.6090  C.ar      1 <0>        -0.1104
      26  C22         8.6760   35.3540   58.7750  C.2       1 <0>         0.4878
      27  O2          8.9750   35.7950   57.6900  O.co2     1 <0>        -0.6169
      28  O3          8.2960   34.0730   58.8960  O.co2     1 <0>        -0.7712
@<TRIPOS>BOND
     1     1     2 1
     2     2     3 1
     3     2    20 1
     4     2    26 1
     5     3     4 1
     6     4     5 2
     7     4     6 am
     8     6     7 1
     9     7     8 1
    10     7    15 1
    11     8    13 ar
    12     8     9 ar
    13     9    10 ar
    14    10    11 ar
    15    11    12 ar
    16    11    14 1
    17    12    13 ar
    18    15    19 1
    19    15    16 2
    20    16    17 1
    21    17    18 2
    22    18    19 1
    23    20    25 ar
    24    20    21 ar
    25    21    22 ar
    26    22    23 ar
    27    23    24 ar
    28    24    25 ar
    29    26    27 2
    30    26    28 1

@<TRIPOS>MOLECULE
ZINC66696822_replica-1.pdb
 25 27 0 0 0
SMALL
GASTEIGER

@<TRIPOS>ATOM
       1  C1          0.6090   33.0400   59.8990  C.2       1 <0>        -0.1564
       2  C2          0.9780   32.4550   58.7020  C.2       1 <0>        -0.1369
       3  C3          1.3300   33.2510   57.6620  C.2       1 <0>        -0.1587
       4  S1          1.1410   34.8810   58.3660  S.3       1 <0>         0.0438
       5  C4          0.6070   34.3910   59.9980  C.2       1 <0>        -0.1682
       6  C5          1.7660   32.8620   56.2740  C.3       1 <0>         0.2811
       7  C6          3.2330   33.1640   56.1060  C.ar      1 <0>        -0.1079
       8  C7          3.6450   34.0710   55.1480  C.ar      1 <0>        -0.0787
       9  C8          4.9900   34.3500   54.9930  C.ar      1 <0>        -0.1471
      10  C9          5.9240   33.7200   55.7970  C.ar      1 <0>         0.1082
      11  C10         5.5100   32.8120   56.7570  C.ar      1 <0>        -0.1480
      12  C11         4.1640   32.5390   56.9130  C.ar      1 <0>        -0.0686
      13  F1          7.2390   33.9920   55.6470  F         1 <0>        -0.1352
      14  N1          1.5360   31.4290   56.0730  N.am      1 <0>        -0.7223
      15  C12         0.4040   31.0060   55.4760  C.2       1 <0>         0.5163
      16  O1         -0.4240   31.8110   55.1040  O.2       1 <0>        -0.5214
      17  C13         0.1670   29.5320   55.2690  C.3       1 <0>         0.1058
      18  N2         -0.7410   29.3380   54.1360  N.pl3     1 <0>        -0.7350
      19  C14        -0.7080   28.1420   53.4100  C.ar      1 <0>         0.2090
      20  C15        -1.3350   28.0620   52.1740  C.ar      1 <0>        -0.1734
      21  C16        -1.3010   26.8800   51.4590  C.ar      1 <0>        -0.1027
      22  C17        -0.6410   25.7780   51.9740  C.ar      1 <0>         0.0378
      23  C18        -0.0150   25.8550   53.2070  C.ar      1 <0>        -0.1019
      24  C19        -0.0430   27.0360   53.9230  C.ar      1 <0>        -0.1630
      25  F2         -0.6090   24.6230   51.2730  F         1 <0>        -0.1455
@<TRIPOS>BOND
     1     1     5 2
     2     1     2 1
     3     2     3 2
     4     3     4 1
     5     3     6 1
     6     4     5 1
     7     6     7 1
     8     6    14 1
     9     7    12 ar
    10     7     8 ar
    11     8     9 ar
    12     9    10 ar
    13    10    11 ar
    14    10    13 1
    15    11    12 ar
    16    14    15 am
    17    15    16 2
    18    15    17 1
    19    17    18 1
    20    18    19 1
    21    19    24 ar
    22    19    20 ar
    23    20    21 ar
    24    21    22 ar
    25    22    23 ar
    26    22    25 1
    27    23    24 ar

@<TRIPOS>MOLECULE
ZINC66154341_replica-1.pdb
 21 22 0 0 0
SMALL
GASTEIGER

@<TRIPOS>ATOM
      1  C10       -1.1330   30.8670   56.5830 C.3     0  <0>0        0.2265
      2  O1        -0.3670   29.6620   56.5260 O.3     0  <0>0       -0.4736
      3  C7        -0.4290   28.9460   55.3730 C.ar    0  <0>0        0.1386
      4  C6        -1.1820   29.4130   54.3050 C.ar    0  <0>0        0.0366
      5  C5        -1.2430   28.6840   53.1330 C.ar    0  <0>0       -0.0012
      6  C4        -0.5530   27.4910   53.0230 C.ar    0  <0>0       -0.0223
      7  C9         0.1940   27.0210   54.0870 C.ar    0  <0>0       -0.0012
      8  C8         0.2630   27.7480   55.2590 C.ar    0  <0>0        0.0366
      9  C2        -0.6210   26.6990   51.7430 C.3     0  <0>0        0.0224
     10  C1        -0.6770   25.2050   52.0700 C.3     0  <0>0        0.0047
     11  C3        -1.8750   27.0970   50.9610 C.3     0  <0>0        0.0047
     12  C11       -0.2020   32.0710   56.4230 C.3     0  <0>0        0.1351
     13  N1        -0.4890   33.0520   57.4730 N.pl3   0  <0>0       -0.3290
     14  H16       -1.3170   32.9960   57.9760 H       0  <0>0        0.1469
     15  C12        0.4290   34.0690   57.7490 C.ar    0  <0>0        0.0554
     16  C17        0.8480   34.2930   59.0550 C.ar    0  <0>0        0.0707
     17  C16        1.7600   35.2970   59.3220 C.ar    0  <0>0        0.0126
     18 Cl          0.2310   33.3110   60.3470 Cl      0  <0>0       -0.0810
     19  C15        2.2480   36.0830   58.2940 C.ar    0  <0>0        0.0009
     20  C14        1.8280   35.8650   56.9950 C.ar    0  <0>0        0.0013
     21  C13        0.9200   34.8600   56.7190 C.ar    0  <0>0        0.0152
@<TRIPOS>BOND
     1    11     9    1
     2     9    10    1
     3     9     6    1
     4     6     5   ar
     5     6     7   ar
     6     5     4   ar
     7     7     8   ar
     8     4     3   ar
     9     8     3   ar
    10     3     2    1
    11    12     1    1
    12    12    13    1
    13     2     1    1
    14    21    20   ar
    15    21    15   ar
    16    20    19   ar
    17    13    15    1
    18    13    14    1
    19    15    16   ar
    20    19    17   ar
    21    16    17   ar
    22    16    18    1


@<TRIPOS>MOLECULE
ZINC41494829_replica-1.pdb
 23 26 0 0 0
SMALL
GASTEIGER

@<TRIPOS>ATOM
       1  C1          7.5990   37.9430   55.8550  C.ar      1 <0>        -0.1814
       2  C2          8.0600   37.9900   57.1520  C.ar      1 <0>         0.0044
       3  C3          8.4560   36.7900   57.7820  C.ar      1 <0>        -0.1443
       4  C4          8.9760   36.6190   59.1530  C.ar      1 <0>         0.2299
       5  C5          9.2940   35.3090   59.5280  C.ar      1 <0>        -0.2829
       6  C6          9.7920   35.0290   60.7940  C.ar      1 <0>         0.4885
       7  N1          9.9580   36.0420   61.6450  N.ar      1 <0>        -0.5466
       8  C7          9.6520   37.2720   61.2750  C.ar      1 <0>         0.3450
       9  N2          9.1820   37.5710   60.0910  N.ar      1 <0>        -0.5221
      10  N3         10.1070   33.7310   61.1640  N.pl3     1 <0>        -0.6328
      11  C8         11.3160   33.4630   61.8180  C.ar      1 <0>         0.1502
      12  C9         12.4120   34.2910   61.6200  C.ar      1 <0>        -0.0945
      13  C10        13.6040   34.0260   62.2650  C.ar      1 <0>        -0.1047
      14  C11        13.7080   32.9340   63.1110  C.ar      1 <0>         0.0761
      15  C12        12.6160   32.1030   63.3110  C.ar      1 <0>         0.0612
      16  C13        11.4180   32.3700   62.6710  C.ar      1 <0>         0.0558
      17  F1         10.3510   31.5650   62.8710  F         1 <0>        -0.1178
      18  F2         12.7200   31.0380   64.1360  F         1 <0>        -0.1118
      19  F3         14.8760   32.6770   63.7410  F         1 <0>        -0.1183
      20  S1          8.9160   34.3290   58.1010  S.3       1 <0>         0.1419
      21  C14         8.3440   35.6150   57.0170  C.ar      1 <0>         0.1277
      22  N4          7.8970   35.6160   55.7790  N.ar      1 <0>        -0.4501
      23  C15         7.5260   36.7330   55.1840  C.ar      1 <0>         0.1557
@<TRIPOS>BOND
     1     1    23 ar
     2     1     2 ar
     3     2     3 ar
     4     3    21 ar
     5     3     4 1
     6     4     9 ar
     7     4     5 ar
     8     5     6 ar
     9     5    20 1
    10     6     7 ar
    11     6    10 1
    12     7     8 ar
    13     8     9 ar
    14    10    11 1
    15    11    16 ar
    16    11    12 ar
    17    12    13 ar
    18    13    14 ar
    19    14    15 ar
    20    14    19 1
    21    15    16 ar
    22    15    18 1
    23    16    17 1
    24    20    21 1
    25    21    22 ar
    26    22    23 ar

@<TRIPOS>MOLECULE
ZINC21950587_replica-1.pdb
 18 19 0 0 0
SMALL
GASTEIGER

@<TRIPOS>ATOM
      1  C1        10.2080   36.4690   61.3550 C.ar    0  <0>0        0.0004
      2  C2         9.5040   37.4060   60.6340 C.ar    0  <0>0        0.0089
      3  C3         9.0730   37.1110   59.3380 C.ar    0  <0>0        0.1071
      4  C4         9.3580   35.8620   58.7750 C.ar    0  <0>0        0.1465
      5  C5        10.0660   34.9250   59.5000 C.ar    0  <0>0        0.0299
      6  C6        10.4990   35.2260   60.7910 C.ar    0  <0>0        0.0023
      7  F1         8.9440   35.5740   57.5210 F       0  <0>0       -0.2040
      8  C7        11.2630   34.2210   61.5680 C.ar    0  <0>0        0.0010
      9  C12       12.5950   34.4620   61.9040 C.ar    0  <0>0        0.0122
     10  C11       13.3010   33.5250   62.6330 C.ar    0  <0>0        0.0682
     11  C10       12.6910   32.3420   63.0190 C.ar    0  <0>0        0.0682
     12 Cl         14.9560   33.8260   63.0590 Cl      0  <0>0       -0.0814
     13  C9        11.3710   32.0960   62.6820 C.ar    0  <0>0        0.0122
     14 Cl         13.5850   31.1640   63.9270 Cl      0  <0>0       -0.0814
     15  C8        10.6560   33.0290   61.9590 C.ar    0  <0>0        0.0009
     16  C13        8.3170   38.1140   58.5650 C.2     0  <0>0        0.3899
     17  O1         7.2070   38.4490   58.9290 O.co2   0  <0>0       -0.2405
     18  O2         8.8560   38.6580   57.4560 O.co2   0  <0>0       -0.2405
@<TRIPOS>BOND
     1    18    16   ar
     2     7     4    1
     3    16    17   ar
     4    16     3    1
     5     4     3   ar
     6     4     5   ar
     7     3     2   ar
     8     5     6   ar
     9     2     1   ar
    10     6     1   ar
    11     6     8    1
    12     8     9   ar
    13     8    15   ar
    14     9    10   ar
    15    15    13   ar
    16    10    11   ar
    17    10    12    1
    18    13    11   ar
    19    11    14    1


@<TRIPOS>MOLECULE
ZINC59924063_replica-1.pdb
 27 29 0 0 0
SMALL
GASTEIGER

@<TRIPOS>ATOM
       1  C1          5.2470   35.2820   59.7450  C.3       1 <0>        -0.1719
       2  C2          4.2340   34.6100   58.8160  C.3       1 <0>        -0.1302
       3  C3          4.2680   35.2930   57.4470  C.3       1 <0>         0.1276
       4  N1          5.4650   36.1320   57.3480  N.am      1 <0>        -0.7373
       5  C4          6.3330   35.9510   56.3340  C.2       1 <0>         0.5208
       6  O1          6.1240   35.0950   55.5020  O.2       1 <0>        -0.5140
       7  C5          7.5640   36.8150   56.2340  C.3       1 <0>        -0.0665
       8  C6          7.1590   38.2390   55.8500  C.3       1 <0>        -0.1428
       9  C7          8.2710   36.8360   57.5650  C.ar      1 <0>        -0.0838
      10  C8          8.2140   37.9830   58.3560  C.ar      1 <0>        -0.0747
      11  C9          8.8420   38.0340   59.5620  C.ar      1 <0>        -0.1136
      12  C10         9.5580   36.9150   60.0210  C.ar      1 <0>        -0.0066
      13  C11        10.2170   36.9330   61.2610  C.ar      1 <0>        -0.1572
      14  C12        10.9040   35.8280   61.6760  C.ar      1 <0>         0.1343
      15  C13        10.9600   34.6780   60.8810  C.ar      1 <0>        -0.1888
      16  C14        10.3330   34.6300   59.6760  C.ar      1 <0>        -0.0648
      17  C15         9.6160   35.7490   59.2180  C.ar      1 <0>        -0.0843
      18  C16         8.9520   35.7320   57.9800  C.ar      1 <0>        -0.0823
      19  O2         11.5410   35.8450   62.8760  O.3       1 <0>        -0.3163
      20  C17        12.4460   34.7720   63.1460  C.3       1 <0>         0.0250
      21  C18         4.5920   33.1310   58.6560  C.3       1 <0>        -0.0045
      22  N2          6.0460   32.9630   58.7770  N.4       1 <0>        -0.3825
      23  C19         6.5770   32.4050   57.5280  C.3       1 <0>        -0.0074
      24  C20         8.1020   32.3040   57.6180  C.3       1 <0>        -0.1465
      25  C21         8.4800   31.3920   58.7890  C.3       1 <0>        -0.1398
      26  C22         7.8570   31.9430   60.0740  C.3       1 <0>        -0.1456
      27  C23         6.3430   32.0570   59.8930  C.3       1 <0>        -0.0130
@<TRIPOS>BOND
     1     1     2 1
     2     2     3 1
     3     2    21 1
     4     3     4 1
     5     4     5 am
     6     5     6 2
     7     5     7 1
     8     7     8 1
     9     7     9 1
    10     9    18 ar
    11     9    10 ar
    12    10    11 ar
    13    11    12 ar
    14    12    17 ar
    15    12    13 ar
    16    13    14 ar
    17    14    15 ar
    18    14    19 1
    19    15    16 ar
    20    16    17 ar
    21    17    18 ar
    22    19    20 1
    23    21    22 1
    24    22    27 1
    25    22    23 1
    26    23    24 1
    27    24    25 1
    28    25    26 1
    29    26    27 1

@<TRIPOS>MOLECULE
ZINC36953691_replica-1.pdb
 21 23 0 0 0
SMALL
GASTEIGER

@<TRIPOS>ATOM
       1  C1          0.1950   33.1950   62.4600  C.3       1 <0>        -0.1555
       2  C2         -0.0500   34.0360   61.2060  C.3       1 <0>        -0.1157
       3  C3          1.1830   33.9770   60.3020  C.3       1 <0>        -0.0457
       4  C4          1.2580   35.2510   59.4580  C.3       1 <0>        -0.1456
       5  C5          1.0850   32.7780   59.3950  C.ar      1 <0>        -0.1331
       6  C6          1.8510   31.6550   59.6490  C.ar      1 <0>        -0.0658
       7  C7          1.7640   30.5550   58.8200  C.ar      1 <0>        -0.1932
       8  C8          0.9050   30.5770   57.7280  C.ar      1 <0>         0.2131
       9  C9          0.1360   31.7050   57.4750  C.ar      1 <0>        -0.1944
      10  C10         0.2240   32.8010   58.3130  C.ar      1 <0>        -0.0700
      11  N1          0.8150   29.4650   56.8870  N.pl3     1 <0>        -0.7302
      12  C11        -0.3710   29.2770   56.0470  C.3       1 <0>         0.1292
      13  C12        -0.0840   29.4010   54.5410  C.3       1 <0>        -0.1465
      14  C13         0.2120   27.8920   54.5540  C.3       1 <0>        -0.0718
      15  C14        -0.7090   27.8010   55.7820  C.3       1 <0>        -0.1412
      16  C15        -0.3180   27.1630   53.3460  C.ar      1 <0>        -0.0710
      17  C16        -0.0630   25.8130   53.1860  C.ar      1 <0>        -0.1180
      18  C17        -0.5510   25.1450   52.0790  C.ar      1 <0>        -0.1175
      19  C18        -1.2930   25.8240   51.1310  C.ar      1 <0>        -0.1248
      20  C19        -1.5490   27.1730   51.2920  C.ar      1 <0>        -0.1176
      21  C20        -1.0660   27.8410   52.4020  C.ar      1 <0>        -0.1175
@<TRIPOS>BOND
     1     1     2 1
     2     2     3 1
     3     3     4 1
     4     3     5 1
     5     5    10 ar
     6     5     6 ar
     7     6     7 ar
     8     7     8 ar
     9     8     9 ar
    10     8    11 1
    11     9    10 ar
    12    11    12 1
    13    12    15 1
    14    12    13 1
    15    13    14 1
    16    14    15 1
    17    14    16 1
    18    16    21 ar
    19    16    17 ar
    20    17    18 ar
    21    18    19 ar
    22    19    20 ar
    23    20    21 ar

@<TRIPOS>MOLECULE
ZINC23242289_replica-1.pdb
 28 30 0 0 0
SMALL
GASTEIGER

@<TRIPOS>ATOM
       1  C1         -1.2960   28.4850   52.5530  C.ar      1 <0>        -0.0711
       2  C2         -1.1570   27.1810   52.1170  C.ar      1 <0>        -0.1556
       3  C3         -0.3780   26.2910   52.8360  C.ar      1 <0>         0.1011
       4  C4          0.2650   26.7090   53.9880  C.ar      1 <0>        -0.1555
       5  C5          0.1290   28.0150   54.4200  C.ar      1 <0>        -0.0714
       6  C6         -0.6500   28.9030   53.7010  C.ar      1 <0>        -0.1107
       7  C7         -0.7980   30.3260   54.1730  C.3       1 <0>         0.1637
       8  N1          0.3640   30.6950   54.9870  N.am      1 <0>        -0.7468
       9  C8          0.2050   31.0050   56.2880  C.2       1 <0>         0.5227
      10  O1         -0.9000   30.9780   56.7870  O.2       1 <0>        -0.5219
      11  C9          1.4000   31.3830   57.1240  C.3       1 <0>        -0.0820
      12  C10         1.8970   32.7430   56.7050  C.ar      1 <0>         0.1948
      13  C11         1.2110   33.8630   57.0750  C.ar      1 <0>        -0.3571
      14  C12         1.6940   35.1200   56.6730  C.ar      1 <0>         0.4968
      15  O2          1.1060   36.1420   56.9850  O.3       1 <0>        -0.6223
      16  N2          2.8250   35.1750   55.9370  N.ar      1 <0>        -0.6351
      17  C13         3.4650   34.0240   55.5930  C.ar      1 <0>         0.3372
      18  N3          3.0050   32.8480   55.9750  N.ar      1 <0>        -0.6170
      19  S1          4.9330   34.1060   54.6210  S.3       1 <0>        -0.0392
      20  C14         6.1760   33.8180   55.9050  C.3       1 <0>        -0.0632
      21  C15         6.9380   35.0930   56.1610  C.ar      1 <0>        -0.0745
      22  C16         6.8240   36.1540   55.2810  C.ar      1 <0>        -0.0748
      23  C17         7.5220   37.3230   55.5150  C.ar      1 <0>        -0.1535
      24  C18         8.3350   37.4320   56.6290  C.ar      1 <0>         0.0921
      25  C19         8.4500   36.3690   57.5090  C.ar      1 <0>        -0.1531
      26  C20         7.7510   35.2000   57.2740  C.ar      1 <0>        -0.0744
      27  F1          9.0190   38.5750   56.8590  F         1 <0>        -0.1438
      28  F2         -0.2450   25.0140   52.4120  F         1 <0>        -0.1404
@<TRIPOS>BOND
     1     1     6 ar
     2     1     2 ar
     3     2     3 ar
     4     3     4 ar
     5     3    28 1
     6     4     5 ar
     7     5     6 ar
     8     6     7 1
     9     7     8 1
    10     8     9 am
    11     9    10 2
    12     9    11 1
    13    11    12 1
    14    12    13 ar
    15    12    18 ar
    16    13    14 ar
    17    14    16 ar
    18    14    15 1
    19    16    17 ar
    20    17    18 ar
    21    17    19 1
    22    19    20 1
    23    20    21 1
    24    21    26 ar
    25    21    22 ar
    26    22    23 ar
    27    23    24 ar
    28    24    25 ar
    29    24    27 1
    30    25    26 ar

@<TRIPOS>MOLECULE
ZINC13739084_replica-1.pdb
 29 32 0 0 0
SMALL
GASTEIGER

@<TRIPOS>ATOM
       1  C1          7.5600   36.0510   56.1230  C.3       1 <0>        -0.0824
       2  C2          7.2900   35.2980   57.4000  C.2       1 <0>         0.1358
       3  N1          6.2410   34.5750   57.6570  N.2       1 <0>        -0.2385
       4  N2          6.3110   34.0180   58.9340  N.am      1 <0>        -0.4100
       5  C3          7.4560   34.3930   59.5390  C.2       1 <0>         0.5212
       6  O1          7.8290   34.0830   60.6590  O.2       1 <0>        -0.4675
       7  C4          8.1670   35.2440   58.5760  C.2       1 <0>        -0.2519
       8  C5          9.4030   35.8660   58.7430  C.2       1 <0>         0.1110
       9  C6         10.1110   35.7060   59.9410  C.2       1 <0>        -0.0538
      10  C7         10.0750   36.5670   61.0320  C.2       1 <0>        -0.1179
      11  C8         10.9220   36.0300   61.9970  C.2       1 <0>        -0.2060
      12  C9         11.4480   34.8670   61.4730  C.2       1 <0>         0.0737
      13  O2         10.9450   34.6850   60.2390  O.3       1 <0>        -0.0967
      14  C10        12.4000   33.9690   62.1530  C.ar      1 <0>        -0.0330
      15  C11        13.7350   34.3510   62.3100  C.ar      1 <0>        -0.0589
      16  C12        14.6200   33.5060   62.9480  C.ar      1 <0>        -0.1181
      17  C13        14.1880   32.2830   63.4320  C.ar      1 <0>        -0.0586
      18  C14        12.8670   31.8990   63.2800  C.ar      1 <0>        -0.1829
      19  C15        11.9700   32.7360   62.6500  C.ar      1 <0>        -0.0389
      20  C16        12.4070   30.5660   63.8100  C.3       1 <0>         0.5089
      21  F1         11.0100   30.4990   63.7550  F         1 <0>        -0.1755
      22  F2         12.9540   29.5400   63.0310  F         1 <0>        -0.1730
      23  F3         12.8290   30.4190   65.1360  F         1 <0>        -0.1730
      24  C17         5.3350   33.1920   59.5030  C.ar      1 <0>         0.1732
      25  C18         4.2690   33.7490   60.1970  C.ar      1 <0>        -0.1501
      26  C19         3.3070   32.9310   60.7560  C.ar      1 <0>        -0.0924
      27  C20         3.4060   31.5580   60.6290  C.ar      1 <0>        -0.1377
      28  C21         4.4670   31.0000   59.9400  C.ar      1 <0>        -0.0971
      29  C22         5.4280   31.8120   59.3720  C.ar      1 <0>        -0.1337
@<TRIPOS>BOND
     1     1     2 1
     2     2     7 1
     3     2     3 2
     4     3     4 1
     5     4     5 am
     6     4    24 1
     7     5     6 2
     8     5     7 1
     9     7     8 2
    10     8     9 1
    11     9    13 1
    12     9    10 2
    13    10    11 1
    14    11    12 2
    15    12    13 1
    16    12    14 1
    17    14    19 ar
    18    14    15 ar
    19    15    16 ar
    20    16    17 ar
    21    17    18 ar
    22    18    19 ar
    23    18    20 1
    24    20    21 1
    25    20    22 1
    26    20    23 1
    27    24    29 ar
    28    24    25 ar
    29    25    26 ar
    30    26    27 ar
    31    27    28 ar
    32    28    29 ar

@<TRIPOS>MOLECULE
ZINC02196307_replica-1.pdb
 30 33 0 0 0
SMALL
GASTEIGER

@<TRIPOS>ATOM
       1  C1         -1.5480   23.4320   58.8880  C.3       1 <0>        -0.1524
       2  C2         -2.5350   24.3820   59.5680  C.3       1 <0>        -0.1539
       3  C3         -1.7810   25.2950   60.5370  C.3       1 <0>         0.1141
       4  C4         -2.7620   25.8850   61.5510  C.3       1 <0>        -0.1826
       5  N1         -1.1410   26.3790   59.7880  N.am      1 <0>        -0.5115
       6  C5         -1.8870   27.1800   59.0470  C.2       1 <0>         0.5488
       7  O1         -3.0940   27.0410   58.9710  O.2       1 <0>        -0.4599
       8  C6         -1.1850   28.2520   58.3170  C.2       1 <0>        -0.2680
       9  C7         -1.6840   29.2100   57.4930  C.2       1 <0>         0.1465
      10  C8         -0.7830   30.1850   56.8700  C.2       1 <0>        -0.2382
      11  C9         -0.3570   31.3830   57.4120  C.2       1 <0>         0.1164
      12  N2          0.4620   31.9700   56.5190  N.pl3     1 <0>        -0.2976
      13  N3          0.5720   31.1650   55.3820  N.2       1 <0>        -0.2658
      14  C10        -0.1570   30.0840   55.5460  C.2       1 <0>         0.1740
      15  C11        -0.3180   28.9740   54.5780  C.ar      1 <0>        -0.0375
      16  C12         0.3700   27.7750   54.7660  C.ar      1 <0>        -0.0894
      17  C13         0.2130   26.7440   53.8640  C.ar      1 <0>        -0.1183
      18  C14        -0.6160   26.9000   52.7680  C.ar      1 <0>        -0.0658
      19  C15        -1.2960   28.0890   52.5720  C.ar      1 <0>        -0.1201
      20  C16        -1.1510   29.1260   53.4710  C.ar      1 <0>        -0.0766
      21  C17        -0.7800   25.7720   51.7820  C.3       1 <0>        -0.1210
      22  C18         1.1020   33.2040   56.6990  C.ar      1 <0>         0.1384
      23  C19         0.4380   34.2450   57.3350  C.ar      1 <0>        -0.1345
      24  C20         1.0740   35.4580   57.5150  C.ar      1 <0>        -0.0902
      25  C21         2.3650   35.6390   57.0560  C.ar      1 <0>        -0.1178
      26  C22         3.0270   34.6060   56.4180  C.ar      1 <0>        -0.0956
      27  C23         2.3990   33.3880   56.2390  C.ar      1 <0>        -0.1093
      28  S1          0.5030   27.9510   58.8220  S.3       1 <0>         0.0345
      29  C24         0.1960   26.5380   59.8700  C.2       1 <0>         0.2847
      30  S2          1.3240   25.6140   60.7670  S.2       1 <0>        -0.3293
@<TRIPOS>BOND
     1     1     2 1
     2     2     3 1
     3     3     4 1
     4     3     5 1
     5     5    29 1
     6     5     6 am
     7     6     7 2
     8     6     8 1
     9     8     9 2
    10     8    28 1
    11     9    10 1
    12    10    14 1
    13    10    11 2
    14    11    12 1
    15    12    13 1
    16    12    22 1
    17    13    14 2
    18    14    15 1
    19    15    20 ar
    20    15    16 ar
    21    16    17 ar
    22    17    18 ar
    23    18    19 ar
    24    18    21 1
    25    19    20 ar
    26    22    27 ar
    27    22    23 ar
    28    23    24 ar
    29    24    25 ar
    30    25    26 ar
    31    26    27 ar
    32    28    29 1
    33    29    30 2

@<TRIPOS>MOLECULE
ZINC05978806_replica-1.pdb
 25 26 0 0 0
SMALL
GASTEIGER

@<TRIPOS>ATOM
       1  C1         17.8780   35.1180   63.9950  C.3       1 <0>        -0.1513
       2  C2         17.2070   34.1670   64.9890  C.3       1 <0>        -0.1238
       3  C3         15.7000   34.1380   64.7290  C.3       1 <0>         0.0559
       4  O1         15.3940   33.0820   63.8160  O.3       1 <0>        -0.3135
       5  C4         14.1450   33.0700   63.2830  C.ar      1 <0>         0.1501
       6  C5         13.6890   34.1690   62.5640  C.ar      1 <0>        -0.1576
       7  C6         12.4230   34.1620   62.0210  C.ar      1 <0>        -0.0471
       8  C7         11.5960   33.0490   62.1960  C.ar      1 <0>        -0.0996
       9  C8         12.0570   31.9490   62.9240  C.ar      1 <0>        -0.0344
      10  C9         13.3260   31.9630   63.4580  C.ar      1 <0>        -0.2152
      11  C10        10.2400   33.0380   61.6180  C.2       1 <0>         0.1190
      12  N1          9.8270   34.0470   60.9140  N.2       1 <0>        -0.2338
      13  N2          8.5380   34.0390   60.3640  N.am      1 <0>        -0.5813
      14  C11         7.7940   35.1620   60.3720  C.2       1 <0>         0.5785
      15  O2          8.2420   36.1840   60.8560  O.2       1 <0>        -0.4995
      16  C12         6.4350   35.1520   59.7910  C.ar      1 <0>        -0.1397
      17  C13         5.4400   34.3470   60.3490  C.ar      1 <0>        -0.0507
      18  C14         4.1740   34.3430   59.8030  C.ar      1 <0>        -0.1217
      19  C15         3.8890   35.1350   58.7040  C.ar      1 <0>        -0.0384
      20  C16         4.8700   35.9360   58.1470  C.ar      1 <0>        -0.1279
      21  C17         6.1410   35.9490   58.6830  C.ar      1 <0>        -0.0834
      22  C18         2.5020   35.1260   58.1120  C.3       1 <0>        -0.0351
      23  C19         1.4850   35.5080   59.1890  C.3       1 <0>        -0.1407
      24  C20         2.4320   36.1330   56.9630  C.3       1 <0>        -0.1469
      25  C21         2.1830   33.7260   57.5830  C.3       1 <0>        -0.1407
@<TRIPOS>BOND
     1     1     2 1
     2     2     3 1
     3     3     4 1
     4     4     5 1
     5     5    10 ar
     6     5     6 ar
     7     6     7 ar
     8     7     8 ar
     9     8     9 ar
    10     8    11 1
    11     9    10 ar
    12    11    12 2
    13    12    13 1
    14    13    14 am
    15    14    15 2
    16    14    16 1
    17    16    21 ar
    18    16    17 ar
    19    17    18 ar
    20    18    19 ar
    21    19    20 ar
    22    19    22 1
    23    20    21 ar
    24    22    23 1
    25    22    24 1
    26    22    25 1

@<TRIPOS>MOLECULE
ZINC57831881_replica-1.pdb
 25 26 0 0 0
SMALL
GASTEIGER

@<TRIPOS>ATOM
       1  C1         -0.8730   26.6460   51.6590  C.2       1 <0>        -0.0168
       2  C2         -0.2340   26.6700   52.9070  C.2       1 <0>        -0.2303
       3  C3         -0.4630   27.6930   53.7630  C.2       1 <0>         0.1300
       4  N1         -1.3070   28.7030   53.4280  N.am      1 <0>        -0.4967
       5  C4         -1.9360   28.7070   52.2370  C.2       1 <0>         0.5111
       6  O1         -2.6920   29.6210   51.9500  O.2       1 <0>        -0.5492
       7  C5         -1.7210   27.6600   51.3240  C.2       1 <0>        -0.2433
       8  C6         -1.5370   29.7980   54.3720  C.3       1 <0>         0.0935
       9  C7         -0.2050   30.4740   54.7040  C.3       1 <0>        -0.1467
      10  C8         -0.3090   31.1640   56.0650  C.3       1 <0>         0.1411
      11  N2          0.0630   32.5740   55.9280  N.am      1 <0>        -0.7393
      12  C9          1.3390   32.9580   56.1280  C.2       1 <0>         0.7050
      13  O2          2.1830   32.1330   56.4230  O.2       1 <0>        -0.5676
      14  N3          1.6810   34.2560   56.0010  N.am      1 <0>        -0.6862
      15  C10         2.9850   34.6690   56.3040  C.ar      1 <0>         0.1758
      16  C11         3.2680   35.2240   57.5450  C.ar      1 <0>        -0.1270
      17  C12         4.5520   35.6320   57.8440  C.ar      1 <0>        -0.0610
      18  C13         5.5630   35.4880   56.9020  C.ar      1 <0>        -0.1232
      19  C14         5.2800   34.9330   55.6600  C.ar      1 <0>        -0.1002
      20  C15         3.9970   34.5210   55.3640  C.ar      1 <0>        -0.0964
      21  S1          7.2020   36.0090   57.2820  S.3       1 <0>        -0.0249
      22  C16         7.5850   37.2260   55.9940  C.3       1 <0>         0.4520
      23  F1          6.4450   37.9900   55.7190  F         1 <0>        -0.1632
      24  F2          8.6140   38.0660   56.4360  F         1 <0>        -0.1448
      25  F3          7.9940   36.5630   54.8320  F         1 <0>        -0.1621
@<TRIPOS>BOND
     1     1     7 2
     2     1     2 1
     3     2     3 2
     4     3     4 1
     5     4     5 am
     6     4     8 1
     7     5     6 2
     8     5     7 1
     9     8     9 1
    10     9    10 1
    11    10    11 1
    12    11    12 am
    13    12    13 2
    14    12    14 am
    15    14    15 1
    16    15    20 ar
    17    15    16 ar
    18    16    17 ar
    19    17    18 ar
    20    18    19 ar
    21    18    21 1
    22    19    20 ar
    23    21    22 1
    24    22    23 1
    25    22    24 1
    26    22    25 1

@<TRIPOS>MOLECULE
ZINC60451652_replica-1.pdb
 26 27 0 0 0
SMALL
GASTEIGER

@<TRIPOS>ATOM
       1  C1          0.1880   25.7480   53.6010  C.ar      1 <0>        -0.1386
       2  C2         -0.3420   25.6080   52.3300  C.ar      1 <0>        -0.0600
       3  C3         -1.0280   26.6530   51.7390  C.ar      1 <0>        -0.1634
       4  C4         -1.1880   27.8480   52.4170  C.ar      1 <0>         0.1620
       5  C5         -0.6550   27.9950   53.7020  C.ar      1 <0>        -0.1776
       6  C6          0.0370   26.9330   54.2890  C.ar      1 <0>        -0.0582
       7  C7         -0.8210   29.2680   54.4330  C.2       1 <0>         0.5609
       8  O1         -1.8580   29.4990   55.0240  O.2       1 <0>        -0.5150
       9  N1          0.1780   30.1730   54.4440  N.am      1 <0>        -0.7237
      10  C8          0.0130   31.4350   55.1690  C.3       1 <0>         0.1041
      11  C9          1.0930   31.5480   56.2480  C.3       1 <0>         0.1080
      12  N2          2.0070   32.6430   55.9120  N.pl3     1 <0>        -0.7379
      13  C10         2.0520   33.7850   56.7130  C.ar      1 <0>         0.3150
      14  C11         0.9860   34.0930   57.5490  C.ar      1 <0>        -0.2085
      15  C12         1.0340   35.2240   58.3400  C.ar      1 <0>        -0.0031
      16  C13         2.1420   36.0490   58.3010  C.ar      1 <0>        -0.1871
      17  C14         3.2050   35.7480   57.4690  C.ar      1 <0>         0.0319
      18  C15         3.1660   34.6150   56.6800  C.ar      1 <0>        -0.7232
      19  S1          4.5250   34.2260   55.6280  S.o2      1 <0>         2.4817
      20  O2          4.9950   32.9690   56.0940  O.2       1 <0>        -0.8603
      21  O3          4.0140   34.3640   54.3090  O.2       1 <0>        -0.8588
      22  C16         5.7560   35.5160   55.9610  C.3       1 <0>        -0.0271
      23  F1          6.2020   35.4060   57.2820  F         1 <0>        -0.1573
      24  F2          6.8390   35.3630   55.0890  F         1 <0>        -0.1553
      25  F3          5.1770   36.7750   55.7670  F         1 <0>        -0.1509
      26  F4         -1.8570   28.8700   51.8410  F         1 <0>        -0.1130
@<TRIPOS>BOND
     1     1     6 ar
     2     1     2 ar
     3     2     3 ar
     4     3     4 ar
     5     4     5 ar
     6     4    26 1
     7     5     6 ar
     8     5     7 1
     9     7     8 2
    10     7     9 am
    11     9    10 1
    12    10    11 1
    13    11    12 1
    14    12    13 1
    15    13    18 ar
    16    13    14 ar
    17    14    15 ar
    18    15    16 ar
    19    16    17 ar
    20    17    18 ar
    21    18    19 1
    22    19    20 2
    23    19    21 2
    24    19    22 1
    25    22    23 1
    26    22    24 1
    27    22    25 1

@<TRIPOS>MOLECULE
ZINC06834281_replica-1.pdb
 30 33 0 0 0
SMALL
GASTEIGER

@<TRIPOS>ATOM
       1  C1         -2.7650   27.3010   61.0970  C.3       1 <0>        -0.1477
       2  C2         -3.0940   26.7500   59.7080  C.3       1 <0>        -0.0825
       3  C3         -1.8980   26.9130   58.8050  C.ar      1 <0>        -0.0927
       4  C4         -0.6910   26.3460   59.1500  C.ar      1 <0>        -0.0988
       5  C5          0.4170   26.4840   58.3240  C.ar      1 <0>        -0.1414
       6  C6          0.3310   27.1930   57.1610  C.ar      1 <0>        -0.0742
       7  C7         -0.8820   27.7810   56.7950  C.ar      1 <0>        -0.0944
       8  C8         -2.0090   27.6400   57.6250  C.ar      1 <0>         0.1032
       9  N1         -3.0460   28.3140   57.0200  N.pl3     1 <0>        -0.5912
      10  C9         -2.6170   28.8700   55.8460  C.2       1 <0>         0.0568
      11  C10        -1.3190   28.5870   55.6520  C.2       1 <0>        -0.1608
      12  C11        -0.4730   29.0150   54.4800  C.3       1 <0>         0.0480
      13  C12        -0.6020   30.5260   54.2830  C.3       1 <0>        -0.1305
      14  C13        -0.0460   31.2390   55.4890  C.2       1 <0>         0.5067
      15  O1         -0.7570   31.9750   56.1390  O.2       1 <0>        -0.5197
      16  N2          1.2420   31.0580   55.8460  N.am      1 <0>        -0.7359
      17  C14         1.7810   31.7510   57.0190  C.3       1 <0>         0.1180
      18  C15         1.7950   30.7940   58.2130  C.3       1 <0>        -0.1269
      19  C16         0.7350   31.2300   59.2280  C.3       1 <0>        -0.0936
      20  C17        -0.0230   30.0010   59.7330  C.3       1 <0>        -0.1529
      21  C18         1.4150   31.9300   60.4050  C.3       1 <0>        -0.1480
      22  C19        -0.9430   28.3040   53.2360  C.ar      1 <0>        -0.0444
      23  C20        -1.7900   28.9460   52.3520  C.ar      1 <0>        -0.1166
      24  C21        -2.2210   28.2970   51.2100  C.ar      1 <0>        -0.1132
      25  C22        -1.8080   27.0040   50.9480  C.ar      1 <0>        -0.1063
      26  C23        -0.9600   26.3550   51.8290  C.ar      1 <0>         0.0274
      27  C24        -0.5210   27.0110   52.9770  C.ar      1 <0>         0.0723
      28  O2          0.2930   26.1670   53.6770  O.3       1 <0>        -0.2933
      29  C25         0.0280   24.8520   53.1530  C.3       1 <0>         0.2113
      30  O3         -0.4150   25.1040   51.8060  O.3       1 <0>        -0.3107
@<TRIPOS>BOND
     1     1     2 1
     2     2     3 1
     3     3     8 ar
     4     3     4 ar
     5     4     5 ar
     6     5     6 ar
     7     6     7 ar
     8     7    11 1
     9     7     8 ar
    10     8     9 1
    11     9    10 1
    12    10    11 2
    13    11    12 1
    14    12    13 1
    15    12    22 1
    16    13    14 1
    17    14    15 2
    18    14    16 am
    19    16    17 1
    20    17    18 1
    21    18    19 1
    22    19    20 1
    23    19    21 1
    24    22    27 ar
    25    22    23 ar
    26    23    24 ar
    27    24    25 ar
    28    25    26 ar
    29    26    30 1
    30    26    27 ar
    31    27    28 1
    32    28    29 1
    33    29    30 1

@<TRIPOS>MOLECULE
ZINC11965781_replica-1.pdb
 29 32 0 0 0
SMALL
GASTEIGER

@<TRIPOS>ATOM
       1  C1         13.0790   31.8070   63.7820  C.3       1 <0>        -0.1182
       2  C2         12.3130   32.6800   62.8230  C.ar      1 <0>        -0.1145
       3  C3         11.0420   32.3130   62.4210  C.ar      1 <0>        -0.0879
       4  C4         10.3330   33.1120   61.5460  C.ar      1 <0>        -0.1147
       5  C5         10.9050   34.2850   61.0580  C.ar      1 <0>        -0.0190
       6  C6         12.1860   34.6530   61.4650  C.ar      1 <0>        -0.1418
       7  C7         12.8850   33.8480   62.3460  C.ar      1 <0>         0.1022
       8  F1         14.1270   34.2020   62.7420  F         1 <0>        -0.1347
       9  C8         10.1490   35.1440   60.1140  C.ar      1 <0>        -0.0432
      10  C9          9.7840   34.6560   58.8590  C.ar      1 <0>        -0.0651
      11  C10         9.0850   35.4580   57.9880  C.ar      1 <0>        -0.1404
      12  C11         8.7240   36.7530   58.3420  C.ar      1 <0>         0.0779
      13  C12         9.0930   37.2410   59.5980  C.ar      1 <0>         0.0911
      14  C13         9.7990   36.4440   60.4730  C.ar      1 <0>        -0.1100
      15  F2          8.7570   38.4990   59.9540  F         1 <0>        -0.1308
      16  O1          8.0180   37.3570   57.3460  O.3       1 <0>        -0.2871
      17  C14         8.2500   36.6600   56.1110  C.3       1 <0>         0.0678
      18  C15         8.5630   35.2200   56.5830  C.3       1 <0>        -0.1011
      19  C16         6.9970   36.6820   55.2330  C.3       1 <0>         0.1271
      20  N1          5.8070   36.7590   56.0830  N.am      1 <0>        -0.7344
      21  C17         4.7370   35.9840   55.8170  C.2       1 <0>         0.5200
      22  O2          4.7600   35.2220   54.8750  O.2       1 <0>        -0.5170
      23  C18         3.5120   36.0630   56.6910  C.3       1 <0>        -0.0686
      24  C19         3.7660   35.3250   57.9800  C.2       1 <0>         0.0759
      25  C20         2.7910   34.5750   58.5550  C.2       1 <0>        -0.2132
      26  S1          3.6530   33.9680   59.9980  S.3       1 <0>         0.0338
      27  C21         5.1710   34.7580   59.7010  C.2       1 <0>         0.0992
      28  N2          4.9370   35.3960   58.5790  N.2       1 <0>        -0.4881
      29  C22         6.4340   34.7200   60.5230  C.3       1 <0>        -0.0648
@<TRIPOS>BOND
     1     1     2 1
     2     2     7 ar
     3     2     3 ar
     4     3     4 ar
     5     4     5 ar
     6     5     6 ar
     7     5     9 1
     8     6     7 ar
     9     7     8 1
    10     9    14 ar
    11     9    10 ar
    12    10    11 ar
    13    11    18 1
    14    11    12 ar
    15    12    13 ar
    16    12    16 1
    17    13    14 ar
    18    13    15 1
    19    16    17 1
    20    17    18 1
    21    17    19 1
    22    19    20 1
    23    20    21 am
    24    21    22 2
    25    21    23 1
    26    23    24 1
    27    24    28 1
    28    24    25 2
    29    25    26 1
    30    26    27 1
    31    27    28 2
    32    27    29 1

@<TRIPOS>MOLECULE
ZINC00431821_replica-1.pdb
 24 25 0 0 0
SMALL
GASTEIGER

@<TRIPOS>ATOM
       1  C1         -0.2230   25.9710   52.7070  C.3       1 <0>        -0.1179
       2  C2         -0.5420   27.3880   53.1110  C.ar      1 <0>        -0.0445
       3  C3         -1.5100   28.0990   52.4240  C.ar      1 <0>        -0.1563
       4  C4         -1.8050   29.3990   52.7930  C.ar      1 <0>        -0.0753
       5  C5         -1.1390   29.9870   53.8500  C.ar      1 <0>        -0.2175
       6  C6         -0.1660   29.2770   54.5370  C.ar      1 <0>         0.1307
       7  C7          0.1290   27.9720   54.1660  C.ar      1 <0>        -0.1477
       8  O1          0.4940   29.8550   55.5740  O.3       1 <0>        -0.2891
       9  C8          0.1780   31.2170   55.8670  C.3       1 <0>         0.0501
      10  C9          1.4110   31.9240   56.3670  C.2       1 <0>         0.5322
      11  O2          1.8510   31.6700   57.4680  O.2       1 <0>        -0.4745
      12  N1          2.0260   32.8380   55.5900  N.am      1 <0>        -0.5832
      13  N2          3.1720   33.4950   56.0550  N.2       1 <0>        -0.2282
      14  C10         3.1590   34.7820   56.2250  C.2       1 <0>         0.1177
      15  C11         4.3670   35.4730   56.7140  C.ar      1 <0>        -0.0668
      16  C12         4.5300   35.7220   58.0780  C.ar      1 <0>        -0.0731
      17  C13         5.6650   36.3650   58.5280  C.ar      1 <0>        -0.1268
      18  C14         6.6350   36.7720   57.6300  C.ar      1 <0>        -0.0496
      19  C15         6.4780   36.5330   56.2770  C.ar      1 <0>        -0.1215
      20  C16         5.3510   35.8870   55.8130  C.ar      1 <0>        -0.0848
      21  C17         7.8690   37.4780   58.1290  C.3       1 <0>        -0.0338
      22  C18         8.4340   38.3650   57.0170  C.3       1 <0>        -0.1395
      23  C19         7.5080   38.3450   59.3370  C.3       1 <0>        -0.1471
      24  C20         8.9190   36.4430   58.5390  C.3       1 <0>        -0.1396
@<TRIPOS>BOND
     1     1     2 1
     2     2     7 ar
     3     2     3 ar
     4     3     4 ar
     5     4     5 ar
     6     5     6 ar
     7     6     7 ar
     8     6     8 1
     9     8     9 1
    10     9    10 1
    11    10    11 2
    12    10    12 am
    13    12    13 1
    14    13    14 2
    15    14    15 1
    16    15    20 ar
    17    15    16 ar
    18    16    17 ar
    19    17    18 ar
    20    18    19 ar
    21    18    21 1
    22    19    20 ar
    23    21    22 1
    24    21    23 1
    25    21    24 1

@<TRIPOS>MOLECULE
ZINC27663579_replica-1.pdb
 30 32 0 0 0
SMALL
GASTEIGER

@<TRIPOS>ATOM
       1  C1         15.8420   33.9900   64.9150  C.3       1 <0>        -0.1530
       2  C2         15.5500   33.7020   63.4420  C.3       1 <0>        -0.1268
       3  C3         14.3250   32.7910   63.3320  C.3       1 <0>         0.0538
       4  O1         13.1590   33.5100   63.7380  O.3       1 <0>        -0.3067
       5  C4         12.2090   33.7270   62.7930  C.ar      1 <0>         0.1707
       6  C5         11.3230   32.7120   62.4540  C.ar      1 <0>        -0.1589
       7  C6         10.3590   32.9280   61.4950  C.ar      1 <0>        -0.0131
       8  C7         10.2710   34.1720   60.8630  C.ar      1 <0>        -0.1880
       9  C8         11.1670   35.1890   61.2030  C.ar      1 <0>        -0.0410
      10  C9         12.1260   34.9660   62.1660  C.ar      1 <0>        -0.2189
      11  C10         9.2390   34.4090   59.8340  C.2       1 <0>         0.5762
      12  O2          9.5550   34.8500   58.7460  O.2       1 <0>        -0.5310
      13  N1          7.9460   34.1360   60.1010  N.am      1 <0>        -0.7391
      14  C11         6.9230   34.3720   59.0810  C.3       1 <0>         0.1098
      15  C12         5.9980   35.5020   59.5380  C.3       1 <0>         0.0820
      16  C13         4.5870   34.9830   59.6500  C.ar      1 <0>        -0.1820
      17  C14         4.3330   33.8300   60.3700  C.ar      1 <0>        -0.0560
      18  C15         3.0400   33.3550   60.4810  C.ar      1 <0>        -0.1374
      19  C16         1.9980   34.0330   59.8640  C.ar      1 <0>         0.1617
      20  C17         2.2580   35.1850   59.1380  C.ar      1 <0>        -0.1938
      21  C18         3.5520   35.6570   59.0300  C.ar      1 <0>        -0.0721
      22  O3          0.7250   33.5680   59.9720  O.3       1 <0>        -0.3061
      23  C19        -0.0690   34.0950   61.0360  C.3       1 <0>         0.0174
      24  N2          6.0400   36.5950   58.5570  N.4       1 <0>        -0.3978
      25  C20         6.7540   36.1790   57.3300  C.3       1 <0>        -0.0129
      26  C21         7.0610   37.3330   56.4130  C.3       1 <0>        -0.1416
      27  C22         8.4810   37.8450   56.7310  C.3       1 <0>        -0.1324
      28  C23         8.5120   38.6810   57.9260  C.3       1 <0>        -0.1337
      29  C24         8.0510   37.9160   59.1850  C.3       1 <0>        -0.1460
      30  C25         6.5480   37.8410   59.1730  C.3       1 <0>        -0.0059
@<TRIPOS>BOND
     1     1     2 1
     2     2     3 1
     3     3     4 1
     4     4     5 1
     5     5    10 ar
     6     5     6 ar
     7     6     7 ar
     8     7     8 ar
     9     8     9 ar
    10     8    11 1
    11     9    10 ar
    12    11    12 2
    13    11    13 am
    14    13    14 1
    15    14    15 1
    16    15    16 1
    17    15    24 1
    18    16    21 ar
    19    16    17 ar
    20    17    18 ar
    21    18    19 ar
    22    19    20 ar
    23    19    22 1
    24    20    21 ar
    25    22    23 1
    26    24    30 1
    27    24    25 1
    28    25    26 1
    29    26    27 1
    30    27    28 1
    31    28    29 1
    32    29    30 1

@<TRIPOS>MOLECULE
ZINC37177098_replica-1.pdb
 21 22 0 0 0
SMALL
GASTEIGER

@<TRIPOS>ATOM
       1  C1          0.3860   26.2460   55.5460  C.3       1 <0>        -0.1475
       2  C2          0.4890   27.3920   54.5380  C.3       1 <0>        -0.0506
       3  C3         -0.1180   28.6600   55.1430  C.3       1 <0>         0.0680
       4  N1          0.8010   29.7870   54.9400  N.3       1 <0>        -0.6832
       5  C4          0.0760   31.0640   54.9320  C.3       1 <0>         0.1156
       6  C5         -1.4280   30.7970   55.0260  C.3       1 <0>        -0.1812
       7  C6          0.5130   31.8980   56.1090  C.ar      1 <0>        -0.0156
       8  C7          1.8020   32.3910   56.1660  C.ar      1 <0>        -0.0990
       9  C8          2.2050   33.1550   57.2450  C.ar      1 <0>        -0.0535
      10  C9          1.3150   33.4260   58.2690  C.ar      1 <0>        -0.0534
      11  C10         0.0250   32.9330   58.2130  C.ar      1 <0>        -0.0521
      12  C11        -0.3770   32.1720   57.1300  C.ar      1 <0>        -0.1149
      13  N2          1.7450   34.2430   59.4250  N.pl3     1 <0>         0.0332
      14  O1          2.8430   34.0800   59.9060  O.2       1 <0>        -0.1588
      15  O2          1.0000   35.0740   59.8890  O.3       1 <0>        -0.1597
      16  C12        -0.2610   27.0260   53.2830  C.ar      1 <0>        -0.0782
      17  C13        -0.2090   25.7310   52.8000  C.ar      1 <0>        -0.1158
      18  C14        -0.8960   25.3950   51.6480  C.ar      1 <0>        -0.1186
      19  C15        -1.6370   26.3520   50.9810  C.ar      1 <0>        -0.1228
      20  C16        -1.6900   27.6460   51.4650  C.ar      1 <0>        -0.1175
      21  C17        -1.0060   27.9820   52.6180  C.ar      1 <0>        -0.1144
@<TRIPOS>BOND
     1     1     2 1
     2     2     3 1
     3     2    16 1
     4     3     4 1
     5     4     5 1
     6     5     6 1
     7     5     7 1
     8     7    12 ar
     9     7     8 ar
    10     8     9 ar
    11     9    10 ar
    12    10    11 ar
    13    10    13 1
    14    11    12 ar
    15    13    14 2
    16    13    15 1
    17    16    21 ar
    18    16    17 ar
    19    17    18 ar
    20    18    19 ar
    21    19    20 ar
    22    20    21 ar

@<TRIPOS>MOLECULE
ZINC64675594_replica-1.pdb
 31 35 0 0 0
SMALL
GASTEIGER

@<TRIPOS>ATOM
       1  C1          2.5140   35.9940   58.2330  C.ar      1 <0>        -0.1141
       2  C2          3.1700   35.0750   59.0310  C.ar      1 <0>        -0.1284
       3  C3          4.1200   34.2430   58.4770  C.ar      1 <0>        -0.1064
       4  C4          4.4240   34.3190   57.1240  C.ar      1 <0>        -0.0963
       5  C5          3.7740   35.2370   56.3300  C.ar      1 <0>        -0.0683
       6  C6          2.8150   36.0730   56.8890  C.ar      1 <0>        -0.1260
       7  C7          4.0640   35.3880   54.8600  C.3       1 <0>        -0.0840
       8  C8          4.7890   34.1530   54.3260  C.3       1 <0>        -0.1166
       9  C9          5.9900   33.8670   55.2360  C.3       1 <0>        -0.1261
      10  C10         5.4660   33.3750   56.5850  C.3       1 <0>         0.1869
      11  N1          6.5790   33.2890   57.5330  N.am      1 <0>        -0.7237
      12  C11         7.2670   32.1380   57.6630  C.2       1 <0>         0.5156
      13  O1          6.9660   31.1720   56.9930  O.2       1 <0>        -0.5314
      14  C12         8.4120   32.0510   58.6390  C.3       1 <0>        -0.1390
      15  C13         8.0610   32.8320   59.9080  C.3       1 <0>        -0.0286
      16  C14         9.2050   33.7450   60.2670  C.2       1 <0>        -0.0491
      17  C15         9.4400   34.9860   59.7560  C.2       1 <0>         0.1048
      18  N2         10.5530   35.4720   60.3290  N.2       1 <0>        -0.4768
      19  C16        11.0270   34.5790   61.1850  C.2       1 <0>         0.2286
      20  N3         10.1980   33.4860   61.1700  N.pl3     1 <0>        -0.3549
      21  C17        10.4580   32.4100   61.9690  C.2       1 <0>         0.0526
      22  C18        11.5300   32.4050   62.7890  C.2       1 <0>        -0.1368
      23  C19        12.3950   33.5100   62.8300  C.2       1 <0>        -0.1000
      24  C20        12.1540   34.5850   62.0330  C.2       1 <0>        -0.0779
      25  C21         8.6100   35.6810   58.7430  C.ar      1 <0>        -0.0208
      26  C22         7.4340   36.3240   59.1240  C.ar      1 <0>        -0.0597
      27  C23         6.6640   36.9700   58.1790  C.ar      1 <0>        -0.1530
      28  C24         7.0600   36.9800   56.8510  C.ar      1 <0>         0.1043
      29  C25         8.2280   36.3420   56.4670  C.ar      1 <0>        -0.1505
      30  C26         9.0060   35.6980   57.4070  C.ar      1 <0>        -0.0751
      31  F1          6.3040   37.6130   55.9280  F         1 <0>        -0.1377
@<TRIPOS>BOND
     1     1     6 ar
     2     1     2 ar
     3     2     3 ar
     4     3     4 ar
     5     4    10 1
     6     4     5 ar
     7     5     6 ar
     8     5     7 1
     9     7     8 1
    10     8     9 1
    11     9    10 1
    12    10    11 1
    13    11    12 am
    14    12    13 2
    15    12    14 1
    16    14    15 1
    17    15    16 1
    18    16    20 1
    19    16    17 2
    20    17    18 1
    21    17    25 1
    22    18    19 2
    23    19    24 1
    24    19    20 1
    25    20    21 1
    26    21    22 2
    27    22    23 1
    28    23    24 2
    29    25    30 ar
    30    25    26 ar
    31    26    27 ar
    32    27    28 ar
    33    28    29 ar
    34    28    31 1
    35    29    30 ar

@<TRIPOS>MOLECULE
ZINC36778555_replica-1.pdb
 21 22 0 0 0
SMALL
GASTEIGER

@<TRIPOS>ATOM
       1  C1         -2.8250   30.3540   55.5600  C.3       1 <0>        -0.1269
       2  C2         -1.5170   31.0390   55.9610  C.3       1 <0>         0.1074
       3  C3         -1.0140   30.4450   57.2510  C.ar      1 <0>        -0.0218
       4  C4         -1.4880   29.2170   57.6770  C.ar      1 <0>        -0.1148
       5  C5         -1.0250   28.6720   58.8610  C.ar      1 <0>        -0.0633
       6  C6         -0.0910   29.3540   59.6170  C.ar      1 <0>        -0.1208
       7  C7          0.3830   30.5800   59.1910  C.ar      1 <0>        -0.0531
       8  C8         -0.0760   31.1230   58.0050  C.ar      1 <0>        -0.0483
       9  N1          0.4350   32.4350   57.5460  N.pl3     1 <0>         0.0351
      10  O1         -0.0720   33.4550   57.9490  O.2       1 <0>        -0.1608
      11  O2          1.3600   32.4840   56.7690  O.3       1 <0>        -0.1556
      12  N2         -0.5150   30.8380   54.9060  N.3       1 <0>        -0.6863
      13  C9         -0.9740   29.8420   53.9270  C.3       1 <0>         0.0636
      14  C10        -0.2120   28.5330   54.1390  C.3       1 <0>        -0.0792
      15  C11        -0.6140   27.5410   53.0770  C.ar      1 <0>        -0.0536
      16  C12        -1.3720   27.9550   51.9970  C.ar      1 <0>        -0.1249
      17  C13        -1.7420   27.0470   51.0220  C.ar      1 <0>        -0.0870
      18  C14        -1.3540   25.7250   51.1260  C.ar      1 <0>        -0.1572
      19  C15        -0.5950   25.3090   52.2070  C.ar      1 <0>         0.1006
      20  C16        -0.2200   26.2200   53.1800  C.ar      1 <0>        -0.1524
      21  F1         -0.2160   24.0160   52.3090  F         1 <0>        -0.1394
@<TRIPOS>BOND
     1     1     2 1
     2     2     3 1
     3     2    12 1
     4     3     8 ar
     5     3     4 ar
     6     4     5 ar
     7     5     6 ar
     8     6     7 ar
     9     7     8 ar
    10     8     9 1
    11     9    10 2
    12     9    11 1
    13    12    13 1
    14    13    14 1
    15    14    15 1
    16    15    20 ar
    17    15    16 ar
    18    16    17 ar
    19    17    18 ar
    20    18    19 ar
    21    19    20 ar
    22    19    21 1

@<TRIPOS>MOLECULE
ZINC21227151_replica-1.pdb
 28 31 0 0 0
SMALL
GASTEIGER

@<TRIPOS>ATOM
       1  C1         -0.9050   25.2240   51.4890  C.3       1 <0>        -0.1492
       2  C2         -1.4920   26.6260   51.3140  C.3       1 <0>        -0.0895
       3  C3         -1.0450   27.5030   52.4560  C.ar      1 <0>        -0.0782
       4  C4         -0.1050   27.0390   53.3570  C.ar      1 <0>        -0.1151
       5  C5          0.3070   27.8450   54.4020  C.ar      1 <0>        -0.1101
       6  C6         -0.2270   29.1120   54.5500  C.ar      1 <0>        -0.0886
       7  C7         -1.1700   29.5740   53.6510  C.ar      1 <0>        -0.1072
       8  C8         -1.5800   28.7690   52.6040  C.ar      1 <0>        -0.1152
       9  C9          0.2200   29.9890   55.6920  C.3       1 <0>        -0.0350
      10  C10        -0.1720   31.4400   55.4080  C.3       1 <0>        -0.0926
      11  C11         0.2320   32.3100   56.5720  C.2       1 <0>         0.2251
      12  C12         0.2570   31.8170   57.8290  C.2       1 <0>        -0.2735
      13  C13         0.6590   32.7080   58.9800  C.3       1 <0>         0.0119
      14  C14         0.1680   34.1320   58.7150  C.3       1 <0>        -0.1385
      15  C15         0.5500   34.5340   57.3140  C.2       1 <0>         0.5273
      16  O1          0.8350   35.6870   57.0720  O.2       1 <0>        -0.5072
      17  N1          0.5750   33.6170   56.3320  N.am      1 <0>        -0.6745
      18  C16         2.1600   32.7110   59.1130  C.ar      1 <0>        -0.1156
      19  C17         2.9210   31.8300   58.3660  C.ar      1 <0>        -0.0835
      20  C18         4.2970   31.8350   58.4820  C.ar      1 <0>        -0.2048
      21  C19         4.9160   32.7170   59.3570  C.ar      1 <0>         0.1271
      22  C20         4.1500   33.5950   60.1090  C.ar      1 <0>        -0.1491
      23  C21         2.7750   33.5910   59.9850  C.ar      1 <0>        -0.0641
      24  O2          6.2700   32.7190   59.4760  O.3       1 <0>        -0.3170
      25  C22         6.8530   33.7810   60.2320  C.3       1 <0>         0.0237
      26  C23        -0.0800   30.4790   58.0950  C.2       1 <0>         0.4079
      27  O3         -0.0600   30.0750   59.2410  O.2       1 <0>        -0.4648
      28  C24        -0.4670   29.5400   56.9840  C.3       1 <0>        -0.1610
@<TRIPOS>BOND
     1     1     2 1
     2     2     3 1
     3     3     8 ar
     4     3     4 ar
     5     4     5 ar
     6     5     6 ar
     7     6     7 ar
     8     6     9 1
     9     7     8 ar
    10     9    28 1
    11     9    10 1
    12    10    11 1
    13    11    17 1
    14    11    12 2
    15    12    13 1
    16    12    26 1
    17    13    14 1
    18    13    18 1
    19    14    15 1
    20    15    16 2
    21    15    17 am
    22    18    23 ar
    23    18    19 ar
    24    19    20 ar
    25    20    21 ar
    26    21    22 ar
    27    21    24 1
    28    22    23 ar
    29    24    25 1
    30    26    27 2
    31    26    28 1

@<TRIPOS>MOLECULE
ZINC04876296_replica-1.pdb
 28 30 0 0 0
SMALL
GASTEIGER

@<TRIPOS>ATOM
       1  C1          8.7000   38.8080   56.6150  C.3       1 <0>        -0.1490
       2  C2          7.2960   38.4090   56.1550  C.3       1 <0>        -0.1431
       3  C3          7.2250   36.8900   55.9920  C.3       1 <0>         0.1099
       4  N1          6.9070   36.2740   57.2820  N.am      1 <0>        -0.5828
       5  C4          7.9270   36.0200   58.2050  C.ar      1 <0>         0.1555
       6  C5          8.0600   36.8200   59.3340  C.ar      1 <0>        -0.1075
       7  C6          9.0650   36.5620   60.2460  C.ar      1 <0>        -0.1054
       8  C7          9.9450   35.5180   60.0310  C.ar      1 <0>        -0.0864
       9  C8          9.8190   34.7230   58.9070  C.ar      1 <0>        -0.1082
      10  C9          8.8130   34.9720   57.9930  C.ar      1 <0>        -0.1188
      11  C10        11.0430   35.2430   61.0260  C.3       1 <0>        -0.0544
      12  C11        11.0000   36.2950   62.1360  C.3       1 <0>        -0.1427
      13  C12        10.8460   33.8520   61.6320  C.3       1 <0>        -0.1451
      14  C13         5.6330   35.9530   57.5810  C.2       1 <0>         0.5324
      15  O1          5.3810   35.3650   58.6110  O.2       1 <0>        -0.5133
      16  C14         4.5210   36.3260   56.6350  C.3       1 <0>        -0.0575
      17  C15         3.6230   35.1350   56.4200  C.2       1 <0>        -0.1400
      18  C16         2.4640   34.8170   57.1700  C.ar      1 <0>        -0.0884
      19  C17         1.8210   35.4320   58.2520  C.ar      1 <0>        -0.0726
      20  C18         0.6900   34.8740   58.7750  C.ar      1 <0>        -0.1553
      21  C19         0.1720   33.6990   58.2470  C.ar      1 <0>        -0.1149
      22  C20         0.7840   33.0780   57.1800  C.ar      1 <0>        -0.1253
      23  C21         1.9380   33.6280   56.6290  C.ar      1 <0>         0.0863
      24  N2          2.7570   33.2500   55.5920  N.pl3     1 <0>        -0.5621
      25  C22         3.7790   34.1730   55.4720  C.2       1 <0>         0.0855
      26  C23         4.8610   34.1230   54.4800  C.2       1 <0>         0.5130
      27  O2          4.7200   34.6620   53.3990  O.co2     1 <0>        -0.6085
      28  O3          6.0090   33.4780   54.7660  O.co2     1 <0>        -0.7520
@<TRIPOS>BOND
     1     1     2 1
     2     2     3 1
     3     3     4 1
     4     4     5 1
     5     4    14 am
     6     5    10 ar
     7     5     6 ar
     8     6     7 ar
     9     7     8 ar
    10     8     9 ar
    11     8    11 1
    12     9    10 ar
    13    11    12 1
    14    11    13 1
    15    14    15 2
    16    14    16 1
    17    16    17 1
    18    17    25 2
    19    17    18 1
    20    18    23 ar
    21    18    19 ar
    22    19    20 ar
    23    20    21 ar
    24    21    22 ar
    25    22    23 ar
    26    23    24 1
    27    24    25 1
    28    25    26 1
    29    26    27 2
    30    26    28 1

@<TRIPOS>MOLECULE
ZINC07542586_replica-1.pdb
 27 29 0 0 0
SMALL
GASTEIGER

@<TRIPOS>ATOM
       1  C1          0.8340   35.1090   57.6590  C.3       1 <0>        -0.1090
       2  C2          0.6390   34.2040   58.8480  C.2       1 <0>         0.1466
       3  C3          0.7700   32.8320   58.8320  C.2       1 <0>        -0.2708
       4  C4          0.4900   32.3760   60.2080  C.ar      1 <0>        -0.0608
       5  C5          0.4600   31.1300   60.8270  C.ar      1 <0>        -0.0815
       6  C6          0.1540   31.0410   62.1680  C.ar      1 <0>        -0.1301
       7  C7         -0.1240   32.1860   62.8990  C.ar      1 <0>        -0.1009
       8  C8         -0.0980   33.4260   62.2980  C.ar      1 <0>        -0.1194
       9  C9          0.2090   33.5370   60.9460  C.ar      1 <0>         0.0870
      10  N1          0.3110   34.6130   60.0880  N.pl3     1 <0>        -0.5710
      11  C10         1.1050   32.0210   57.7180  C.2       1 <0>         0.4463
      12  O1          2.2690   31.7910   57.4630  O.2       1 <0>        -0.4178
      13  C11         0.0140   31.4460   56.8520  C.3       1 <0>         0.0591
      14  C12         0.1050   32.0480   55.4490  C.3       1 <0>        -0.1652
      15  O2          0.1690   30.0270   56.7720  O.3       1 <0>        -0.3317
      16  C13        -0.9590   29.2920   56.6970  C.2       1 <0>         0.5036
      17  O3         -1.8350   29.4320   57.5300  O.2       1 <0>        -0.5146
      18  C14        -1.1250   28.3540   55.6460  C.2       1 <0>        -0.2243
      19  C15        -0.4900   28.5390   54.4680  C.2       1 <0>         0.0321
      20  C16        -0.6620   27.5690   53.3800  C.ar      1 <0>        -0.1233
      21  C17        -1.3830   27.9190   52.2310  C.ar      1 <0>        -0.0539
      22  C18        -1.5400   27.0040   51.2140  C.ar      1 <0>        -0.1607
      23  C19        -0.9890   25.7370   51.3220  C.ar      1 <0>        -0.0572
      24  C20        -0.2770   25.3760   52.4490  C.ar      1 <0>        -0.2151
      25  C21        -0.1020   26.2850   53.4810  C.ar      1 <0>         0.1604
      26  O4          0.6020   25.9340   54.5860  O.3       1 <0>        -0.3101
      27  C22         0.6000   24.5510   54.9440  C.3       1 <0>         0.0244
@<TRIPOS>BOND
     1     1     2 1
     2     2    10 1
     3     2     3 2
     4     3     4 1
     5     3    11 1
     6     4     9 ar
     7     4     5 ar
     8     5     6 ar
     9     6     7 ar
    10     7     8 ar
    11     8     9 ar
    12     9    10 1
    13    11    12 2
    14    11    13 1
    15    13    14 1
    16    13    15 1
    17    15    16 1
    18    16    17 2
    19    16    18 1
    20    18    19 2
    21    19    20 1
    22    20    25 ar
    23    20    21 ar
    24    21    22 ar
    25    22    23 ar
    26    23    24 ar
    27    24    25 ar
    28    25    26 1
    29    26    27 1

@<TRIPOS>MOLECULE
ZINC37245430_replica-1.pdb
 21 23 0 0 0
SMALL
GASTEIGER

@<TRIPOS>ATOM
       1  C1         14.9330   33.6020   63.5600  C.3       1 <0>        -0.1170
       2  C2         13.5490   33.3450   63.0210  C.ar      1 <0>        -0.0445
       3  C3         12.8330   32.2440   63.4540  C.ar      1 <0>        -0.1505
       4  C4         11.5640   32.0030   62.9630  C.ar      1 <0>        -0.0996
       5  C5         11.0050   32.8640   62.0360  C.ar      1 <0>         0.0149
       6  C6         11.7230   33.9720   61.5990  C.ar      1 <0>         0.1946
       7  C7         12.9950   34.2120   62.1000  C.ar      1 <0>        -0.1790
       8  N1         11.1620   34.8450   60.6620  N.pl3     1 <0>        -0.7400
       9  C8          9.9480   35.5960   60.9960  C.3       1 <0>         0.2345
      10  C9         10.3050   36.7440   61.9440  C.3       1 <0>        -0.1712
      11  C10         9.3410   36.1560   59.7350  C.2       1 <0>         0.0159
      12  C11         8.8870   35.4200   58.7110  C.2       1 <0>        -0.1548
      13  C12         8.3890   36.3740   57.7120  C.ar      1 <0>        -0.1276
      14  C13         7.8050   36.2510   56.4530  C.ar      1 <0>        -0.0682
      15  C14         7.4420   37.3730   55.7600  C.ar      1 <0>        -0.1349
      16  C15         7.6530   38.6310   56.3040  C.ar      1 <0>        -0.0899
      17  C16         8.2300   38.7730   57.5480  C.ar      1 <0>        -0.1076
      18  C17         8.6040   37.6470   58.2690  C.ar      1 <0>         0.0573
      19  O1          9.1690   37.4640   59.4790  O.3       1 <0>        -0.1877
      20  C18         8.8900   33.9170   58.6050  C.3       1 <0>        -0.0864
      21  F1          9.7640   32.6280   61.5560  F         1 <0>        -0.1438
@<TRIPOS>BOND
     1     1     2 1
     2     2     7 ar
     3     2     3 ar
     4     3     4 ar
     5     4     5 ar
     6     5     6 ar
     7     5    21 1
     8     6     7 ar
     9     6     8 1
    10     8     9 1
    11     9    10 1
    12     9    11 1
    13    11    19 1
    14    11    12 2
    15    12    13 1
    16    12    20 1
    17    13    18 ar
    18    13    14 ar
    19    14    15 ar
    20    15    16 ar
    21    16    17 ar
    22    17    18 ar
    23    18    19 1

@<TRIPOS>MOLECULE
ZINC00327441_replica-1.pdb
 25 27 0 0 0
SMALL
GASTEIGER

@<TRIPOS>ATOM
       1  C1          2.9340   32.9420   57.8350  C.3       1 <0>        -0.1665
       2  C2          2.3110   33.2170   56.4640  C.3       1 <0>         0.1470
       3  C3          3.3120   33.9790   55.5920  C.3       1 <0>        -0.1040
       4  C4          3.2860   35.4630   55.9650  C.3       1 <0>        -0.1486
       5  C5          4.7160   33.4190   55.8210  C.3       1 <0>        -0.1522
       6  N1          1.9690   31.9470   55.8200  N.am      1 <0>        -0.7306
       7  C6          0.6820   31.5550   55.7420  C.2       1 <0>         0.5126
       8  O1         -0.1930   32.2540   56.2060  O.2       1 <0>        -0.5262
       9  C7          0.3310   30.2470   55.0790  C.3       1 <0>        -0.1318
      10  C8         -1.1820   30.0320   55.1470  C.3       1 <0>         0.0452
      11  C9         -1.4940   28.9710   56.1690  C.ar      1 <0>        -0.0577
      12  C10        -2.8080   28.6950   56.5010  C.ar      1 <0>        -0.1241
      13  C11        -3.0940   27.7200   57.4390  C.ar      1 <0>        -0.1234
      14  C12        -2.0660   27.0210   58.0440  C.ar      1 <0>        -0.1256
      15  C13        -0.7530   27.2950   57.7110  C.ar      1 <0>        -0.1202
      16  C14        -0.4670   28.2670   56.7700  C.ar      1 <0>        -0.0845
      17  C15        -1.6870   29.5930   53.7960  C.2       1 <0>        -0.1605
      18  C16        -2.5510   30.2570   53.0120  C.2       1 <0>         0.0566
      19  N2         -2.7750   29.5510   51.8620  N.pl3     1 <0>        -0.5941
      20  C17        -2.0420   28.3860   51.8770  C.ar      1 <0>         0.0961
      21  C18        -1.3240   28.3650   53.0870  C.ar      1 <0>        -0.0977
      22  C19        -0.4800   27.2900   53.3760  C.ar      1 <0>        -0.0706
      23  C20        -0.3540   26.2660   52.4810  C.ar      1 <0>        -0.1453
      24  C21        -1.0580   26.2850   51.2840  C.ar      1 <0>        -0.0980
      25  C22        -1.9020   27.3310   50.9830  C.ar      1 <0>        -0.1311
@<TRIPOS>BOND
     1     1     2 1
     2     2     3 1
     3     2     6 1
     4     3     4 1
     5     3     5 1
     6     6     7 am
     7     7     8 2
     8     7     9 1
     9     9    10 1
    10    10    11 1
    11    10    17 1
    12    11    16 ar
    13    11    12 ar
    14    12    13 ar
    15    13    14 ar
    16    14    15 ar
    17    15    16 ar
    18    17    21 1
    19    17    18 2
    20    18    19 1
    21    19    20 1
    22    20    25 ar
    23    20    21 ar
    24    21    22 ar
    25    22    23 ar
    26    23    24 ar
    27    24    25 ar

@<TRIPOS>MOLECULE
ZINC04124777_replica-1.pdb
 21 22 0 0 0
SMALL
GASTEIGER

@<TRIPOS>ATOM
       1  C1          3.2820   35.3040   55.3980  C.3       1 <0>        -0.1189
       2  C2          4.0760   35.6930   56.6190  C.ar      1 <0>        -0.0447
       3  C3          3.4690   35.7090   57.8610  C.ar      1 <0>        -0.1563
       4  C4          4.1940   36.0640   58.9840  C.ar      1 <0>        -0.0743
       5  C5          5.5260   36.4050   58.8680  C.ar      1 <0>        -0.1824
       6  C6          6.1400   36.3910   57.6220  C.ar      1 <0>         0.1737
       7  C7          5.4100   36.0270   56.4960  C.ar      1 <0>        -0.1715
       8  N1          7.4880   36.7350   57.5000  N.pl3     1 <0>        -0.6544
       9  C8          8.4440   36.0060   58.1590  C.2       1 <0>         0.1519
      10  C9          9.1000   36.5450   59.2120  C.2       1 <0>        -0.2577
      11  C10        10.0810   35.7950   59.8890  C.2       1 <0>        -0.0149
      12  C11        10.3640   36.0660   61.1930  C.2       1 <0>        -0.1812
      13  C12        11.3440   35.3180   61.8680  C.2       1 <0>         0.1994
      14  N2         11.2980   34.0060   61.8460  N.2       1 <0>        -0.4993
      15  C13        12.2490   33.2790   62.5020  C.ar      1 <0>         0.0940
      16  C14        13.5480   33.7810   62.6400  C.ar      1 <0>        -0.1627
      17  C15        14.5020   33.0400   63.3040  C.ar      1 <0>        -0.0997
      18  C16        14.1790   31.8040   63.8340  C.ar      1 <0>        -0.1335
      19  C17        12.8970   31.3000   63.7020  C.ar      1 <0>        -0.0721
      20  C18        11.9290   32.0320   63.0470  C.ar      1 <0>        -0.1115
      21  C19        12.5550   29.9520   64.2830  C.3       1 <0>        -0.1157
@<TRIPOS>BOND
     1     1     2 1
     2     2     7 ar
     3     2     3 ar
     4     3     4 ar
     5     4     5 ar
     6     5     6 ar
     7     6     7 ar
     8     6     8 1
     9     8     9 1
    10     9    10 2
    11    10    11 1
    12    11    12 2
    13    12    13 1
    14    13    14 2
    15    14    15 1
    16    15    20 ar
    17    15    16 ar
    18    16    17 ar
    19    17    18 ar
    20    18    19 ar
    21    19    20 ar
    22    19    21 1

@<TRIPOS>MOLECULE
ZINC02707052_replica-1.pdb
 31 34 0 0 0
SMALL
GASTEIGER

@<TRIPOS>ATOM
       1  C1         -2.8100   26.0780   58.2540  C.3       1 <0>        -0.1176
       2  C2         -2.0290   27.3630   58.1560  C.ar      1 <0>        -0.0823
       3  C3         -1.7670   28.0980   59.3100  C.ar      1 <0>        -0.0957
       4  C4         -1.0650   29.2630   59.2550  C.ar      1 <0>        -0.0908
       5  C5         -0.5940   29.7370   58.0160  C.ar      1 <0>         0.1377
       6  C6         -0.8630   28.9860   56.8460  C.ar      1 <0>        -0.0897
       7  C7         -1.5890   27.7920   56.9390  C.ar      1 <0>        -0.1023
       8  C8         -0.3890   29.4630   55.5970  C.ar      1 <0>         0.0184
       9  C9          0.3220   30.6530   55.5830  C.ar      1 <0>        -0.1574
      10  C10         0.5460   31.3380   56.7850  C.ar      1 <0>         0.2096
      11  N1          0.0960   30.8770   57.9370  N.ar      1 <0>        -0.4716
      12  C11         1.3120   32.6070   56.7610  C.ar      1 <0>        -0.0925
      13  C12         2.4060   32.7460   55.9090  C.ar      1 <0>        -0.0545
      14  C13         3.1130   33.9290   55.8860  C.ar      1 <0>        -0.2144
      15  C14         2.7430   34.9780   56.7180  C.ar      1 <0>         0.1441
      16  C15         1.6560   34.8400   57.5720  C.ar      1 <0>        -0.1516
      17  C16         0.9420   33.6610   57.5950  C.ar      1 <0>        -0.0328
      18  O1          3.4440   36.1410   56.6950  O.3       1 <0>        -0.2867
      19  C17         4.6170   36.1760   55.8800  C.3       1 <0>         0.0405
      20  C18         5.8330   36.3290   56.7560  C.2       1 <0>         0.5148
      21  O2          5.8230   35.8950   57.8880  O.2       1 <0>        -0.5139
      22  N2          6.9320   36.9490   56.2810  N.am      1 <0>        -0.7222
      23  C19         8.1150   37.0970   57.1320  C.3       1 <0>         0.1204
      24  C20         8.3330   38.5770   57.4490  C.3       1 <0>         0.0627
      25  O3          9.2620   39.1340   56.5170  O.3       1 <0>        -0.5726
      26  C21        -0.6450   28.7120   54.3460  C.ar      1 <0>        -0.0555
      27  C22        -0.0160   27.4870   54.1240  C.ar      1 <0>        -0.1016
      28  C23        -0.2630   26.7890   52.9590  C.ar      1 <0>        -0.1182
      29  C24        -1.1220   27.3090   52.0070  C.ar      1 <0>        -0.1107
      30  C25        -1.7440   28.5250   52.2200  C.ar      1 <0>        -0.1175
      31  C26        -1.5100   29.2310   53.3830  C.ar      1 <0>        -0.0992
@<TRIPOS>BOND
     1     1     2 1
     2     2     7 ar
     3     2     3 ar
     4     3     4 ar
     5     4     5 ar
     6     5    11 ar
     7     5     6 ar
     8     6     7 ar
     9     6     8 ar
    10     8     9 ar
    11     8    26 1
    12     9    10 ar
    13    10    11 ar
    14    10    12 1
    15    12    17 ar
    16    12    13 ar
    17    13    14 ar
    18    14    15 ar
    19    15    16 ar
    20    15    18 1
    21    16    17 ar
    22    18    19 1
    23    19    20 1
    24    20    21 2
    25    20    22 am
    26    22    23 1
    27    23    24 1
    28    24    25 1
    29    26    31 ar
    30    26    27 ar
    31    27    28 ar
    32    28    29 ar
    33    29    30 ar
    34    30    31 ar

@<TRIPOS>MOLECULE
ZINC16195144_replica-1.pdb
 23 24 0 0 0
SMALL
GASTEIGER

@<TRIPOS>ATOM
       1  C1          7.2580   29.0890   58.0190  C.3       1 <0>         0.0214
       2  O1          7.3660   30.4380   57.5620  O.3       1 <0>        -0.3008
       3  C2          7.3220   31.4160   58.5060  C.ar      1 <0>         0.1153
       4  C3          8.4710   31.7710   59.1850  C.ar      1 <0>        -0.1565
       5  C4          8.4210   32.7750   60.1600  C.ar      1 <0>        -0.0424
       6  C5          7.2090   33.4200   60.4340  C.ar      1 <0>        -0.0870
       7  C6          6.0690   33.0640   59.7460  C.ar      1 <0>        -0.0917
       8  C7          6.1190   32.0650   58.7830  C.ar      1 <0>         0.1122
       9  O2          4.9920   31.7170   58.1080  O.3       1 <0>        -0.3168
      10  C8          4.7410   32.3910   56.8730  C.3       1 <0>         0.0342
      11  I1          4.2560   34.0300   60.1560  I         1 <0>        -0.0076
      12  C9          9.6370   33.1510   60.8910  C.2       1 <0>        -0.0081
      13  C10        10.1550   34.4040   60.7490  C.2       1 <0>        -0.0194
      14  C11        11.2550   34.8200   61.5680  C.1       1 <0>         0.2471
      15  N1         12.1260   35.1510   62.2170  N.1       1 <0>        -0.3983
      16  C12         9.5790   35.3350   59.7540  C.ar      1 <0>        -0.0211
      17  C13         9.5330   34.9750   58.4060  C.ar      1 <0>        -0.0947
      18  C14         8.9950   35.8360   57.4850  C.ar      1 <0>        -0.0654
      19  C15         8.5020   37.0790   57.8940  C.ar      1 <0>        -0.0151
      20  C16         8.5530   37.4400   59.2440  C.ar      1 <0>        -0.0634
      21  C17         9.0860   36.5760   60.1640  C.ar      1 <0>        -0.1105
      22  C18         7.9440   37.9810   56.9310  C.1       1 <0>         0.2473
      23  N2          7.5010   38.6960   56.1680  N.1       1 <0>        -0.4045
@<TRIPOS>BOND
     1     1     2 1
     2     2     3 1
     3     3     8 ar
     4     3     4 ar
     5     4     5 ar
     6     5     6 ar
     7     5    12 1
     8     6     7 ar
     9     7     8 ar
    10     7    11 1
    11     8     9 1
    12     9    10 1
    13    12    13 2
    14    13    14 1
    15    13    16 1
    16    14    15 3
    17    16    21 ar
    18    16    17 ar
    19    17    18 ar
    20    18    19 ar
    21    19    20 ar
    22    19    22 1
    23    20    21 ar
    24    22    23 3

@<TRIPOS>MOLECULE
ZINC14551840_replica-1.pdb
 25 28 0 0 0
SMALL
GASTEIGER

@<TRIPOS>ATOM
       1  C1          6.1330   33.2760   59.6340  C.3       1 <0>        -0.1352
       2  C2          7.1190   34.0040   58.7560  C.ar      1 <0>        -0.0608
       3  C3          7.5610   33.4180   57.5890  C.ar      1 <0>        -0.0231
       4  C4          8.4650   34.0870   56.7850  C.ar      1 <0>        -0.0833
       5  C5          8.9230   35.3360   57.1510  C.ar      1 <0>        -0.0934
       6  C6          8.4850   35.9340   58.3240  C.ar      1 <0>        -0.0438
       7  C7          7.5780   35.2660   59.1270  C.ar      1 <0>         0.1336
       8  N1          7.0970   35.8140   60.3170  N.pl3     1 <0>        -0.6120
       9  C8          8.0650   36.7340   60.9170  C.3       1 <0>         0.1358
      10  C9          8.3870   37.8570   59.9450  C.3       1 <0>        -0.0854
      11  C10         9.0320   37.2950   58.6620  C.3       1 <0>        -0.0221
      12  C11         8.5720   38.2670   57.5870  C.2       1 <0>        -0.1705
      13  C12         7.4980   38.9050   57.9740  C.2       1 <0>        -0.1482
      14  C13         7.0830   38.4550   59.3620  C.3       1 <0>        -0.0992
      15  C14         9.3290   35.9840   61.2490  C.ar      1 <0>        -0.1221
      16  C15        10.4400   36.6720   61.7060  C.ar      1 <0>        -0.0983
      17  C16        11.5980   35.9870   62.0160  C.ar      1 <0>        -0.1258
      18  C17        11.6510   34.6060   61.8590  C.ar      1 <0>        -0.0787
      19  C18        10.5350   33.9200   61.3970  C.ar      1 <0>        -0.0946
      20  C19         9.3780   34.6110   61.0930  C.ar      1 <0>        -0.0878
      21  S1         13.1290   33.7290   62.2480  S.3       1 <0>        -0.1138
      22  C20        12.5400   32.2070   63.0410  C.3       1 <0>        -0.1452
      23  N2          7.0650   32.0800   57.1950  N.pl3     1 <0>         0.0326
      24  O1          6.0310   31.9760   56.5620  O.2       1 <0>        -0.1649
      25  O2          7.6920   31.0820   57.5060  O.3       1 <0>        -0.1592
@<TRIPOS>BOND
     1     1     2 1
     2     2     7 ar
     3     2     3 ar
     4     3     4 ar
     5     3    23 1
     6     4     5 ar
     7     5     6 ar
     8     6    11 1
     9     6     7 ar
    10     7     8 1
    11     8     9 1
    12     9    10 1
    13     9    15 1
    14    10    14 1
    15    10    11 1
    16    11    12 1
    17    12    13 2
    18    13    14 1
    19    15    20 ar
    20    15    16 ar
    21    16    17 ar
    22    17    18 ar
    23    18    19 ar
    24    18    21 1
    25    19    20 ar
    26    21    22 1
    27    23    24 2
    28    23    25 1

@<TRIPOS>MOLECULE
ZINC13983360_replica-1.pdb
 27 28 0 0 0
SMALL
GASTEIGER

@<TRIPOS>ATOM
       1  C1          8.0030   38.4630   57.0580  C.3       1 <0>        -0.1556
       2  C2          7.7290   37.2350   57.9290  C.3       1 <0>        -0.1163
       3  C3          7.1780   36.1050   57.0590  C.3       1 <0>        -0.0499
       4  C4          7.7420   34.7670   57.5420  C.3       1 <0>        -0.1466
       5  C5          5.6740   36.0810   57.1590  C.ar      1 <0>        -0.1097
       6  C6          5.0650   36.0240   58.3990  C.ar      1 <0>        -0.0765
       7  C7          3.6880   36.0020   58.4940  C.ar      1 <0>        -0.1418
       8  C8          2.9140   36.0360   57.3420  C.ar      1 <0>         0.1216
       9  C9          3.5270   36.0860   56.0980  C.ar      1 <0>        -0.2068
      10  C10         4.9060   36.1150   56.0100  C.ar      1 <0>        -0.0736
      11  O1          1.5590   36.0130   57.4320  O.3       1 <0>        -0.2895
      12  C11         0.9740   34.9350   58.1660  C.3       1 <0>         0.0539
      13  C12         1.1510   33.6500   57.3980  C.2       1 <0>         0.5172
      14  O2          1.8960   32.7900   57.8200  O.2       1 <0>        -0.5115
      15  N1          0.4820   33.4560   56.2450  N.am      1 <0>        -0.5198
      16  N2          0.6470   32.2600   55.5320  N.am      1 <0>        -0.5162
      17  C13        -0.3370   31.3410   55.5250  C.2       1 <0>         0.5546
      18  O3         -1.3690   31.5460   56.1370  O.2       1 <0>        -0.5438
      19  C14        -0.1630   30.0890   54.7840  C.2       1 <0>        -0.2190
      20  C15        -1.1930   29.5720   54.0840  C.2       1 <0>         0.0056
      21  C16        -1.0180   28.3140   53.3400  C.ar      1 <0>        -0.0923
      22  C17        -0.2890   27.2610   53.9010  C.ar      1 <0>        -0.0922
      23  C18        -0.1340   26.0830   53.1990  C.ar      1 <0>        -0.1248
      24  C19        -0.6890   25.9460   51.9390  C.ar      1 <0>        -0.0678
      25  C20        -1.4070   26.9860   51.3750  C.ar      1 <0>        -0.1251
      26  C21        -1.5760   28.1680   52.0650  C.ar      1 <0>        -0.0849
      27  C22        -0.5110   24.6580   51.1770  C.3       1 <0>        -0.1210
@<TRIPOS>BOND
     1     1     2 1
     2     2     3 1
     3     3     4 1
     4     3     5 1
     5     5    10 ar
     6     5     6 ar
     7     6     7 ar
     8     7     8 ar
     9     8     9 ar
    10     8    11 1
    11     9    10 ar
    12    11    12 1
    13    12    13 1
    14    13    14 2
    15    13    15 am
    16    15    16 1
    17    16    17 am
    18    17    18 2
    19    17    19 1
    20    19    20 2
    21    20    21 1
    22    21    26 ar
    23    21    22 ar
    24    22    23 ar
    25    23    24 ar
    26    24    25 ar
    27    24    27 1
    28    25    26 ar

@<TRIPOS>MOLECULE
ZINC37192083_replica-1.pdb
 21 22 0 0 0
SMALL
GASTEIGER

@<TRIPOS>ATOM
       1  C1         14.3170   33.6350   62.7500  C.ar      1 <0>        -0.0966
       2  C2         14.1290   32.4320   63.4090  C.ar      1 <0>        -0.0771
       3  C3         12.8850   31.8300   63.4140  C.ar      1 <0>        -0.1621
       4  C4         11.8240   32.4260   62.7610  C.ar      1 <0>        -0.0496
       5  C5         12.0080   33.6330   62.0980  C.ar      1 <0>        -0.0876
       6  C6         13.2610   34.2360   62.0950  C.ar      1 <0>        -0.1024
       7  S1         10.6580   34.3980   61.2630  S.3       1 <0>        -0.0813
       8  C7         10.6110   36.0760   61.9510  C.3       1 <0>        -0.0982
       9  C8         10.0420   37.0390   60.9060  C.3       1 <0>        -0.0995
      10  S2          8.3060   36.6250   60.5850  S.3       1 <0>        -0.0890
      11  C9          8.1590   36.7320   58.8320  C.ar      1 <0>        -0.2017
      12  C10         8.3970   37.9390   58.1750  C.ar      1 <0>        -0.0082
      13  C11         8.2690   37.9750   56.7990  C.ar      1 <0>        -0.2189
      14  C12         7.9130   36.8150   56.1200  C.ar      1 <0>         0.4027
      15  N1          7.6960   35.6860   56.7750  N.ar      1 <0>        -0.5295
      16  C13         7.8120   35.6130   58.0890  C.ar      1 <0>         0.1465
      17  N2          7.7830   36.8400   54.7330  N.pl3     1 <0>        -0.8498
      18  C14        12.6860   30.5210   64.1320  C.3       1 <0>         0.5095
      19  F1         13.4200   30.5260   65.3240  F         1 <0>        -0.1746
      20  F2         11.3280   30.3500   64.4230  F         1 <0>        -0.1739
      21  F3         13.1250   29.4700   63.3190  F         1 <0>        -0.1739
@<TRIPOS>BOND
     1     1     6 ar
     2     1     2 ar
     3     2     3 ar
     4     3     4 ar
     5     3    18 1
     6     4     5 ar
     7     5     6 ar
     8     5     7 1
     9     7     8 1
    10     8     9 1
    11     9    10 1
    12    10    11 1
    13    11    16 ar
    14    11    12 ar
    15    12    13 ar
    16    13    14 ar
    17    14    15 ar
    18    14    17 1
    19    15    16 ar
    20    18    19 1
    21    18    20 1
    22    18    21 1

@<TRIPOS>MOLECULE
ZINC40738662_replica-1.pdb
 21 23 0 0 0
SMALL
GASTEIGER

@<TRIPOS>ATOM
       1  C1         -0.6700   24.6190   51.4200  C.3       1 <0>        -0.1166
       2  C2         -0.5900   25.9070   52.1990  C.ar      1 <0>        -0.0899
       3  C3         -1.2000   27.0480   51.7120  C.ar      1 <0>        -0.1186
       4  C4         -1.1270   28.2290   52.4270  C.ar      1 <0>        -0.1126
       5  C5         -0.4460   28.2690   53.6280  C.ar      1 <0>        -0.0771
       6  C6          0.1630   27.1280   54.1160  C.ar      1 <0>        -0.1132
       7  C7          0.0860   25.9460   53.4040  C.ar      1 <0>        -0.1184
       8  C8         -0.3660   29.5570   54.4060  C.3       1 <0>        -0.0705
       9  C9         -0.4910   29.3670   55.9270  C.3       1 <0>        -0.1410
      10  C10        -1.3540   30.6400   55.9350  C.3       1 <0>         0.1280
      11  C11        -1.6990   30.3220   54.4700  C.3       1 <0>        -0.1466
      12  N1         -0.5810   31.8730   56.1020  N.pl3     1 <0>        -0.7289
      13  C12        -0.1840   32.2820   57.3770  C.ar      1 <0>         0.2173
      14  C13         0.0650   31.3380   58.3640  C.ar      1 <0>        -0.1949
      15  C14         0.4580   31.7470   59.6240  C.ar      1 <0>        -0.0654
      16  C15         0.6050   33.0930   59.9020  C.ar      1 <0>        -0.1435
      17  C16         0.3580   34.0350   58.9210  C.ar      1 <0>        -0.0649
      18  C17        -0.0300   33.6340   57.6580  C.ar      1 <0>        -0.1936
      19  C18         1.0330   33.5340   61.2780  C.3       1 <0>        -0.0723
      20  C19        -0.1940   33.6370   62.1850  C.3       1 <0>         0.0800
      21  O1         -0.8390   34.8950   61.9730  O.3       1 <0>        -0.5773
@<TRIPOS>BOND
     1     1     2 1
     2     2     7 ar
     3     2     3 ar
     4     3     4 ar
     5     4     5 ar
     6     5     6 ar
     7     5     8 1
     8     6     7 ar
     9     8    11 1
    10     8     9 1
    11     9    10 1
    12    10    11 1
    13    10    12 1
    14    12    13 1
    15    13    18 ar
    16    13    14 ar
    17    14    15 ar
    18    15    16 ar
    19    16    17 ar
    20    16    19 1
    21    17    18 ar
    22    19    20 1
    23    20    21 1

@<TRIPOS>MOLECULE
ZINC62490886_replica-1.pdb
 22 24 0 0 0
SMALL
GASTEIGER

@<TRIPOS>ATOM
       1  C1         13.8600   31.6180   63.8370  C.3       1 <0>        -0.1137
       2  C2         12.9510   32.5240   63.0460  C.ar      1 <0>        -0.0841
       3  C3         11.6530   32.1290   62.7750  C.ar      1 <0>        -0.1175
       4  C4         10.8150   32.9530   62.0510  C.ar      1 <0>        -0.0988
       5  C5         11.2810   34.1870   61.5920  C.ar      1 <0>         0.0010
       6  C6         12.5920   34.5780   61.8690  C.ar      1 <0>        -0.0757
       7  C7         13.4170   33.7470   62.5980  C.ar      1 <0>        -0.1215
       8  C8         10.3900   35.0750   60.8160  C.2       1 <0>         0.0279
       9  N1          9.6910   34.7820   59.7340  N.2       1 <0>        -0.4953
      10  C9          8.9340   35.6790   59.1430  C.2       1 <0>         0.0967
      11  C10         8.9170   36.9530   59.7330  C.2       1 <0>        -0.1782
      12  S1         10.0230   36.6900   61.1100  S.3       1 <0>         0.1653
      13  C11         8.2160   38.1180   59.3480  C.2       1 <0>         0.5489
      14  O1          8.7510   38.9400   58.6140  O.co2     1 <0>        -0.6487
      15  O2          7.0720   38.3060   59.7480  O.co2     1 <0>        -0.6726
      16  C12         8.1460   35.3640   57.9290  C.ar      1 <0>         0.0329
      17  C13         7.1490   34.3880   57.9750  C.ar      1 <0>        -0.0515
      18  C14         6.4180   34.0980   56.8410  C.ar      1 <0>        -0.0990
      19  C15         6.6700   34.7710   55.6600  C.ar      1 <0>        -0.1522
      20  C16         7.6570   35.7400   55.6070  C.ar      1 <0>         0.0773
      21  C17         8.3930   36.0450   56.7370  C.ar      1 <0>        -0.1267
      22  F1          7.9000   36.3950   54.4490  F         1 <0>        -0.1485
@<TRIPOS>BOND
     1     1     2 1
     2     2     7 ar
     3     2     3 ar
     4     3     4 ar
     5     4     5 ar
     6     5     6 ar
     7     5     8 1
     8     6     7 ar
     9     8    12 1
    10     8     9 2
    11     9    10 1
    12    10    11 2
    13    10    16 1
    14    11    12 1
    15    11    13 1
    16    13    14 2
    17    13    15 1
    18    16    21 ar
    19    16    17 ar
    20    17    18 ar
    21    18    19 ar
    22    19    20 ar
    23    20    21 ar
    24    20    22 1

@<TRIPOS>MOLECULE
ZINC65319298_replica-1.pdb
 29 32 0 0 0
SMALL
GASTEIGER

@<TRIPOS>ATOM
       1  C1         12.7460   31.1350   63.9640  C.3       1 <0>        -0.1857
       2  C2         12.9720   31.9180   62.6680  C.3       1 <0>        -0.0102
       3  N1         12.4090   33.2680   62.8070  N.4       1 <0>        -0.2699
       4  C3         13.4330   34.2630   62.4660  C.3       1 <0>        -0.0147
       5  C4         14.8160   33.7110   62.8200  C.3       1 <0>        -0.1693
       6  C5         11.3170   33.4070   61.9440  C.ar      1 <0>        -0.2519
       7  C6         11.2080   34.5330   61.1470  C.ar      1 <0>        -0.1348
       8  C7         10.1340   34.6760   60.2930  C.ar      1 <0>        -0.0767
       9  C8          9.1560   33.6840   60.2350  C.ar      1 <0>        -0.1293
      10  C9          9.2700   32.5500   61.0420  C.ar      1 <0>        -0.0811
      11  C10        10.3530   32.4160   61.8870  C.ar      1 <0>        -0.1453
      12  C11         7.9990   33.8300   59.3220  C.2       1 <0>         0.0868
      13  C12         6.8550   34.5190   59.5800  C.2       1 <0>         0.2109
      14  N2          6.0360   34.4010   58.4620  N.pl3     1 <0>        -0.4420
      15  C13         4.7650   34.8550   58.0810  C.ar      1 <0>         0.1078
      16  C14         3.8950   35.6470   58.8480  C.ar      1 <0>        -0.1118
      17  C15         2.6680   36.0250   58.3560  C.ar      1 <0>        -0.0950
      18  C16         2.2520   35.6390   57.0930  C.ar      1 <0>        -0.0898
      19  C17         3.0890   34.8580   56.3160  C.ar      1 <0>        -0.0496
      20  C18         4.3170   34.4810   56.8100  C.ar      1 <0>        -0.1361
      21  S1          5.6590   33.5120   56.1690  S.3       1 <0>         0.1142
      22  C19         6.7420   33.6340   57.5740  C.2       1 <0>         0.1815
      23  N3          7.8950   33.3020   58.0720  N.2       1 <0>        -0.4232
      24  C20         0.9030   36.0630   56.5710  C.3       1 <0>        -0.1090
      25  N4          6.5580   35.2170   60.7520  N.pl3     1 <0>        -0.7276
      26  C21         7.1600   36.5290   60.9960  C.3       1 <0>         0.1258
      27  C22         6.4220   37.5890   60.1760  C.3       1 <0>         0.0369
      28  O1          7.2660   38.0450   59.1170  O.3       1 <0>        -0.3683
      29  C23         8.6560   38.0640   59.4480  C.3       1 <0>         0.0351
@<TRIPOS>BOND
     1     1     2 1
     2     2     3 1
     3     3     4 1
     4     3     6 1
     5     4     5 1
     6     6    11 ar
     7     6     7 ar
     8     7     8 ar
     9     8     9 ar
    10     9    10 ar
    11     9    12 1
    12    10    11 ar
    13    12    23 1
    14    12    13 2
    15    13    14 1
    16    13    25 1
    17    14    22 1
    18    14    15 1
    19    15    20 ar
    20    15    16 ar
    21    16    17 ar
    22    17    18 ar
    23    18    19 ar
    24    18    24 1
    25    19    20 ar
    26    20    21 1
    27    21    22 1
    28    22    23 2
    29    25    26 1
    30    26    27 1
    31    27    28 1
    32    28    29 1

@<TRIPOS>MOLECULE
ZINC03464288_replica-1.pdb
 27 29 0 0 0
SMALL
GASTEIGER

@<TRIPOS>ATOM
       1  C1         -0.4440   25.0580   51.5570  C.3       1 <0>        -0.1170
       2  C2         -0.7860   26.4080   52.1330  C.ar      1 <0>        -0.1025
       3  C3         -1.5470   27.2990   51.3990  C.ar      1 <0>        -0.0877
       4  C4         -1.8620   28.5370   51.9240  C.ar      1 <0>        -0.1324
       5  C5         -1.4140   28.8860   53.1920  C.ar      1 <0>         0.1536
       6  C6         -0.6460   27.9900   53.9250  C.ar      1 <0>        -0.1441
       7  C7         -0.3390   26.7520   53.3950  C.ar      1 <0>        -0.0607
       8  C8          0.4900   25.7770   54.1920  C.3       1 <0>        -0.1187
       9  N1         -1.7300   30.1370   53.7270  N.pl3     1 <0>        -0.6047
      10  C9         -0.9620   30.6690   54.7550  C.2       1 <0>         0.3355
      11  N2          0.2320   31.2280   54.7040  N.2       1 <0>        -0.3528
      12  N3          0.8190   31.6980   55.8550  N.2       1 <0>        -0.2803
      13  C10         0.1890   31.5770   57.0090  C.2       1 <0>         0.0276
      14  S1         -1.3250   30.7760   56.5010  S.3       1 <0>         0.0201
      15  S2          0.7010   32.0790   58.6190  S.3       1 <0>         0.1316
      16  C11         0.1660   33.8080   58.7310  C.3       1 <0>        -0.1612
      17  C12         0.9780   34.6490   57.7780  C.2       1 <0>         0.5389
      18  O1          0.4750   35.6150   57.2440  O.2       1 <0>        -0.5195
      19  N4          2.2610   34.3270   57.5200  N.am      1 <0>        -0.7168
      20  C13         3.0490   35.1450   56.5950  C.3       1 <0>         0.1852
      21  C14         3.5270   34.2760   55.4290  C.3       1 <0>        -0.1599
      22  C15         4.2420   35.7140   57.3190  C.ar      1 <0>        -0.0957
      23  C16         5.3750   36.0690   56.6120  C.ar      1 <0>        -0.1156
      24  C17         6.4680   36.5940   57.2750  C.ar      1 <0>        -0.1149
      25  C18         6.4300   36.7580   58.6480  C.ar      1 <0>        -0.1169
      26  C19         5.2980   36.3980   59.3560  C.ar      1 <0>        -0.1144
      27  C20         4.2040   35.8770   58.6910  C.ar      1 <0>        -0.1063
@<TRIPOS>BOND
     1     1     2 1
     2     2     7 ar
     3     2     3 ar
     4     3     4 ar
     5     4     5 ar
     6     5     6 ar
     7     5     9 1
     8     6     7 ar
     9     7     8 1
    10     9    10 1
    11    10    14 1
    12    10    11 2
    13    11    12 1
    14    12    13 2
    15    13    14 1
    16    13    15 1
    17    15    16 1
    18    16    17 1
    19    17    18 2
    20    17    19 am
    21    19    20 1
    22    20    21 1
    23    20    22 1
    24    22    27 ar
    25    22    23 ar
    26    23    24 ar
    27    24    25 ar
    28    25    26 ar
    29    26    27 ar

@<TRIPOS>MOLECULE
ZINC02627622_replica-1.pdb
 23 25 0 0 0
SMALL
GASTEIGER

@<TRIPOS>ATOM
       1  C1         -0.4100   25.2140   52.1590  C.ar      1 <0>        -0.1352
       2  C2         -0.0180   25.9470   53.2640  C.ar      1 <0>        -0.0907
       3  C3         -0.4380   27.2550   53.4110  C.ar      1 <0>        -0.1317
       4  C4         -1.2570   27.8310   52.4480  C.ar      1 <0>         0.1530
       5  C5         -1.6540   27.0900   51.3430  C.ar      1 <0>        -0.1467
       6  C6         -1.2260   25.7840   51.2000  C.ar      1 <0>        -0.0935
       7  N1         -1.6840   29.1540   52.5950  N.pl3     1 <0>        -0.6042
       8  C7         -1.5730   29.7880   53.8270  C.2       1 <0>         0.3374
       9  N2         -2.4400   29.8430   54.8190  N.2       1 <0>        -0.3513
      10  N3         -2.1240   30.5350   55.9660  N.2       1 <0>        -0.2710
      11  C8         -0.9560   31.1400   56.0670  C.2       1 <0>         0.0405
      12  S1         -0.2220   30.7530   54.4850  S.3       1 <0>         0.0222
      13  S2         -0.2990   32.0850   57.4020  S.3       1 <0>         0.0718
      14  C9          1.4840   31.7600   57.3330  C.3       1 <0>        -0.1240
      15  C10         2.0220   31.5710   58.7530  C.3       1 <0>         0.0767
      16  O1          2.1330   32.8430   59.3940  O.3       1 <0>        -0.3004
      17  C11         1.2990   33.0810   60.4410  C.ar      1 <0>         0.0967
      18  C12         1.1670   32.1410   61.4520  C.ar      1 <0>        -0.1821
      19  C13         0.3220   32.3860   62.5170  C.ar      1 <0>        -0.0885
      20  C14        -0.4010   33.5640   62.5720  C.ar      1 <0>        -0.1261
      21  C15        -0.2750   34.5030   61.5640  C.ar      1 <0>        -0.1155
      22  C16         0.5720   34.2640   60.4980  C.ar      1 <0>         0.0715
      23  F1          0.6950   35.1800   59.5130  F         1 <0>        -0.1306
@<TRIPOS>BOND
     1     1     6 ar
     2     1     2 ar
     3     2     3 ar
     4     3     4 ar
     5     4     5 ar
     6     4     7 1
     7     5     6 ar
     8     7     8 1
     9     8    12 1
    10     8     9 2
    11     9    10 1
    12    10    11 2
    13    11    12 1
    14    11    13 1
    15    13    14 1
    16    14    15 1
    17    15    16 1
    18    16    17 1
    19    17    22 ar
    20    17    18 ar
    21    18    19 ar
    22    19    20 ar
    23    20    21 ar
    24    21    22 ar
    25    22    23 1

@<TRIPOS>MOLECULE
ZINC63755471_replica-1.pdb
 30 33 0 0 0
SMALL
GASTEIGER

@<TRIPOS>ATOM
       1  C1          1.2450   35.6120   57.3780  C.3       1 <0>        -0.1782
       2  C2          0.6730   34.3790   58.0800  C.3       1 <0>         0.0698
       3  C3          0.5260   33.2580   57.0840  C.2       1 <0>         0.5238
       4  O1          1.4710   32.9290   56.3980  O.2       1 <0>        -0.4966
       5  N1         -0.6550   32.6210   56.9550  N.am      1 <0>        -0.7299
       6  C4         -0.7970   31.5300   55.9870  C.3       1 <0>         0.1338
       7  C5         -2.2580   31.0780   55.9410  C.3       1 <0>        -0.2125
       8  S1         -2.4040   29.6150   54.8790  S.3       1 <0>         0.3092
       9  C6         -1.2320   28.5860   55.4500  C.2       1 <0>        -0.0657
      10  C7         -1.1800   27.9860   56.7040  C.ar      1 <0>        -0.1962
      11  C8         -2.0360   28.0440   57.8250  C.ar      1 <0>        -0.0462
      12  C9         -1.7310   27.3380   58.9430  C.ar      1 <0>        -0.1489
      13  C10        -0.5830   26.5480   59.0180  C.ar      1 <0>         0.0344
      14  C11         0.2840   26.4470   57.9800  C.ar      1 <0>        -0.1959
      15  C12         0.0320   27.1550   56.7780  C.ar      1 <0>         0.3199
      16  N2          0.7080   27.2210   55.6460  N.pl3     1 <0>        -0.6126
      17  C13        -0.0030   28.1020   54.7130  C.3       1 <0>         0.2008
      18  C14        -0.4050   27.3390   53.4780  C.ar      1 <0>        -0.1345
      19  C15        -1.0890   27.9810   52.4620  C.ar      1 <0>        -0.0966
      20  C16        -1.4570   27.2820   51.3280  C.ar      1 <0>        -0.1102
      21  C17        -1.1440   25.9410   51.2100  C.ar      1 <0>        -0.0865
      22  C18        -0.4590   25.3000   52.2260  C.ar      1 <0>        -0.1069
      23  C19        -0.0860   26.0000   53.3570  C.ar      1 <0>        -0.0900
      24  O2          1.5570   33.9740   59.1280  O.3       1 <0>        -0.2857
      25  C20         0.9870   33.5460   60.2840  C.ar      1 <0>         0.1227
      26  C21         1.2510   32.2690   60.7580  C.ar      1 <0>        -0.2133
      27  C22         0.6700   31.8360   61.9340  C.ar      1 <0>        -0.0799
      28  C23        -0.1730   32.6740   62.6400  C.ar      1 <0>        -0.1523
      29  C24        -0.4380   33.9470   62.1690  C.ar      1 <0>        -0.0768
      30  C25         0.1440   34.3870   60.9960  C.ar      1 <0>        -0.1452
@<TRIPOS>BOND
     1     1     2 1
     2     2     3 1
     3     2    24 1
     4     3     4 2
     5     3     5 am
     6     5     6 1
     7     6     7 1
     8     7     8 1
     9     8     9 1
    10     9    17 1
    11     9    10 2
    12    10    15 ar
    13    10    11 ar
    14    11    12 ar
    15    12    13 ar
    16    13    14 ar
    17    14    15 ar
    18    15    16 2
    19    16    17 1
    20    17    18 1
    21    18    23 ar
    22    18    19 ar
    23    19    20 ar
    24    20    21 ar
    25    21    22 ar
    26    22    23 ar
    27    24    25 1
    28    25    30 ar
    29    25    26 ar
    30    26    27 ar
    31    27    28 ar
    32    28    29 ar
    33    29    30 ar

@<TRIPOS>MOLECULE
ZINC14850697_replica-1.pdb
 26 28 0 0 0
SMALL
GASTEIGER

@<TRIPOS>ATOM
       1  C1         -0.3060   23.1960   52.0750  C.3       1 <0>        -0.1480
       2  C2         -0.6350   24.3660   51.1460  C.3       1 <0>        -0.0899
       3  C3         -0.6380   25.6500   51.9350  C.ar      1 <0>        -0.0598
       4  C4          0.0370   25.7200   53.1400  C.ar      1 <0>        -0.1205
       5  C5          0.0380   26.8930   53.8680  C.ar      1 <0>        -0.0787
       6  C6         -0.6440   28.0080   53.3850  C.ar      1 <0>        -0.0326
       7  C7         -1.3270   27.9310   52.1740  C.ar      1 <0>        -0.0702
       8  C8         -1.3160   26.7550   51.4520  C.ar      1 <0>        -0.1215
       9  C9         -0.6480   29.2730   54.1630  C.2       1 <0>         0.2157
      10  N1          0.3690   29.7560   54.9130  N.2       1 <0>        -0.4707
      11  C10        -0.0700   30.8850   55.4130  C.2       1 <0>         0.1853
      12  O1         -1.3190   31.0540   54.9680  O.3       1 <0>         0.0843
      13  N2         -1.6330   30.1270   54.2510  N.2       1 <0>        -0.3752
      14  C11         0.6900   31.8150   56.3230  C.3       1 <0>        -0.0117
      15  C12        -0.2800   32.4680   57.3100  C.3       1 <0>        -0.1398
      16  C13         0.2160   33.8460   57.6650  C.2       1 <0>         0.5187
      17  O2          0.1730   34.2290   58.8140  O.2       1 <0>        -0.5349
      18  N3          0.7070   34.6530   56.7030  N.am      1 <0>        -0.7255
      19  C14         1.1890   35.9930   57.0460  C.3       1 <0>         0.1620
      20  C15         2.6900   35.9680   57.1810  C.ar      1 <0>        -0.1197
      21  C16         3.2710   35.9150   58.4340  C.ar      1 <0>        -0.0954
      22  C17         4.6470   35.8870   58.5580  C.ar      1 <0>        -0.1230
      23  C18         5.4430   35.9220   57.4280  C.ar      1 <0>        -0.0752
      24  C19         4.8620   35.9800   56.1750  C.ar      1 <0>        -0.1230
      25  C20         3.4860   36.0030   56.0520  C.ar      1 <0>        -0.0954
      26  C21         6.9440   35.8970   57.5620  C.3       1 <0>        -0.1196
@<TRIPOS>BOND
     1     1     2 1
     2     2     3 1
     3     3     8 ar
     4     3     4 ar
     5     4     5 ar
     6     5     6 ar
     7     6     7 ar
     8     6     9 1
     9     7     8 ar
    10     9    13 2
    11     9    10 1
    12    10    11 2
    13    11    12 1
    14    11    14 1
    15    12    13 1
    16    14    15 1
    17    15    16 1
    18    16    17 2
    19    16    18 am
    20    18    19 1
    21    19    20 1
    22    20    25 ar
    23    20    21 ar
    24    21    22 ar
    25    22    23 ar
    26    23    24 ar
    27    23    26 1
    28    24    25 ar

@<TRIPOS>MOLECULE
ZINC10683657_replica-1.pdb
 30 31 0 0 0
SMALL
GASTEIGER

@<TRIPOS>ATOM
       1  C1          0.5620   23.6410   55.7870  C.3       1 <0>        -0.1543
       2  C2          0.7430   24.5540   54.5740  C.3       1 <0>        -0.1134
       3  C3          0.6180   26.0150   55.0120  C.3       1 <0>        -0.0495
       4  C4         -0.1430   26.0870   56.3370  C.3       1 <0>        -0.1437
       5  C5         -0.1300   26.7920   53.9600  C.ar      1 <0>        -0.0997
       6  C6         -0.4260   26.2040   52.7440  C.ar      1 <0>        -0.0773
       7  C7         -1.1120   26.9170   51.7790  C.ar      1 <0>        -0.1518
       8  C8         -1.5050   28.2190   52.0270  C.ar      1 <0>        -0.0836
       9  C9         -1.2180   28.8100   53.2420  C.ar      1 <0>        -0.2091
      10  C10        -0.5230   28.0980   54.2100  C.ar      1 <0>         0.1294
      11  O1         -0.2350   28.6790   55.4050  O.3       1 <0>        -0.2766
      12  C11        -0.5890   30.0540   55.5600  C.3       1 <0>         0.0778
      13  C12        -1.8230   30.1660   56.4580  C.3       1 <0>        -0.1415
      14  C13        -2.9900   30.7390   55.6520  C.3       1 <0>        -0.1579
      15  C14         0.5590   30.8010   56.1900  C.2       1 <0>         0.5163
      16  O2          0.9480   30.4930   57.2950  O.2       1 <0>        -0.5105
      17  N1          1.1510   31.8120   55.5230  N.am      1 <0>        -0.5180
      18  N2          2.2180   32.5060   56.1080  N.am      1 <0>        -0.5180
      19  C15         2.0120   33.7190   56.6590  C.2       1 <0>         0.5650
      20  O3          0.9000   34.2100   56.6490  O.2       1 <0>        -0.5340
      21  C16         3.1390   34.4510   57.2770  C.ar      1 <0>        -0.1378
      22  C17         3.3950   34.3190   58.6420  C.ar      1 <0>        -0.0489
      23  C18         4.4480   35.0050   59.2130  C.ar      1 <0>        -0.1228
      24  C19         5.2490   35.8200   58.4330  C.ar      1 <0>        -0.0357
      25  C20         5.0000   35.9550   57.0790  C.ar      1 <0>        -0.1270
      26  C21         3.9510   35.2760   56.4960  C.ar      1 <0>        -0.0808
      27  C22         6.3980   36.5660   59.0630  C.3       1 <0>        -0.0355
      28  C23         7.3540   35.5690   59.7190  C.3       1 <0>        -0.1406
      29  C24         7.1450   37.3560   57.9860  C.3       1 <0>        -0.1477
      30  C25         5.8600   37.5300   60.1220  C.3       1 <0>        -0.1407
@<TRIPOS>BOND
     1     1     2 1
     2     2     3 1
     3     3     4 1
     4     3     5 1
     5     5    10 ar
     6     5     6 ar
     7     6     7 ar
     8     7     8 ar
     9     8     9 ar
    10     9    10 ar
    11    10    11 1
    12    11    12 1
    13    12    13 1
    14    12    15 1
    15    13    14 1
    16    15    16 2
    17    15    17 am
    18    17    18 1
    19    18    19 am
    20    19    20 2
    21    19    21 1
    22    21    26 ar
    23    21    22 ar
    24    22    23 ar
    25    23    24 ar
    26    24    25 ar
    27    24    27 1
    28    25    26 ar
    29    27    28 1
    30    27    29 1
    31    27    30 1

@<TRIPOS>MOLECULE
ZINC40282218_replica-1.pdb
 27 29 0 0 0
SMALL
GASTEIGER

@<TRIPOS>ATOM
       1  C1         -2.8930   27.2290   58.3220  C.3       1 <0>        -0.1537
       2  C2         -1.4000   27.5340   58.1800  C.3       1 <0>        -0.1176
       3  C3         -0.8690   26.8930   56.8970  C.3       1 <0>        -0.1089
       4  C4         -0.0370   25.6580   57.2490  C.3       1 <0>        -0.1527
       5  C5          0.0070   27.9000   56.1480  C.3       1 <0>         0.1075
       6  N1         -0.6890   28.3460   54.9380  N.pl3     1 <0>        -0.4757
       7  C6         -0.7180   27.6920   53.7230  C.ar      1 <0>         0.0566
       8  C7         -0.1680   26.5080   53.2490  C.ar      1 <0>        -0.1095
       9  C8         -0.3930   26.1250   51.9440  C.ar      1 <0>        -0.0994
      10  C9         -1.1650   26.9130   51.1030  C.ar      1 <0>        -0.1276
      11  C10        -1.7140   28.0810   51.5520  C.ar      1 <0>        -0.0621
      12  C11        -1.5000   28.4890   52.8710  C.ar      1 <0>         0.0453
      13  N2         -1.8980   29.5670   53.5940  N.2       1 <0>        -0.4822
      14  C12        -1.4290   29.4800   54.8040  C.2       1 <0>         0.2696
      15  C13        -1.6660   30.4890   55.8980  C.3       1 <0>         0.2292
      16  C14        -3.0930   31.0310   55.7900  C.3       1 <0>        -0.1579
      17  N3         -0.7140   31.5930   55.7590  N.am      1 <0>        -0.7162
      18  C15         0.0120   31.9950   56.8220  C.2       1 <0>         0.5695
      19  O1         -0.1260   31.4410   57.8960  O.2       1 <0>        -0.5386
      20  C16         0.9730   33.1060   56.6820  C.ar      1 <0>        -0.1793
      21  C17         2.2420   32.8710   56.1490  C.ar      1 <0>        -0.0422
      22  C18         3.1360   33.9120   56.0200  C.ar      1 <0>        -0.1593
      23  C19         2.7750   35.1930   56.4190  C.ar      1 <0>         0.1580
      24  C20         1.5130   35.4310   56.9500  C.ar      1 <0>        -0.2190
      25  C21         0.6120   34.3970   57.0770  C.ar      1 <0>        -0.0139
      26  O2          3.6590   36.2160   56.2910  O.3       1 <0>        -0.3121
      27  C22         4.8240   35.9700   55.5020  C.3       1 <0>         0.0234
@<TRIPOS>BOND
     1     1     2 1
     2     2     3 1
     3     3     4 1
     4     3     5 1
     5     5     6 1
     6     6    14 1
     7     6     7 1
     8     7    12 ar
     9     7     8 ar
    10     8     9 ar
    11     9    10 ar
    12    10    11 ar
    13    11    12 ar
    14    12    13 1
    15    13    14 2
    16    14    15 1
    17    15    16 1
    18    15    17 1
    19    17    18 am
    20    18    19 2
    21    18    20 1
    22    20    25 ar
    23    20    21 ar
    24    21    22 ar
    25    22    23 ar
    26    23    24 ar
    27    23    26 1
    28    24    25 ar
    29    26    27 1

@<TRIPOS>MOLECULE
ZINC12275378_replica-1.pdb
 27 30 0 0 0
SMALL
GASTEIGER

@<TRIPOS>ATOM
       1  C1          1.2410   32.3230   58.1000  C.ar      1 <0>        -0.0847
       2  C2          2.5390   32.7840   58.2190  C.ar      1 <0>        -0.1179
       3  C3          2.8580   33.7090   59.1960  C.ar      1 <0>        -0.0595
       4  C4          1.8830   34.1630   60.0630  C.ar      1 <0>        -0.1404
       5  C5          0.5820   33.7020   59.9460  C.ar      1 <0>         0.1028
       6  C6          0.2630   32.7800   58.9630  C.ar      1 <0>        -0.1479
       7  F1         -0.3730   34.1500   60.7890  F         1 <0>        -0.1367
       8  C7          4.2710   34.2160   59.3200  C.3       1 <0>         0.0261
       9  C8          5.2270   33.0310   59.4320  C.3       1 <0>        -0.1327
      10  C9          6.6570   33.4610   59.2560  C.2       1 <0>         0.5368
      11  O1          7.5350   32.9750   59.9380  O.2       1 <0>        -0.4575
      12  N1          6.9520   34.4080   58.3130  N.am      1 <0>        -0.5540
      13  C10         5.9130   35.1090   57.7190  C.2       1 <0>         0.1863
      14  C11         4.6140   35.0480   58.1040  C.2       1 <0>        -0.0927
      15  C12         3.5970   35.7490   57.3800  C.1       1 <0>         0.2624
      16  N2          2.7900   36.3060   56.8060  N.1       1 <0>        -0.3966
      17  S1          6.6270   36.0850   56.4260  S.3       1 <0>        -0.0590
      18  C13         8.3930   35.6640   56.6780  C.3       1 <0>        -0.1278
      19  C14         8.3060   34.6980   57.8720  C.3       1 <0>         0.3978
      20  C15         9.0680   35.2950   59.0270  C.ar      1 <0>        -0.1381
      21  C16         8.7120   36.5370   59.5200  C.ar      1 <0>        -0.0616
      22  C17         9.4060   37.0840   60.5830  C.ar      1 <0>        -0.1468
      23  C18        10.4660   36.3920   61.1460  C.ar      1 <0>         0.1140
      24  C19        10.8250   35.1510   60.6470  C.ar      1 <0>        -0.1474
      25  C20        10.1260   34.6040   59.5880  C.ar      1 <0>        -0.0686
      26  F2         11.1490   36.9280   62.1810  F         1 <0>        -0.1336
      27  O2          8.9370   33.4690   57.5080  O.3       1 <0>        -0.5423
@<TRIPOS>BOND
     1     1     6 ar
     2     1     2 ar
     3     2     3 ar
     4     3     4 ar
     5     3     8 1
     6     4     5 ar
     7     5     6 ar
     8     5     7 1
     9     8    14 1
    10     8     9 1
    11     9    10 1
    12    10    11 2
    13    10    12 am
    14    12    19 1
    15    12    13 1
    16    13    14 2
    17    13    17 1
    18    14    15 1
    19    15    16 3
    20    17    18 1
    21    18    19 1
    22    19    20 1
    23    19    27 1
    24    20    25 ar
    25    20    21 ar
    26    21    22 ar
    27    22    23 ar
    28    23    24 ar
    29    23    26 1
    30    24    25 ar

@<TRIPOS>MOLECULE
ZINC02904516_replica-1.pdb
 20 21 0 0 0
SMALL
GASTEIGER

@<TRIPOS>ATOM
       1  C1         12.1610   29.4580   64.3220  C.3       1 <0>         0.0270
       2  O1         13.1840   30.1980   63.6510  O.3       1 <0>        -0.3174
       3  C2         12.8680   31.4550   63.2410  C.ar      1 <0>         0.0922
       4  C3         11.5510   31.7780   62.9490  C.ar      1 <0>        -0.1105
       5  C4         11.2310   33.0560   62.5310  C.ar      1 <0>        -0.1092
       6  C5         12.2250   34.0150   62.4060  C.ar      1 <0>         0.0934
       7  C6         13.5410   33.6900   62.6940  C.ar      1 <0>        -0.1689
       8  C7         13.8620   32.4140   63.1150  C.ar      1 <0>        -0.1688
       9  O2         11.9080   35.2730   61.9960  O.3       1 <0>        -0.3116
      10  C8         10.6940   35.4280   61.2590  C.3       1 <0>         0.0648
      11  C9          9.9870   36.7080   61.7060  C.3       1 <0>        -0.1203
      12  C10         8.7430   36.9320   60.8440  C.3       1 <0>         0.0627
      13  O3          9.0250   37.9180   59.8480  O.3       1 <0>        -0.3082
      14  C11         8.6690   37.6230   58.5700  C.ar      1 <0>         0.1213
      15  C12         8.1550   38.6140   57.7460  C.ar      1 <0>        -0.1217
      16  C13         7.7940   38.3130   56.4470  C.ar      1 <0>        -0.1118
      17  C14         7.9450   37.0230   55.9660  C.ar      1 <0>         0.0606
      18  C15         8.4580   36.0330   56.7870  C.ar      1 <0>        -0.1123
      19  C16         8.8190   36.3310   58.0860  C.ar      1 <0>        -0.1816
      20  F1          7.5910   36.7310   54.6960  F         1 <0>        -0.1395
@<TRIPOS>BOND
     1     1     2 1
     2     2     3 1
     3     3     8 ar
     4     3     4 ar
     5     4     5 ar
     6     5     6 ar
     7     6     7 ar
     8     6     9 1
     9     7     8 ar
    10     9    10 1
    11    10    11 1
    12    11    12 1
    13    12    13 1
    14    13    14 1
    15    14    19 ar
    16    14    15 ar
    17    15    16 ar
    18    16    17 ar
    19    17    18 ar
    20    17    20 1
    21    18    19 ar

@<TRIPOS>MOLECULE
ZINC39837477_replica-1.pdb
 26 28 0 0 0
SMALL
GASTEIGER

@<TRIPOS>ATOM
       1  C1          8.5400   35.3010   56.8030  C.3       1 <0>        -0.1402
       2  C2          7.2920   36.1520   56.5630  C.3       1 <0>        -0.0334
       3  C3          7.1770   37.2110   57.6620  C.3       1 <0>        -0.1402
       4  C4          7.3980   36.8410   55.2010  C.3       1 <0>        -0.1475
       5  C5          6.0700   35.2700   56.5860  C.ar      1 <0>        -0.0503
       6  C6          5.6710   34.6160   55.4340  C.ar      1 <0>        -0.1208
       7  C7          4.5540   33.8070   55.4480  C.ar      1 <0>        -0.0681
       8  C8          3.8250   33.6480   56.6280  C.ar      1 <0>        -0.0178
       9  C9          4.2340   34.3110   57.7870  C.ar      1 <0>        -0.0879
      10  C10         5.3560   35.1140   57.7600  C.ar      1 <0>        -0.1155
      11  C11         2.6270   32.7840   56.6500  C.2       1 <0>         0.2257
      12  N1          2.1710   32.1550   57.7020  N.2       1 <0>        -0.4043
      13  C12         1.0580   31.4620   57.3440  C.2       1 <0>        -0.0495
      14  C13         0.8500   31.7030   55.9930  C.2       1 <0>         0.3377
      15  O1          1.8340   32.5280   55.5920  O.3       1 <0>        -0.2037
      16  N2         -0.1690   31.1980   55.2150  N.pl3     1 <0>        -0.6804
      17  C14        -0.0440   29.8660   54.6180  C.3       1 <0>         0.1184
      18  C15        -1.2190   29.6200   53.6700  C.3       1 <0>        -0.0920
      19  C16        -1.0550   28.2770   53.0050  C.ar      1 <0>        -0.0878
      20  C17        -0.2850   27.2980   53.6060  C.ar      1 <0>        -0.1128
      21  C18        -0.1340   26.0670   52.9960  C.ar      1 <0>        -0.1174
      22  C19        -0.7540   25.8130   51.7880  C.ar      1 <0>        -0.1178
      23  C20        -1.5250   26.7920   51.1880  C.ar      1 <0>        -0.1174
      24  C21        -1.6790   28.0220   51.7990  C.ar      1 <0>        -0.1128
      25  C22         0.2530   30.6410   58.1970  C.1       1 <0>         0.3013
      26  N3         -0.3860   29.9900   58.8740  N.1       1 <0>        -0.4056
@<TRIPOS>BOND
     1     1     2 1
     2     2     3 1
     3     2     4 1
     4     2     5 1
     5     5    10 ar
     6     5     6 ar
     7     6     7 ar
     8     7     8 ar
     9     8     9 ar
    10     8    11 1
    11     9    10 ar
    12    11    15 1
    13    11    12 2
    14    12    13 1
    15    13    14 2
    16    13    25 1
    17    14    15 1
    18    14    16 1
    19    16    17 1
    20    17    18 1
    21    18    19 1
    22    19    24 ar
    23    19    20 ar
    24    20    21 ar
    25    21    22 ar
    26    22    23 ar
    27    23    24 ar
    28    25    26 3

@<TRIPOS>MOLECULE
ZINC37181564_replica-1.pdb
 21 22 0 0 0
SMALL
GASTEIGER

@<TRIPOS>ATOM
       1  C1         14.4140   33.3860   62.9340  C.ar      1 <0>        -0.0965
       2  C2         14.1500   32.1830   63.5650  C.ar      1 <0>        -0.0773
       3  C3         12.8790   31.6410   63.5220  C.ar      1 <0>        -0.1622
       4  C4         11.8680   32.2980   62.8490  C.ar      1 <0>        -0.0499
       5  C5         12.1290   33.5070   62.2140  C.ar      1 <0>        -0.0871
       6  C6         13.4090   34.0490   62.2590  C.ar      1 <0>        -0.1024
       7  S1         10.8430   34.3500   61.3540  S.3       1 <0>        -0.0840
       8  C7         11.0160   36.0750   61.8880  C.3       1 <0>        -0.0976
       9  C8          9.7260   36.8370   61.5750  C.3       1 <0>        -0.0947
      10  S2          8.6100   35.7710   60.6230  S.3       1 <0>        -0.1084
      11  C9          8.3550   36.6550   59.1200  C.ar      1 <0>        -0.1425
      12  C10         7.9700   35.9740   57.9710  C.ar      1 <0>        -0.0798
      13  C11         7.7700   36.6670   56.7940  C.ar      1 <0>        -0.1795
      14  C12         7.9540   38.0430   56.7570  C.ar      1 <0>         0.2163
      15  C13         8.3380   38.7230   57.9050  C.ar      1 <0>        -0.1797
      16  C14         8.5320   38.0320   59.0850  C.ar      1 <0>        -0.0458
      17  N1          7.7510   38.7440   55.5620  N.pl3     1 <0>        -0.8774
      18  C15        12.5950   30.3300   64.2100  C.3       1 <0>         0.5096
      19  F1         13.1580   30.3450   65.4910  F         1 <0>        -0.1746
      20  F2         11.2120   30.1460   64.3100  F         1 <0>        -0.1740
      21  F3         13.1530   29.2830   63.4680  F         1 <0>        -0.1740
@<TRIPOS>BOND
     1     1     6 ar
     2     1     2 ar
     3     2     3 ar
     4     3     4 ar
     5     3    18 1
     6     4     5 ar
     7     5     6 ar
     8     5     7 1
     9     7     8 1
    10     8     9 1
    11     9    10 1
    12    10    11 1
    13    11    16 ar
    14    11    12 ar
    15    12    13 ar
    16    13    14 ar
    17    14    15 ar
    18    14    17 1
    19    15    16 ar
    20    18    19 1
    21    18    20 1
    22    18    21 1

@<TRIPOS>MOLECULE
ZINC06299011_replica-1.pdb
 23 25 0 0 0
SMALL
GASTEIGER

@<TRIPOS>ATOM
       1  C1         -1.5830   26.4880   58.0740  C.ar      1 <0>        -0.1061
       2  C2         -0.2230   26.3540   58.2860  C.ar      1 <0>        -0.1214
       3  C3          0.5950   27.4660   58.2420  C.ar      1 <0>        -0.0970
       4  C4          0.0550   28.7130   57.9870  C.ar      1 <0>        -0.1196
       5  C5         -1.3050   28.8470   57.7800  C.ar      1 <0>        -0.0961
       6  C6         -2.1230   27.7340   57.8190  C.ar      1 <0>        -0.1209
       7  C7          0.9480   29.9270   57.9390  C.3       1 <0>         0.1604
       8  N1          0.8910   30.5230   56.6020  N.pl3     1 <0>        -0.6611
       9  C8          0.2290   31.6810   56.4090  C.2       1 <0>         0.5871
      10  S1          0.2560   32.8940   57.6170  S.2       1 <0>        -0.6131
      11  N2         -0.4530   31.8840   55.2650  N.pl3     1 <0>        -0.5419
      12  N3         -0.4740   30.8920   54.2760  N.2       1 <0>        -0.2878
      13  C9         -1.4810   30.0730   54.1970  C.2       1 <0>         0.1595
      14  C10        -1.5030   29.0320   53.1600  C.ar      1 <0>        -0.0683
      15  C11        -2.1570   29.2460   51.9530  C.ar      1 <0>        -0.0595
      16  C12        -2.1760   28.2600   50.9750  C.ar      1 <0>        -0.1294
      17  C13        -1.5630   27.0590   51.1550  C.ar      1 <0>        -0.0729
      18  C14        -0.8840   26.7720   52.3500  C.ar      1 <0>        -0.0606
      19  C15        -0.8330   27.7510   53.3740  C.ar      1 <0>        -0.0223
      20  C16        -0.1590   27.4680   54.5690  C.ar      1 <0>        -0.1204
      21  C17         0.4470   26.2580   54.7300  C.ar      1 <0>        -0.1073
      22  C18         0.4040   25.2950   53.7230  C.ar      1 <0>        -0.1157
      23  C19        -0.2460   25.5360   52.5510  C.ar      1 <0>        -0.1017
@<TRIPOS>BOND
     1     1     6 ar
     2     1     2 ar
     3     2     3 ar
     4     3     4 ar
     5     4     5 ar
     6     4     7 1
     7     5     6 ar
     8     7     8 1
     9     8     9 1
    10     9    10 2
    11     9    11 1
    12    11    12 1
    13    12    13 2
    14    13    14 1
    15    14    19 ar
    16    14    15 ar
    17    15    16 ar
    18    16    17 ar
    19    17    18 ar
    20    18    23 ar
    21    18    19 ar
    22    19    20 ar
    23    20    21 ar
    24    21    22 ar
    25    22    23 ar

@<TRIPOS>MOLECULE
ZINC12569727_replica-1.pdb
 32 36 0 0 0
SMALL
GASTEIGER

@<TRIPOS>ATOM
       1  C1         14.0980   32.6010   63.4670  C.ar      1 <0>        -0.1227
       2  C2         14.1420   33.7870   62.7590  C.ar      1 <0>        -0.0943
       3  C3         13.0450   34.1980   62.0280  C.ar      1 <0>        -0.1139
       4  C4         11.8960   33.4180   62.0040  C.ar      1 <0>         0.1473
       5  C5         11.8530   32.2290   62.7210  C.ar      1 <0>        -0.1382
       6  C6         12.9560   31.8210   63.4450  C.ar      1 <0>        -0.0917
       7  N1         10.7820   33.8320   61.2630  N.pl3     1 <0>        -0.3061
       8  C7          9.5840   33.2200   61.2580  C.2       1 <0>         0.0940
       9  C8          8.7500   33.9290   60.4130  C.2       1 <0>        -0.2160
      10  C9          9.5490   35.0400   59.8820  C.2       1 <0>         0.1563
      11  N2         10.7450   34.9440   60.4170  N.2       1 <0>        -0.2699
      12  C10         9.0910   36.0770   58.9280  C.ar      1 <0>        -0.0361
      13  C11         8.8240   37.3700   59.3760  C.ar      1 <0>        -0.0558
      14  C12         8.4030   38.3340   58.4840  C.ar      1 <0>        -0.1536
      15  C13         8.2400   38.0170   57.1440  C.ar      1 <0>         0.1151
      16  C14         8.4990   36.7330   56.6960  C.ar      1 <0>        -0.1503
      17  C15         8.9190   35.7610   57.5800  C.ar      1 <0>        -0.0622
      18  F1          7.8280   38.9640   56.2740  F         1 <0>        -0.1343
      19  C16         7.3470   33.6280   60.1050  C.2       1 <0>         0.0559
      20  C17         6.3950   34.5660   60.3050  C.2       1 <0>        -0.2549
      21  C18         5.0400   34.2740   60.0060  C.2       1 <0>         0.5582
      22  O1          4.3210   33.7830   60.8570  O.2       1 <0>        -0.5257
      23  N3          4.5480   34.5410   58.7800  N.am      1 <0>        -0.5501
      24  C19         5.4220   35.0730   57.7250  C.3       1 <0>         0.0987
      25  C20         4.6780   36.2120   57.0240  C.3       1 <0>        -0.1366
      26  C21         3.4220   35.6510   56.3580  C.3       1 <0>        -0.0783
      27  C22         2.6200   34.8410   57.3440  C.ar      1 <0>        -0.1196
      28  C23         3.1950   34.3220   58.4930  C.ar      1 <0>         0.1542
      29  C24         2.4270   33.5750   59.3780  C.ar      1 <0>        -0.1579
      30  C25         1.0900   33.3500   59.1160  C.ar      1 <0>        -0.1044
      31  C26         0.5170   33.8700   57.9690  C.ar      1 <0>        -0.1404
      32  C27         1.2790   34.6120   57.0870  C.ar      1 <0>        -0.1020
@<TRIPOS>BOND
     1     1     6 ar
     2     1     2 ar
     3     2     3 ar
     4     3     4 ar
     5     4     5 ar
     6     4     7 1
     7     5     6 ar
     8     7    11 1
     9     7     8 1
    10     8     9 2
    11     9    10 1
    12     9    19 1
    13    10    11 2
    14    10    12 1
    15    12    17 ar
    16    12    13 ar
    17    13    14 ar
    18    14    15 ar
    19    15    16 ar
    20    15    18 1
    21    16    17 ar
    22    19    20 2
    23    20    21 1
    24    21    22 2
    25    21    23 am
    26    23    28 1
    27    23    24 1
    28    24    25 1
    29    25    26 1
    30    26    27 1
    31    27    32 ar
    32    27    28 ar
    33    28    29 ar
    34    29    30 ar
    35    30    31 ar
    36    31    32 ar

@<TRIPOS>MOLECULE
ZINC04915479_replica-1.pdb
 27 30 0 0 0
SMALL
GASTEIGER

@<TRIPOS>ATOM
       1  C1          0.6180   34.8910   57.9710  C.3       1 <0>         0.0268
       2  O1          1.5430   35.7100   58.6910  O.3       1 <0>        -0.3170
       3  C2          2.7780   35.8690   58.1470  C.ar      1 <0>         0.1280
       4  C3          2.9220   35.9840   56.7720  C.ar      1 <0>        -0.1485
       5  C4          4.1790   36.1450   56.2210  C.ar      1 <0>        -0.0632
       6  C5          5.2930   36.1910   57.0390  C.ar      1 <0>        -0.1165
       7  C6          5.1520   36.0700   58.4100  C.ar      1 <0>        -0.0838
       8  C7          3.8980   35.9150   58.9660  C.ar      1 <0>        -0.2043
       9  C8          6.6630   36.3660   56.4360  C.3       1 <0>         0.0126
      10  C9          6.8510   35.3610   55.2990  C.3       1 <0>        -0.1364
      11  C10         6.9990   33.9790   55.8800  C.2       1 <0>         0.5253
      12  O2          6.5650   33.0190   55.2800  O.2       1 <0>        -0.5030
      13  N1          7.6130   33.8070   57.0640  N.am      1 <0>        -0.6610
      14  C11         8.1360   34.8720   57.7540  C.2       1 <0>         0.2179
      15  C12         7.7140   36.1270   57.4950  C.2       1 <0>        -0.2666
      16  C13         8.2310   37.2320   58.1920  C.2       1 <0>         0.4066
      17  O3          7.8370   38.3480   57.9210  O.2       1 <0>        -0.4599
      18  C14         9.2670   37.0520   59.2700  C.3       1 <0>        -0.1527
      19  C15         9.0910   35.6690   59.9060  C.3       1 <0>        -0.0349
      20  C16         9.1890   34.6110   58.8010  C.3       1 <0>        -0.0946
      21  C17        10.1750   35.4400   60.9270  C.ar      1 <0>        -0.0944
      22  C18        10.7240   34.1810   61.0820  C.ar      1 <0>        -0.0840
      23  C19        11.7210   33.9710   62.0150  C.ar      1 <0>        -0.1501
      24  C20        12.1650   35.0200   62.8020  C.ar      1 <0>         0.1009
      25  C21        11.6110   36.2800   62.6510  C.ar      1 <0>        -0.1506
      26  C22        10.6170   36.4890   61.7130  C.ar      1 <0>        -0.0798
      27  F1         13.1360   34.8140   63.7180  F         1 <0>        -0.1379
@<TRIPOS>BOND
     1     1     2 1
     2     2     3 1
     3     3     8 ar
     4     3     4 ar
     5     4     5 ar
     6     5     6 ar
     7     6     7 ar
     8     6     9 1
     9     7     8 ar
    10     9    15 1
    11     9    10 1
    12    10    11 1
    13    11    12 2
    14    11    13 am
    15    13    14 1
    16    14    20 1
    17    14    15 2
    18    15    16 1
    19    16    17 2
    20    16    18 1
    21    18    19 1
    22    19    20 1
    23    19    21 1
    24    21    26 ar
    25    21    22 ar
    26    22    23 ar
    27    23    24 ar
    28    24    25 ar
    29    24    27 1
    30    25    26 ar

@<TRIPOS>MOLECULE
ZINC59324322_replica-1.pdb
 25 27 0 0 0
SMALL
GASTEIGER

@<TRIPOS>ATOM
       1  C1         -0.3850   33.8660   62.0200  C.3       1 <0>        -0.1476
       2  C2          0.4330   32.5760   62.1100  C.3       1 <0>        -0.1049
       3  C3          1.5330   32.5950   61.0470  C.3       1 <0>        -0.1608
       4  S1          0.7820   32.5010   59.3980  S.3       1 <0>        -0.0039
       5  C4          1.4060   33.9220   58.5640  C.ar      1 <0>        -0.0411
       6  C5          1.7920   35.0440   59.2890  C.ar      1 <0>        -0.1456
       7  C6          2.2800   36.1560   58.6330  C.ar      1 <0>        -0.0701
       8  C7          2.3900   36.1640   57.2520  C.ar      1 <0>        -0.1382
       9  C8          2.0130   35.0620   56.5160  C.ar      1 <0>        -0.0650
      10  C9          1.5220   33.9250   57.1650  C.ar      1 <0>        -0.1323
      11  C10         1.1230   32.7410   56.3840  C.2       1 <0>         0.5526
      12  O1          1.9230   31.8470   56.1850  O.2       1 <0>        -0.5075
      13  N1         -0.1270   32.6470   55.8920  N.am      1 <0>        -0.7272
      14  C11        -0.5240   31.4690   55.1160  C.3       1 <0>         0.1256
      15  C12        -1.1550   30.4330   56.0480  C.3       1 <0>        -0.0524
      16  C13        -0.4700   29.1040   55.8580  C.2       1 <0>        -0.1736
      17  C14         0.2970   28.4670   56.7560  C.2       1 <0>         0.0623
      18  N2          0.7470   27.2860   56.2300  N.pl3     1 <0>        -0.5945
      19  C15         0.2660   27.1310   54.9490  C.ar      1 <0>         0.0906
      20  C16        -0.5230   28.2610   54.6620  C.ar      1 <0>        -0.0953
      21  C17        -1.1500   28.3760   53.4200  C.ar      1 <0>        -0.0726
      22  C18        -0.9970   27.3870   52.4890  C.ar      1 <0>        -0.1106
      23  C19        -0.2230   26.2690   52.7680  C.ar      1 <0>        -0.0967
      24  C20         0.4130   26.1400   53.9830  C.ar      1 <0>        -0.1263
      25  C21        -1.6750   27.5110   51.1490  C.3       1 <0>        -0.1109
@<TRIPOS>BOND
     1     1     2 1
     2     2     3 1
     3     3     4 1
     4     4     5 1
     5     5    10 ar
     6     5     6 ar
     7     6     7 ar
     8     7     8 ar
     9     8     9 ar
    10     9    10 ar
    11    10    11 1
    12    11    12 2
    13    11    13 am
    14    13    14 1
    15    14    15 1
    16    15    16 1
    17    16    20 1
    18    16    17 2
    19    17    18 1
    20    18    19 1
    21    19    24 ar
    22    19    20 ar
    23    20    21 ar
    24    21    22 ar
    25    22    23 ar
    26    22    25 1
    27    23    24 ar

@<TRIPOS>MOLECULE
ZINC04084880_replica-1.pdb
 25 27 0 0 0
SMALL
GASTEIGER

@<TRIPOS>ATOM
       1  C1         12.4060   34.3410   61.6570  C.3       1 <0>        -0.1444
       2  C2         11.2250   35.2080   62.0950  C.3       1 <0>        -0.0577
       3  C3         11.7440   36.4410   62.8390  C.3       1 <0>        -0.1433
       4  C4         10.4450   35.6460   60.8810  C.ar      1 <0>        -0.0753
       5  C5          9.8790   36.9070   60.8410  C.ar      1 <0>        -0.1193
       6  C6          9.1650   37.3070   59.7270  C.ar      1 <0>        -0.0944
       7  C7          9.0170   36.4490   58.6540  C.ar      1 <0>        -0.0578
       8  C8          9.5790   35.1870   58.6970  C.ar      1 <0>        -0.1067
       9  C9         10.2970   34.7870   59.8080  C.ar      1 <0>        -0.1147
      10  C10         8.2380   36.8860   57.4400  C.3       1 <0>        -0.0944
      11  C11         7.5960   35.7930   56.5830  C.3       1 <0>        -0.1540
      12  C12         6.7220   36.6850   57.4660  C.3       1 <0>        -0.1005
      13  C13         6.1220   36.0680   58.7020  C.2       1 <0>         0.1650
      14  N1          5.9960   34.7970   58.7860  N.2       1 <0>        -0.3316
      15  O1          5.4330   34.2170   59.9470  O.3       1 <0>        -0.2335
      16  C14         4.3140   33.3670   59.6880  C.3       1 <0>         0.0813
      17  C15         3.0470   34.2150   59.5560  C.3       1 <0>         0.0638
      18  O2          2.3890   33.9010   58.3280  O.3       1 <0>        -0.3080
      19  C16         2.9200   34.4250   57.1920  C.ar      1 <0>         0.1300
      20  C17         2.9690   35.8000   57.0190  C.ar      1 <0>        -0.2114
      21  C18         3.5140   36.3300   55.8650  C.ar      1 <0>        -0.0798
      22  C19         3.9990   35.4910   54.8790  C.ar      1 <0>        -0.1596
      23  C20         3.9450   34.1200   55.0470  C.ar      1 <0>        -0.0799
      24  C21         3.4070   33.5850   56.2010  C.ar      1 <0>        -0.1526
      25  C22         5.6700   36.9470   59.8390  C.3       1 <0>        -0.1458
@<TRIPOS>BOND
     1     1     2 1
     2     2     3 1
     3     2     4 1
     4     4     9 ar
     5     4     5 ar
     6     5     6 ar
     7     6     7 ar
     8     7     8 ar
     9     7    10 1
    10     8     9 ar
    11    10    12 1
    12    10    11 1
    13    11    12 1
    14    12    13 1
    15    13    14 2
    16    13    25 1
    17    14    15 1
    18    15    16 1
    19    16    17 1
    20    17    18 1
    21    18    19 1
    22    19    24 ar
    23    19    20 ar
    24    20    21 ar
    25    21    22 ar
    26    22    23 ar
    27    23    24 ar

@<TRIPOS>MOLECULE
ZINC66696617_replica-1.pdb
 24 26 0 0 0
SMALL
GASTEIGER

@<TRIPOS>ATOM
       1  C1         -0.8970   25.8650   51.6520  C.ar      1 <0>        -0.1781
       2  C2         -0.2070   25.8930   52.8500  C.ar      1 <0>        -0.0713
       3  C3         -0.1800   27.0480   53.6070  C.ar      1 <0>        -0.1917
       4  C4         -0.8470   28.1830   53.1640  C.ar      1 <0>         0.2159
       5  C5         -1.5390   28.1520   51.9590  C.ar      1 <0>        -0.2011
       6  C6         -1.5620   26.9930   51.2080  C.ar      1 <0>        -0.0724
       7  N1         -0.8210   29.3530   53.9260  N.pl3     1 <0>        -0.7382
       8  C7          0.1020   29.4680   55.0590  C.3       1 <0>         0.1078
       9  C8          0.3240   30.9230   55.3790  C.2       1 <0>         0.5163
      10  O1         -0.4900   31.7520   55.0300  O.2       1 <0>        -0.5218
      11  N2          1.4260   31.3040   56.0540  N.am      1 <0>        -0.7228
      12  C9          1.6420   32.7200   56.3660  C.3       1 <0>         0.2808
      13  C10         3.0990   33.0570   56.1860  C.ar      1 <0>        -0.1075
      14  C11         3.4750   34.0500   55.3000  C.ar      1 <0>        -0.0786
      15  C12         4.8110   34.3610   55.1350  C.ar      1 <0>        -0.1471
      16  C13         5.7750   33.6790   55.8570  C.ar      1 <0>         0.1079
      17  C14         5.3980   32.6840   56.7450  C.ar      1 <0>        -0.1480
      18  C15         4.0610   32.3790   56.9120  C.ar      1 <0>        -0.0687
      19  F1          7.0810   33.9810   55.6960  F         1 <0>        -0.1353
      20  C16         1.2370   32.9860   57.7930  C.2       1 <0>        -0.1582
      21  C17         0.9610   32.1000   58.7810  C.2       1 <0>        -0.1371
      22  C18         0.6060   32.5780   60.0290  C.2       1 <0>        -0.1563
      23  C19         0.5420   33.9180   60.2270  C.2       1 <0>        -0.1685
      24  S1          1.0010   34.5500   58.6210  S.3       1 <0>         0.0437
@<TRIPOS>BOND
     1     1     6 ar
     2     1     2 ar
     3     2     3 ar
     4     3     4 ar
     5     4     5 ar
     6     4     7 1
     7     5     6 ar
     8     7     8 1
     9     8     9 1
    10     9    10 2
    11     9    11 am
    12    11    12 1
    13    12    13 1
    14    12    20 1
    15    13    18 ar
    16    13    14 ar
    17    14    15 ar
    18    15    16 ar
    19    16    17 ar
    20    16    19 1
    21    17    18 ar
    22    20    24 1
    23    20    21 2
    24    21    22 1
    25    22    23 2
    26    23    24 1

@<TRIPOS>MOLECULE
ZINC10316276_replica-1.pdb
 22 23 0 0 0
SMALL
GASTEIGER

@<TRIPOS>ATOM
       1  C1          4.5640   35.7740   58.4910  C.3       1 <0>        -0.1855
       2  C2          3.2050   35.4670   57.8550  C.3       1 <0>         0.1186
       3  C3          3.1380   36.1000   56.4640  C.3       1 <0>        -0.1425
       4  C4          2.0910   36.0420   58.7310  C.3       1 <0>        -0.1855
       5  O1          3.0380   34.0300   57.7420  O.3       1 <0>        -0.3403
       6  C5          2.2170   33.5850   56.7760  C.2       1 <0>         0.4894
       7  O2          2.6770   33.1180   55.7610  O.2       1 <0>        -0.4855
       8  C6          0.7240   33.6690   56.9580  C.3       1 <0>        -0.1384
       9  S1          0.1310   32.1710   57.7910  S.3       1 <0>         0.1339
      10  C7         -0.5830   31.2160   56.4930  C.2       1 <0>         0.0284
      11  N1         -1.6350   30.4190   56.5220  N.2       1 <0>        -0.2780
      12  N2         -2.0290   29.7660   55.3770  N.2       1 <0>        -0.3535
      13  C8         -1.3480   29.9290   54.2600  C.2       1 <0>         0.3338
      14  S2         -0.0770   31.0690   54.7860  S.3       1 <0>         0.0390
      15  N3         -1.5650   29.3700   53.0070  N.pl3     1 <0>        -0.5981
      16  C9         -1.1700   28.0530   52.7500  C.ar      1 <0>         0.1306
      17  C10        -0.3830   27.3720   53.6690  C.ar      1 <0>        -0.1313
      18  C11         0.0070   26.0720   53.4130  C.ar      1 <0>        -0.0942
      19  C12        -0.3870   25.4470   52.2440  C.ar      1 <0>        -0.1132
      20  C13        -1.1700   26.1210   51.3260  C.ar      1 <0>        -0.1230
      21  C14        -1.5640   27.4230   51.5740  C.ar      1 <0>         0.0616
      22  F1         -2.3280   28.0830   50.6770  F         1 <0>        -0.1381
@<TRIPOS>BOND
     1     1     2 1
     2     2     3 1
     3     2     4 1
     4     2     5 1
     5     5     6 1
     6     6     7 2
     7     6     8 1
     8     8     9 1
     9     9    10 1
    10    10    14 1
    11    10    11 2
    12    11    12 1
    13    12    13 2
    14    13    14 1
    15    13    15 1
    16    15    16 1
    17    16    21 ar
    18    16    17 ar
    19    17    18 ar
    20    18    19 ar
    21    19    20 ar
    22    20    21 ar
    23    21    22 1

@<TRIPOS>MOLECULE
ZINC57693979_replica-1.pdb
 22 23 0 0 0
SMALL
GASTEIGER

@<TRIPOS>ATOM
       1  C1         -2.4150   30.0790   52.8710  C.3       1 <0>        -0.1120
       2  C2         -1.7440   28.7510   52.6310  C.ar      1 <0>        -0.0968
       3  C3         -1.9190   28.0950   51.4280  C.ar      1 <0>        -0.1159
       4  C4         -1.3040   26.8770   51.2070  C.ar      1 <0>        -0.1147
       5  C5         -0.5100   26.3130   52.1880  C.ar      1 <0>        -0.1160
       6  C6         -0.3310   26.9640   53.3930  C.ar      1 <0>        -0.0971
       7  C7         -0.9430   28.1890   53.6150  C.ar      1 <0>         0.0894
       8  O1         -0.7650   28.8350   54.7980  O.3       1 <0>        -0.3257
       9  C8          0.2830   29.8040   54.8560  C.3       1 <0>         0.0594
      10  C9         -0.1730   30.9980   55.6970  C.3       1 <0>        -0.1079
      11  C10         0.5110   30.9490   57.0650  C.3       1 <0>         0.0577
      12  C11        -0.2830   30.1150   57.9810  C.1       1 <0>         0.2044
      13  N1         -0.8960   29.4720   58.6890  N.1       1 <0>        -0.4150
      14  C12         0.6190   32.3450   57.6230  C.ar      1 <0>        -0.0494
      15  C13         0.6320   33.4330   56.7680  C.ar      1 <0>        -0.1416
      16  C14         0.7300   34.7140   57.2760  C.ar      1 <0>        -0.0749
      17  C15         0.8170   34.9120   58.6410  C.ar      1 <0>        -0.2006
      18  C16         0.8050   33.8230   59.5000  C.ar      1 <0>         0.1301
      19  C17         0.7000   32.5380   58.9880  C.ar      1 <0>        -0.1351
      20  O2          0.8910   34.0150   60.8440  O.3       1 <0>        -0.3159
      21  C18        -0.3140   33.8710   61.5970  C.3       1 <0>         0.0261
      22  C19         0.5330   26.3480   54.4630  C.3       1 <0>        -0.1119
@<TRIPOS>BOND
     1     1     2 1
     2     2     7 ar
     3     2     3 ar
     4     3     4 ar
     5     4     5 ar
     6     5     6 ar
     7     6     7 ar
     8     6    22 1
     9     7     8 1
    10     8     9 1
    11     9    10 1
    12    10    11 1
    13    11    12 1
    14    11    14 1
    15    12    13 3
    16    14    19 ar
    17    14    15 ar
    18    15    16 ar
    19    16    17 ar
    20    17    18 ar
    21    18    19 ar
    22    18    20 1
    23    20    21 1

@<TRIPOS>MOLECULE
ZINC02281173_replica-1.pdb
 27 30 0 0 0
SMALL
GASTEIGER

@<TRIPOS>ATOM
       1  C1         -1.3870   27.5560   51.1440  C.ar      1 <0>        -0.1236
       2  C2         -1.9960   28.6440   51.7630  C.ar      1 <0>        -0.0924
       3  C3         -1.8360   28.8720   53.0980  C.ar      1 <0>        -0.1269
       4  C4         -1.0490   28.0000   53.8570  C.ar      1 <0>        -0.0049
       5  C5         -0.4270   26.8930   53.2320  C.ar      1 <0>        -0.0678
       6  C6         -0.6140   26.6890   51.8540  C.ar      1 <0>        -0.0900
       7  C7          0.3630   26.0200   53.9990  C.ar      1 <0>        -0.0544
       8  C8          0.5370   26.2280   55.3350  C.ar      1 <0>        -0.1346
       9  C9         -0.0550   27.2940   55.9930  C.ar      1 <0>         0.0026
      10  C10        -0.8500   28.2060   55.2940  C.ar      1 <0>        -0.1387
      11  C11        -1.4530   29.3000   55.9610  C.2       1 <0>         0.1559
      12  C12        -0.7120   30.0670   56.8420  C.2       1 <0>        -0.2962
      13  C13        -0.6660   29.7560   58.2840  C.2       1 <0>         0.5615
      14  O1         -1.2820   28.8110   58.7400  O.2       1 <0>        -0.4648
      15  N1          0.0810   30.5460   59.0830  N.am      1 <0>        -0.6159
      16  C14         0.7610   31.5930   58.5940  C.2       1 <0>         0.5305
      17  S1          1.6770   32.5440   59.6840  S.2       1 <0>        -0.4812
      18  N2          0.7610   31.9370   57.2990  N.am      1 <0>        -0.4721
      19  C15         0.0630   31.2360   56.3820  C.2       1 <0>         0.5542
      20  O2          0.0710   31.5580   55.2100  O.2       1 <0>        -0.4391
      21  C16         1.5050   33.0510   56.8870  C.ar      1 <0>         0.1059
      22  C17         0.9710   34.3270   57.0090  C.ar      1 <0>        -0.0510
      23  C18         1.7070   35.4240   56.6080  C.ar      1 <0>        -0.1413
      24  C19         2.9730   35.2510   56.0720  C.ar      1 <0>         0.1249
      25  C20         3.5050   33.9800   55.9450  C.ar      1 <0>        -0.1411
      26  C21         2.7740   32.8810   56.3510  C.ar      1 <0>        -0.0502
      27  F1          3.6890   36.3260   55.6740  F         1 <0>        -0.1310
@<TRIPOS>BOND
     1     1     6 ar
     2     1     2 ar
     3     2     3 ar
     4     3     4 ar
     5     4    10 ar
     6     4     5 ar
     7     5     6 ar
     8     5     7 ar
     9     7     8 ar
    10     8     9 ar
    11     9    10 ar
    12    10    11 1
    13    11    12 2
    14    12    19 1
    15    12    13 1
    16    13    14 2
    17    13    15 am
    18    15    16 1
    19    16    17 2
    20    16    18 1
    21    18    19 am
    22    18    21 1
    23    19    20 2
    24    21    26 ar
    25    21    22 ar
    26    22    23 ar
    27    23    24 ar
    28    24    25 ar
    29    24    27 1
    30    25    26 ar

@<TRIPOS>MOLECULE
ZINC11952086_replica-1.pdb
 25 27 0 0 0
SMALL
GASTEIGER

@<TRIPOS>ATOM
       1  C1          0.6480   33.0230   56.8240  C.3       1 <0>        -0.1078
       2  C2          0.6690   33.1560   58.3250  C.ar      1 <0>        -0.0913
       3  C3          0.5890   34.4060   58.9090  C.ar      1 <0>        -0.1162
       4  C4          0.6080   34.5290   60.2860  C.ar      1 <0>        -0.1146
       5  C5          0.7060   33.4030   61.0820  C.ar      1 <0>        -0.1166
       6  C6          0.7850   32.1510   60.5030  C.ar      1 <0>        -0.1013
       7  C7          0.7610   32.0240   59.1220  C.ar      1 <0>         0.0883
       8  O1          0.8320   30.7930   58.5500  O.3       1 <0>        -0.3222
       9  C8         -0.3960   30.0810   58.3870  C.3       1 <0>         0.0673
      10  C9         -0.1460   28.8130   57.5680  C.3       1 <0>         0.0613
      11  O2          0.3240   29.1710   56.2680  O.3       1 <0>        -0.2903
      12  C10         0.1120   28.2770   55.2690  C.ar      1 <0>         0.1755
      13  C11         0.6220   26.9840   55.3760  C.ar      1 <0>        -0.1957
      14  C12         0.4350   26.0580   54.3990  C.ar      1 <0>        -0.0499
      15  C13        -0.2880   26.3750   53.2350  C.ar      1 <0>        -0.0865
      16  C14        -0.4880   25.4250   52.2200  C.ar      1 <0>        -0.0891
      17  C15        -1.1930   25.7670   51.1060  C.ar      1 <0>        -0.1309
      18  C16        -1.7210   27.0470   50.9570  C.ar      1 <0>        -0.0970
      19  C17        -1.5450   27.9940   51.9220  C.ar      1 <0>        -0.1192
      20  C18        -0.8250   27.6760   53.0800  C.ar      1 <0>         0.0087
      21  C19        -0.6190   28.6580   54.1430  C.ar      1 <0>        -0.1455
      22  C20        -1.1640   30.0180   54.0260  C.2       1 <0>         0.1601
      23  N1         -2.2770   30.3240   54.6170  N.2       1 <0>        -0.3147
      24  O3         -2.9050   29.3860   55.4720  O.3       1 <0>        -0.4002
      25  C21         0.8920   30.9240   61.3710  C.3       1 <0>        -0.1120
@<TRIPOS>BOND
     1     1     2 1
     2     2     7 ar
     3     2     3 ar
     4     3     4 ar
     5     4     5 ar
     6     5     6 ar
     7     6     7 ar
     8     6    25 1
     9     7     8 1
    10     8     9 1
    11     9    10 1
    12    10    11 1
    13    11    12 1
    14    12    21 ar
    15    12    13 ar
    16    13    14 ar
    17    14    15 ar
    18    15    20 ar
    19    15    16 ar
    20    16    17 ar
    21    17    18 ar
    22    18    19 ar
    23    19    20 ar
    24    20    21 ar
    25    21    22 1
    26    22    23 2
    27    23    24 1

@<TRIPOS>MOLECULE
ZINC59020438_replica-1.pdb
 25 27 0 0 0
SMALL
GASTEIGER

@<TRIPOS>ATOM
       1  C1         -0.0650   33.5410   62.2650  C.3       1 <0>        -0.1473
       2  C2          0.9650   32.6380   61.5820  C.3       1 <0>        -0.0599
       3  C3          1.0790   33.0170   60.1280  C.2       1 <0>         0.1350
       4  N1          0.3020   32.4590   59.2500  N.2       1 <0>        -0.1933
       5  N2          0.2860   32.9300   57.9300  N.pl3     1 <0>        -0.5533
       6  C4         -0.0790   32.0840   56.8990  C.2       1 <0>         0.5577
       7  N3         -0.4380   30.8220   57.0230  N.2       1 <0>        -0.5210
       8  C5         -0.7230   30.3160   55.8180  C.2       1 <0>         0.2276
       9  N4         -0.5490   31.2480   54.9110  N.2       1 <0>        -0.3203
      10  N5         -0.1370   32.4070   55.5900  N.pl3     1 <0>        -0.5056
      11  S1         -1.2470   28.6640   55.5000  S.3       1 <0>         0.0385
      12  C6          0.1680   27.9100   54.6520  C.3       1 <0>        -0.0752
      13  C7         -0.3180   27.1450   53.4470  C.ar      1 <0>        -0.0828
      14  C8         -1.0250   27.7960   52.4540  C.ar      1 <0>        -0.0939
      15  C9         -1.4720   27.0950   51.3500  C.ar      1 <0>        -0.1261
      16  C10        -1.2100   25.7420   51.2390  C.ar      1 <0>        -0.1057
      17  C11        -0.5020   25.0900   52.2310  C.ar      1 <0>        -0.1217
      18  C12        -0.0520   25.7940   53.3350  C.ar      1 <0>        -0.0618
      19  C13         0.7240   25.0850   54.4140  C.3       1 <0>        -0.1259
      20  C14         2.0710   34.0200   59.7030  C.ar      1 <0>        -0.0978
      21  C15         1.6510   35.2500   59.1900  C.ar      1 <0>        -0.0874
      22  C16         2.5840   36.1840   58.7940  C.ar      1 <0>        -0.1136
      23  C17         3.9360   35.9060   58.9040  C.ar      1 <0>        -0.1049
      24  C18         4.3610   34.6900   59.4100  C.ar      1 <0>        -0.1138
      25  C19         3.4370   33.7480   59.8160  C.ar      1 <0>        -0.1233
@<TRIPOS>BOND
     1     1     2 1
     2     2     3 1
     3     3     4 2
     4     3    20 1
     5     4     5 1
     6     5     6 1
     7     6    10 1
     8     6     7 2
     9     7     8 1
    10     8     9 2
    11     8    11 1
    12     9    10 1
    13    11    12 1
    14    12    13 1
    15    13    18 ar
    16    13    14 ar
    17    14    15 ar
    18    15    16 ar
    19    16    17 ar
    20    17    18 ar
    21    18    19 1
    22    20    25 ar
    23    20    21 ar
    24    21    22 ar
    25    22    23 ar
    26    23    24 ar
    27    24    25 ar

@<TRIPOS>MOLECULE
ZINC40025638_replica-1.pdb
 24 25 0 0 0
SMALL
GASTEIGER

@<TRIPOS>ATOM
       1  C1          1.8990   32.3460   56.1840  C.3       1 <0>        -0.1551
       2  C2          1.0550   32.9630   57.3010  C.3       1 <0>        -0.0183
       3  C3          0.7250   34.4160   56.9470  C.3       1 <0>        -0.1556
       4  C4         -0.2440   32.1700   57.4570  C.3       1 <0>        -0.1333
       5  C5          0.0240   30.7100   57.1910  C.2       1 <0>         0.5197
       6  O1          0.8020   30.1000   57.8930  O.2       1 <0>        -0.5075
       7  N1         -0.6020   30.0850   56.1750  N.am      1 <0>        -0.7363
       8  C6         -0.3410   28.6660   55.9170  C.3       1 <0>         0.2744
       9  C7         -0.6900   28.3440   54.4860  C.ar      1 <0>        -0.0981
      10  C8         -1.4980   29.2010   53.7620  C.ar      1 <0>        -0.0779
      11  C9         -1.8180   28.9060   52.4510  C.ar      1 <0>        -0.1478
      12  C10        -1.3280   27.7530   51.8620  C.ar      1 <0>         0.1010
      13  C11        -0.5190   26.8970   52.5870  C.ar      1 <0>        -0.1495
      14  C12        -0.1960   27.1960   53.8970  C.ar      1 <0>        -0.0708
      15  F1         -1.6410   27.4650   50.5790  F         1 <0>        -0.1393
      16  C13        -1.1830   27.8250   56.8410  C.2       1 <0>        -0.1436
      17  C14        -2.4610   28.0200   57.2460  C.2       1 <0>        -0.1460
      18  C15        -3.0380   27.1060   58.1070  C.2       1 <0>        -0.1532
      19  C16        -2.3080   26.0410   58.5220  C.2       1 <0>        -0.1784
      20  S1         -0.7570   26.3080   57.6810  S.3       1 <0>         0.0450
      21  C17         1.8380   32.9230   58.6140  C.3       1 <0>        -0.1761
      22  C18         0.9090   33.2130   59.7640  C.2       1 <0>         0.4943
      23  O2          0.4950   32.2990   60.4590  O.co2     1 <0>        -0.6810
      24  O3          0.5690   34.3600   60.0000  O.co2     1 <0>        -0.7101
@<TRIPOS>BOND
     1     1     2 1
     2     2     3 1
     3     2     4 1
     4     2    21 1
     5     4     5 1
     6     5     6 2
     7     5     7 am
     8     7     8 1
     9     8     9 1
    10     8    16 1
    11     9    14 ar
    12     9    10 ar
    13    10    11 ar
    14    11    12 ar
    15    12    13 ar
    16    12    15 1
    17    13    14 ar
    18    16    20 1
    19    16    17 2
    20    17    18 1
    21    18    19 2
    22    19    20 1
    23    21    22 1
    24    22    23 2
    25    22    24 1

@<TRIPOS>MOLECULE
ZINC07654603_replica-1.pdb
 27 29 0 0 0
SMALL
GASTEIGER

@<TRIPOS>ATOM
       1  C1          8.5490   38.6760   57.1690  C.3       1 <0>        -0.1164
       2  C2          7.9850   37.3440   56.7480  C.ar      1 <0>        -0.1035
       3  C3          7.9170   36.3040   57.6570  C.ar      1 <0>        -0.0913
       4  C4          7.4010   35.0820   57.2750  C.ar      1 <0>        -0.1303
       5  C5          6.9490   34.8970   55.9750  C.ar      1 <0>         0.1553
       6  C6          7.0230   35.9420   55.0610  C.ar      1 <0>        -0.1438
       7  C7          7.5350   37.1630   55.4520  C.ar      1 <0>        -0.0947
       8  N1          6.4260   33.6610   55.5840  N.pl3     1 <0>        -0.6184
       9  C8          5.2270   33.2110   56.1250  C.2       1 <0>         0.3412
      10  N2          5.0080   32.2060   56.9510  N.2       1 <0>        -0.3592
      11  N3          3.7270   31.9290   57.3690  N.2       1 <0>        -0.2801
      12  C9          2.7230   32.6720   56.9410  C.2       1 <0>         0.0267
      13  S1          3.5710   33.8350   55.8840  S.3       1 <0>         0.0135
      14  S2          1.0050   32.5430   57.3090  S.3       1 <0>         0.1279
      15  C10         0.5930   30.8260   56.8930  C.3       1 <0>        -0.1620
      16  C11         0.0040   30.7720   55.5080  C.2       1 <0>         0.5404
      17  O1         -0.0910   31.7860   54.8490  O.2       1 <0>        -0.5238
      18  N4         -0.4250   29.5980   55.0030  N.am      1 <0>        -0.7308
      19  C12        -1.0030   29.5460   53.6580  C.3       1 <0>         0.1894
      20  C13        -2.4930   29.8900   53.7310  C.3       1 <0>        -0.1607
      21  C14        -0.8350   28.1600   53.0920  C.ar      1 <0>        -0.1037
      22  C15        -1.4080   27.8350   51.8780  C.ar      1 <0>        -0.0861
      23  C16        -1.2500   26.5650   51.3560  C.ar      1 <0>        -0.1481
      24  C17        -0.5250   25.6150   52.0560  C.ar      1 <0>         0.1014
      25  C18         0.0430   25.9400   53.2760  C.ar      1 <0>        -0.1477
      26  C19        -0.1120   27.2120   53.7930  C.ar      1 <0>        -0.0766
      27  F1         -0.3760   24.3710   51.5490  F         1 <0>        -0.1372
@<TRIPOS>BOND
     1     1     2 1
     2     2     7 ar
     3     2     3 ar
     4     3     4 ar
     5     4     5 ar
     6     5     6 ar
     7     5     8 1
     8     6     7 ar
     9     8     9 1
    10     9    13 1
    11     9    10 2
    12    10    11 1
    13    11    12 2
    14    12    13 1
    15    12    14 1
    16    14    15 1
    17    15    16 1
    18    16    17 2
    19    16    18 am
    20    18    19 1
    21    19    20 1
    22    19    21 1
    23    21    26 ar
    24    21    22 ar
    25    22    23 ar
    26    23    24 ar
    27    24    25 ar
    28    24    27 1
    29    25    26 ar

@<TRIPOS>MOLECULE
ZINC25158404_replica-1.pdb
 26 27 0 0 0
SMALL
GASTEIGER

@<TRIPOS>ATOM
       1  C1          0.5950   27.1600   57.9380  C.3       1 <0>        -0.1638
       2  C2         -0.0920   28.5250   57.8500  C.3       1 <0>         0.1437
       3  C3          0.8340   29.5880   58.3830  C.2       1 <0>         0.5148
       4  O1          2.0000   29.3290   58.5920  O.2       1 <0>        -0.5223
       5  N1          0.3650   30.8280   58.6280  N.am      1 <0>        -0.7173
       6  C4          1.2650   31.8620   59.1460  C.3       1 <0>         0.1918
       7  C5          0.6790   32.4540   60.4020  C.ar      1 <0>        -0.0908
       8  C6          0.5040   31.6630   61.5230  C.ar      1 <0>        -0.1161
       9  C7         -0.0350   32.2060   62.6740  C.ar      1 <0>        -0.1144
      10  C8         -0.3980   33.5390   62.7060  C.ar      1 <0>        -0.1172
      11  C9         -0.2220   34.3310   61.5850  C.ar      1 <0>        -0.1148
      12  C10         0.3210   33.7880   60.4350  C.ar      1 <0>        -0.1049
      13  C11         1.4380   32.9610   58.0960  C.3       1 <0>        -0.0999
      14  C12         2.8490   32.8890   57.5100  C.3       1 <0>        -0.1470
      15  C13         0.4120   32.7650   56.9790  C.3       1 <0>        -0.1402
      16  N2         -0.4180   28.8170   56.4520  N.am      1 <0>        -0.6929
      17  C14        -1.7020   28.8010   56.0420  C.2       1 <0>         0.6539
      18  O2         -2.5880   28.5430   56.8310  O.2       1 <0>        -0.5703
      19  O3         -2.0010   29.0700   54.7570  O.3       1 <0>        -0.3561
      20  C15        -0.9130   29.1050   53.8320  C.3       1 <0>         0.1288
      21  C16        -0.9780   27.8960   52.9340  C.ar      1 <0>        -0.1016
      22  C17        -0.3170   26.7350   53.2890  C.ar      1 <0>        -0.0930
      23  C18        -0.3770   25.6260   52.4650  C.ar      1 <0>        -0.1232
      24  C19        -1.0980   25.6780   51.2880  C.ar      1 <0>        -0.1070
      25  C20        -1.7600   26.8390   50.9330  C.ar      1 <0>        -0.1235
      26  C21        -1.7050   27.9460   51.7590  C.ar      1 <0>        -0.0933
@<TRIPOS>BOND
     1     1     2 1
     2     2     3 1
     3     2    16 1
     4     3     4 2
     5     3     5 am
     6     5     6 1
     7     6     7 1
     8     6    13 1
     9     7    12 ar
    10     7     8 ar
    11     8     9 ar
    12     9    10 ar
    13    10    11 ar
    14    11    12 ar
    15    13    14 1
    16    13    15 1
    17    16    17 am
    18    17    18 2
    19    17    19 1
    20    19    20 1
    21    20    21 1
    22    21    26 ar
    23    21    22 ar
    24    22    23 ar
    25    23    24 ar
    26    24    25 ar
    27    25    26 ar

@<TRIPOS>MOLECULE
ZINC51756327_replica-1.pdb
 23 23 0 0 0
SMALL
GASTEIGER

@<TRIPOS>ATOM
       1  C1          0.7170   31.5760   61.3630  C.3       1 <0>        -0.1086
       2  C2          0.7660   31.5940   59.8570  C.ar      1 <0>        -0.1434
       3  C3          0.3330   30.5040   59.1300  C.ar      1 <0>         0.1062
       4  N1          0.3720   30.5120   57.8110  N.ar      1 <0>        -0.4632
       5  C4          0.8200   31.5510   57.1340  C.ar      1 <0>         0.1088
       6  C5          1.2720   32.6800   57.7870  C.ar      1 <0>        -0.1286
       7  C6          1.2430   32.7120   59.1790  C.ar      1 <0>         0.1331
       8  O1          1.6740   33.8070   59.8580  O.3       1 <0>        -0.3279
       9  C7          0.6970   34.8010   60.1720  C.3       1 <0>         0.0331
      10  C8          1.7840   33.8620   57.0060  C.3       1 <0>        -0.1137
      11  C9          0.8420   31.5060   55.6270  C.3       1 <0>         0.1896
      12  N2          0.7750   30.1130   55.1800  N.am      1 <0>        -0.7400
      13  C10        -0.2460   29.7030   54.4020  C.2       1 <0>         0.7109
      14  O2         -1.1120   30.4900   54.0720  O.2       1 <0>        -0.5815
      15  N3         -0.3070   28.4210   53.9890  N.am      1 <0>        -0.6245
      16  C11         0.7360   27.4740   54.3880  C.3       1 <0>         0.1128
      17  C12         0.1780   26.5120   55.4400  C.3       1 <0>        -0.1161
      18  C13         0.6430   25.0890   55.1270  C.3       1 <0>        -0.1471
      19  C14         0.6850   26.9220   56.8240  C.3       1 <0>        -0.1516
      20  C15        -1.4180   27.9760   53.1440  C.3       1 <0>         0.1370
      21  C16        -0.8670   27.4230   51.8280  C.3       1 <0>        -0.1120
      22  C17        -0.8010   25.8970   51.9050  C.3       1 <0>        -0.1454
      23  C18        -1.7850   27.8370   50.6760  C.3       1 <0>        -0.1361
@<TRIPOS>BOND
     1     1     2 1
     2     2     7 ar
     3     2     3 ar
     4     3     4 ar
     5     4     5 ar
     6     5     6 ar
     7     5    11 1
     8     6     7 ar
     9     6    10 1
    10     7     8 1
    11     8     9 1
    12    11    12 1
    13    12    13 am
    14    13    14 2
    15    13    15 am
    16    15    16 1
    17    15    20 1
    18    16    17 1
    19    17    18 1
    20    17    19 1
    21    20    21 1
    22    21    22 1
    23    21    23 1

@<TRIPOS>MOLECULE
ZINC64685959_replica-1.pdb
 25 26 0 0 0
SMALL
GASTEIGER

@<TRIPOS>ATOM
       1  C1         -0.0090   32.1230   56.4170  C.3       1 <0>         0.0548
       2  O1          1.3040   32.0670   55.8550  O.3       1 <0>        -0.3659
       3  C2          2.2090   32.9470   56.3260  C.2       1 <0>         0.6522
       4  O2          1.9720   33.5790   57.3360  O.2       1 <0>        -0.5433
       5  N1          3.3750   33.1250   55.6760  N.am      1 <0>        -0.6977
       6  C3          4.3590   34.0830   56.1890  C.3       1 <0>         0.1930
       7  C4          5.3100   33.3710   57.1530  C.3       1 <0>        -0.0990
       8  C5          5.4940   34.2120   58.3900  C.ar      1 <0>        -0.0836
       9  C6          4.8860   35.4500   58.4810  C.ar      1 <0>        -0.1138
      10  C7          5.0540   36.2210   59.6160  C.ar      1 <0>        -0.1179
      11  C8          5.8320   35.7550   60.6590  C.ar      1 <0>        -0.1184
      12  C9          6.4390   34.5160   60.5680  C.ar      1 <0>        -0.1178
      13  C10         6.2670   33.7430   59.4370  C.ar      1 <0>        -0.1045
      14  C11         5.1460   34.6590   55.0400  C.2       1 <0>         0.4478
      15  O3          5.2940   34.0170   54.0280  O.2       1 <0>        -0.4669
      16  O4          5.6830   35.8840   55.1420  O.3       1 <0>        -0.3480
      17  C12         7.0920   35.9950   54.9250  C.3       1 <0>         0.1883
      18  C13         7.7870   36.0300   56.2230  C.1       1 <0>        -0.1701
      19  C14         8.3400   36.0580   57.2570  C.1       1 <0>        -0.0929
      20  C15         9.0160   36.0920   58.5190  C.ar      1 <0>         0.0050
      21  C16         9.8000   35.0110   58.9240  C.ar      1 <0>        -0.0916
      22  C17        10.4490   35.0510   60.1410  C.ar      1 <0>        -0.1188
      23  C18        10.3240   36.1590   60.9590  C.ar      1 <0>        -0.1071
      24  C19         9.5480   37.2340   60.5640  C.ar      1 <0>        -0.1189
      25  C20         8.8980   37.2090   59.3470  C.ar      1 <0>        -0.0939
@<TRIPOS>BOND
     1     1     2 1
     2     2     3 1
     3     3     4 2
     4     3     5 am
     5     5     6 1
     6     6     7 1
     7     6    14 1
     8     7     8 1
     9     8    13 ar
    10     8     9 ar
    11     9    10 ar
    12    10    11 ar
    13    11    12 ar
    14    12    13 ar
    15    14    15 2
    16    14    16 1
    17    16    17 1
    18    17    18 1
    19    18    19 3
    20    19    20 1
    21    20    25 ar
    22    20    21 ar
    23    21    22 ar
    24    22    23 ar
    25    23    24 ar
    26    24    25 ar

@<TRIPOS>MOLECULE
ZINC02535783_replica-1.pdb
 20 20 0 0 0
SMALL
GASTEIGER

@<TRIPOS>ATOM
       1  C1          8.3100   31.9330   60.7580  C.3       1 <0>        -0.1162
       2  C2          9.2240   33.1190   60.9340  C.ar      1 <0>        -0.0205
       3  C3         10.4150   32.9770   61.6190  C.ar      1 <0>        -0.1144
       4  C4         11.2570   34.0640   61.7750  C.ar      1 <0>        -0.0522
       5  C5         10.9070   35.2950   61.2520  C.ar      1 <0>        -0.1234
       6  C6          9.7160   35.4440   60.5700  C.ar      1 <0>        -0.0786
       7  C7          8.8680   34.3550   60.4110  C.ar      1 <0>         0.1160
       8  N1          7.6590   34.5020   59.7220  N.pl3     1 <0>        -0.6269
       9  C8          7.6550   34.5960   58.3790  C.2       1 <0>         0.5399
      10  S1          8.5090   33.4480   57.4380  S.2       1 <0>        -0.5761
      11  N2          6.9800   35.5940   57.7740  N.pl3     1 <0>        -0.6754
      12  C9          7.0680   35.7640   56.3220  C.3       1 <0>         0.1790
      13  C10         6.2570   36.9920   55.9030  C.3       1 <0>        -0.1873
      14  C11         8.5300   35.9570   55.9180  C.3       1 <0>        -0.1577
      15  C12         6.5060   34.5210   55.6280  C.3       1 <0>        -0.1898
      16  C13         9.3350   36.7850   59.9990  C.3       1 <0>        -0.1158
      17  C14        12.5580   33.9040   62.5180  C.3       1 <0>        -0.0300
      18  C15        13.7240   34.2290   61.5820  C.3       1 <0>        -0.1390
      19  C16        12.5830   34.8590   63.7140  C.3       1 <0>        -0.1451
      20  C17        12.6900   32.4630   63.0140  C.3       1 <0>        -0.1393
@<TRIPOS>BOND
     1     1     2 1
     2     2     7 ar
     3     2     3 ar
     4     3     4 ar
     5     4     5 ar
     6     4    17 1
     7     5     6 ar
     8     6     7 ar
     9     6    16 1
    10     7     8 1
    11     8     9 1
    12     9    10 2
    13     9    11 1
    14    11    12 1
    15    12    13 1
    16    12    14 1
    17    12    15 1
    18    17    18 1
    19    17    19 1
    20    17    20 1

@<TRIPOS>MOLECULE
ZINC40866735_replica-1.pdb
 25 26 0 0 0
SMALL
GASTEIGER

@<TRIPOS>ATOM
       1  C1         -1.4890   26.9680   51.0470  C.3       1 <0>        -0.1171
       2  C2         -0.9200   27.0860   52.4370  C.ar      1 <0>        -0.0817
       3  C3         -0.1220   26.0770   52.9440  C.ar      1 <0>        -0.1118
       4  C4          0.4020   26.1820   54.2200  C.ar      1 <0>        -0.1113
       5  C5          0.1290   27.2960   54.9910  C.ar      1 <0>        -0.0976
       6  C6         -0.6710   28.3090   54.4840  C.ar      1 <0>         0.0873
       7  C7         -1.1900   28.2050   53.2010  C.ar      1 <0>        -0.0931
       8  C8         -2.0540   29.3080   52.6450  C.3       1 <0>        -0.1137
       9  O1         -0.9390   29.4060   55.2400  O.3       1 <0>        -0.3018
      10  C9         -0.4250   30.6560   54.7760  C.3       1 <0>         0.0541
      11  C10         0.4770   31.2500   55.8280  C.2       1 <0>         0.5315
      12  O2          0.3290   30.9490   56.9940  O.2       1 <0>        -0.4743
      13  N1          1.4480   32.1140   55.4730  N.am      1 <0>        -0.5845
      14  N2          2.2870   32.6640   56.4510  N.2       1 <0>        -0.2270
      15  C11         2.5020   33.9440   56.4750  C.2       1 <0>         0.1152
      16  C12         3.3850   34.5240   57.5040  C.ar      1 <0>        -0.0654
      17  C13         3.2750   34.1120   58.8350  C.ar      1 <0>        -0.0732
      18  C14         4.1040   34.6590   59.7920  C.ar      1 <0>        -0.1233
      19  C15         5.0420   35.6120   59.4370  C.ar      1 <0>        -0.0564
      20  C16         5.1570   36.0240   58.1220  C.ar      1 <0>        -0.1206
      21  C17         4.3370   35.4820   57.1530  C.ar      1 <0>        -0.0853
      22  C18         5.9440   36.2050   60.4890  C.3       1 <0>        -0.0619
      23  C19         7.2560   35.4200   60.5380  C.3       1 <0>        -0.1453
      24  C20         6.2370   37.6660   60.1460  C.3       1 <0>        -0.1453
      25  C21         0.7000   27.4100   56.3810  C.3       1 <0>        -0.1170
@<TRIPOS>BOND
     1     1     2 1
     2     2     7 ar
     3     2     3 ar
     4     3     4 ar
     5     4     5 ar
     6     5     6 ar
     7     5    25 1
     8     6     7 ar
     9     6     9 1
    10     7     8 1
    11     9    10 1
    12    10    11 1
    13    11    12 2
    14    11    13 am
    15    13    14 1
    16    14    15 2
    17    15    16 1
    18    16    21 ar
    19    16    17 ar
    20    17    18 ar
    21    18    19 ar
    22    19    20 ar
    23    19    22 1
    24    20    21 ar
    25    22    23 1
    26    22    24 1

@<TRIPOS>MOLECULE
ZINC01046388_replica-1.pdb
 30 33 0 0 0
SMALL
GASTEIGER

@<TRIPOS>ATOM
       1  C1         15.8990   33.8150   64.9470  C.3       1 <0>         0.0244
       2  O1         15.2860   32.5710   64.6040  O.3       1 <0>        -0.3131
       3  C2         14.1120   32.6300   63.9230  C.ar      1 <0>         0.1556
       4  C3         13.3880   31.4680   63.6880  C.ar      1 <0>        -0.2214
       5  C4         12.2000   31.5230   62.9900  C.ar      1 <0>        -0.0230
       6  C5         11.7280   32.7480   62.5240  C.ar      1 <0>        -0.1046
       7  C6         12.4490   33.9170   62.7720  C.ar      1 <0>        -0.0081
       8  C7         13.6400   33.8530   63.4640  C.ar      1 <0>        -0.1561
       9  C8         11.9230   35.2420   62.2870  C.3       1 <0>        -0.0842
      10  C9         11.2230   35.0800   60.9410  C.3       1 <0>        -0.0739
      11  C10        10.2120   33.9680   60.9980  C.ar      1 <0>        -0.1496
      12  C11        10.4610   32.8260   61.7580  C.ar      1 <0>         0.2629
      13  N1          9.5930   31.8230   61.7880  N.ar      1 <0>        -0.5299
      14  C12         8.4540   31.8610   61.1210  C.ar      1 <0>         0.3796
      15  C13         8.1170   32.9800   60.3440  C.ar      1 <0>        -0.0934
      16  C14         9.0220   34.0640   60.2830  C.ar      1 <0>         0.0747
      17  C15         8.7140   35.2680   59.4750  C.ar      1 <0>        -0.0317
      18  C16         8.9460   35.2650   58.0990  C.ar      1 <0>        -0.0955
      19  C17         8.6530   36.3870   57.3510  C.ar      1 <0>        -0.0665
      20  C18         8.1400   37.5160   57.9650  C.ar      1 <0>        -0.1712
      21  C19         7.9130   37.5260   59.3290  C.ar      1 <0>        -0.0637
      22  C20         8.1970   36.4080   60.0860  C.ar      1 <0>        -0.0947
      23  C21         7.8270   38.7400   57.1430  C.3       1 <0>         0.5074
      24  F1          9.0090   39.2430   56.5870  F         1 <0>        -0.1738
      25  F2          6.9370   38.3990   56.1180  F         1 <0>        -0.1748
      26  F3          7.2450   39.7150   57.9610  F         1 <0>        -0.1749
      27  C22         6.8760   33.0270   59.6310  C.1       1 <0>         0.2598
      28  N2          5.8920   33.0620   59.0640  N.1       1 <0>        -0.3963
      29  O2          7.6040   30.8080   61.1840  O.3       1 <0>        -0.2967
      30  C23         6.6660   30.7950   62.2620  C.3       1 <0>         0.0364
@<TRIPOS>BOND
     1     1     2 1
     2     2     3 1
     3     3     8 ar
     4     3     4 ar
     5     4     5 ar
     6     5     6 ar
     7     6    12 1
     8     6     7 ar
     9     7     8 ar
    10     7     9 1
    11     9    10 1
    12    10    11 1
    13    11    16 ar
    14    11    12 ar
    15    12    13 ar
    16    13    14 ar
    17    14    15 ar
    18    14    29 1
    19    15    16 ar
    20    15    27 1
    21    16    17 1
    22    17    22 ar
    23    17    18 ar
    24    18    19 ar
    25    19    20 ar
    26    20    21 ar
    27    20    23 1
    28    21    22 ar
    29    23    24 1
    30    23    25 1
    31    23    26 1
    32    27    28 3
    33    29    30 1

@<TRIPOS>MOLECULE
ZINC44296821_replica-1.pdb
 25 25 0 0 0
SMALL
GASTEIGER

@<TRIPOS>ATOM
       1  C1          1.8600   35.7270   58.6140  C.3       1 <0>        -0.1842
       2  C2          3.1060   34.8830   58.8920  C.3       1 <0>         0.1356
       3  C3          2.8000   33.8670   59.9940  C.3       1 <0>        -0.1854
       4  C4          3.5160   34.1440   57.6170  C.3       1 <0>        -0.1368
       5  O1          4.1740   35.7360   59.3120  O.3       1 <0>        -0.3649
       6  C5          5.3940   35.4840   58.8020  C.2       1 <0>         0.6543
       7  O2          6.0700   34.5840   59.2600  O.2       1 <0>        -0.5688
       8  N1          5.8650   36.2300   57.7830  N.am      1 <0>        -0.6777
       9  C6          7.1930   35.9560   57.2280  C.3       1 <0>         0.0992
      10  C7          8.1880   36.9950   57.7500  C.3       1 <0>        -0.0820
      11  C8          9.0540   36.3690   58.8140  C.ar      1 <0>        -0.0412
      12  C9          9.5630   35.0970   58.6310  C.ar      1 <0>        -0.1006
      13  C10        10.3570   34.5210   59.6050  C.ar      1 <0>        -0.0509
      14  C11        10.6430   35.2160   60.7650  C.ar      1 <0>        -0.2114
      15  C12        10.1340   36.4900   60.9520  C.ar      1 <0>         0.1184
      16  C13         9.3430   37.0690   59.9710  C.ar      1 <0>         0.0736
      17  F1          8.8490   38.3150   60.1500  F         1 <0>        -0.1094
      18  F2         10.4120   37.1700   62.0860  F         1 <0>        -0.1150
      19  C14        11.5080   34.5870   61.8280  C.3       1 <0>         0.5181
      20  F3         11.7380   35.5140   62.8500  F         1 <0>        -0.1718
      21  F4         10.8580   33.4650   62.3520  F         1 <0>        -0.1711
      22  F5         12.7290   34.1990   61.2650  F         1 <0>        -0.1721
      23  C15         7.1340   36.0300   55.7240  C.2       1 <0>         0.4930
      24  O3          8.1250   36.3450   55.0900  O.co2     1 <0>        -0.6783
      25  O4          6.0930   35.7760   55.1430  O.co2     1 <0>        -0.6877
@<TRIPOS>BOND
     1     1     2 1
     2     2     3 1
     3     2     4 1
     4     2     5 1
     5     5     6 1
     6     6     7 2
     7     6     8 am
     8     8     9 1
     9     9    10 1
    10     9    23 1
    11    10    11 1
    12    11    16 ar
    13    11    12 ar
    14    12    13 ar
    15    13    14 ar
    16    14    15 ar
    17    14    19 1
    18    15    16 ar
    19    15    18 1
    20    16    17 1
    21    19    20 1
    22    19    21 1
    23    19    22 1
    24    23    24 2
    25    23    25 1

@<TRIPOS>MOLECULE
ZINC38668619_replica-1.pdb
 29 31 0 0 0
SMALL
GASTEIGER

@<TRIPOS>ATOM
       1  C1          0.7450   28.1850   58.2730  C.3       1 <0>        -0.0866
       2  C2          0.3580   28.6890   56.9070  C.2       1 <0>         0.0668
       3  C3          0.2550   30.0260   56.6780  C.2       1 <0>        -0.1709
       4  S1         -0.2140   30.0300   54.9530  S.3       1 <0>         0.0290
       5  C4         -0.2220   28.2570   54.7250  C.2       1 <0>         0.1485
       6  N1          0.1250   27.8400   55.9350  N.2       1 <0>        -0.4877
       7  C5         -0.5280   27.4670   53.5120  C.ar      1 <0>         0.0134
       8  C6         -0.0980   26.1430   53.4120  C.ar      1 <0>        -0.1035
       9  C7         -0.3860   25.4100   52.2790  C.ar      1 <0>        -0.0860
      10  C8         -1.0990   25.9850   51.2420  C.ar      1 <0>        -0.1349
      11  C9         -1.5280   27.2990   51.3340  C.ar      1 <0>         0.1020
      12  C10        -1.2510   28.0410   52.4660  C.ar      1 <0>        -0.1080
      13  F1         -2.2240   27.8540   50.3170  F         1 <0>        -0.1326
      14  C11         0.4750   31.1820   57.6180  C.3       1 <0>        -0.0389
      15  C12         1.9780   31.4200   57.7900  C.3       1 <0>         0.1435
      16  N2          2.5470   31.8790   56.5200  N.am      1 <0>        -0.7477
      17  C13         2.9280   33.1650   56.3780  C.2       1 <0>         0.7040
      18  O1          2.7990   33.9430   57.3040  O.2       1 <0>        -0.5855
      19  N3          3.4520   33.5870   55.2110  N.am      1 <0>        -0.7469
      20  C14         3.8660   34.9830   55.0570  C.3       1 <0>         0.1423
      21  C15         5.2960   35.0350   54.5140  C.3       1 <0>        -0.0851
      22  C16         6.1730   35.7900   55.4790  C.ar      1 <0>        -0.1227
      23  C17         7.3960   36.2810   55.0600  C.ar      1 <0>        -0.0720
      24  C18         8.2030   36.9730   55.9430  C.ar      1 <0>        -0.1499
      25  C19         7.7840   37.1770   57.2490  C.ar      1 <0>         0.1274
      26  C20         6.5560   36.6830   57.6670  C.ar      1 <0>        -0.2066
      27  C21         5.7510   35.9960   56.7800  C.ar      1 <0>        -0.0717
      28  O2          8.5760   37.8570   58.1210  O.3       1 <0>        -0.3177
      29  C22         8.0640   38.0630   59.4380  C.3       1 <0>         0.0264
@<TRIPOS>BOND
     1     1     2 1
     2     2     6 1
     3     2     3 2
     4     3     4 1
     5     3    14 1
     6     4     5 1
     7     5     6 2
     8     5     7 1
     9     7    12 ar
    10     7     8 ar
    11     8     9 ar
    12     9    10 ar
    13    10    11 ar
    14    11    12 ar
    15    11    13 1
    16    14    15 1
    17    15    16 1
    18    16    17 am
    19    17    18 2
    20    17    19 am
    21    19    20 1
    22    20    21 1
    23    21    22 1
    24    22    27 ar
    25    22    23 ar
    26    23    24 ar
    27    24    25 ar
    28    25    26 ar
    29    25    28 1
    30    26    27 ar
    31    28    29 1

@<TRIPOS>MOLECULE
ZINC65350883_replica-1.pdb
 18 19 0 0 0
SMALL
GASTEIGER

@<TRIPOS>ATOM
      1  C8        10.4700   35.2470   60.7000 C.ar    0  <0>0        0.0008
      2  C9        10.1810   36.5150   61.2080 C.ar    0  <0>0        0.0003
      3  C10        9.4530   37.4020   60.4690 C.ar    0  <0>0        0.0074
      4  C11        8.9930   37.0450   59.1970 C.ar    0  <0>0        0.0903
      5  C12        9.2800   35.7750   58.6820 C.ar    0  <0>0        0.0640
      6  C13       10.0190   34.8840   59.4300 C.ar    0  <0>0        0.0116
      7 Cl          8.7110   35.3260   57.1050 Cl      0  <0>0       -0.0820
      8  C5        11.2590   34.2890   61.5070 C.ar    0  <0>0        0.0001
      9  C4        12.5670   34.6010   61.8820 C.ar    0  <0>0        0.0005
     10  C3        13.2990   33.7080   62.6320 C.ar    0  <0>0        0.0061
     11  C2        12.7350   32.4960   63.0180 C.ar    0  <0>0        0.0252
     12  C7        11.4330   32.1790   62.6410 C.ar    0  <0>0        0.0061
     13  C6        10.6960   33.0720   61.8950 C.ar    0  <0>0        0.0005
     14  S1        13.6750   31.3550   63.9780 S.3     0  <0>0       -0.1127
     15  C1        12.5150   30.0000   64.3100 C.3     0  <0>0        0.0742
     16  C14        8.2080   38.0030   58.4010 C.2     0  <0>0        0.3886
     17  O1         8.7760   38.7860   57.6520 O.co2   0  <0>0       -0.2405
     18  O2         6.9880   38.0160   58.4880 O.co2   0  <0>0       -0.2405
@<TRIPOS>BOND
     1     7     5    1
     2    17    16   ar
     3    16    18   ar
     4    16     4    1
     5     5     4   ar
     6     5     6   ar
     7     4     3   ar
     8     6     1   ar
     9     3     2   ar
    10     1     2   ar
    11     1     8    1
    12     8     9   ar
    13     8    13   ar
    14     9    10   ar
    15    13    12   ar
    16    10    11   ar
    17    12    11   ar
    18    11    14    1
    19    14    15    1


@<TRIPOS>MOLECULE
ZINC57797971_replica-1.pdb
 21 23 0 0 0
SMALL
GASTEIGER

@<TRIPOS>ATOM
       1  C1          8.8320   38.6630   57.0600  C.3       1 <0>        -0.1404
       2  C2          7.9330   37.9300   58.0570  C.3       1 <0>        -0.0341
       3  C3          7.2020   38.9500   58.9330  C.3       1 <0>        -0.1403
       4  C4          6.9080   37.0860   57.2960  C.3       1 <0>        -0.1479
       5  C5          8.7750   37.0320   58.9270  C.ar      1 <0>        -0.0460
       6  C6          9.2100   37.4790   60.1610  C.ar      1 <0>        -0.1215
       7  C7          9.9810   36.6620   60.9610  C.ar      1 <0>        -0.0607
       8  C8         10.3220   35.3820   60.5230  C.ar      1 <0>        -0.0457
       9  C9          9.8810   34.9370   59.2770  C.ar      1 <0>        -0.0947
      10  C10         9.1060   35.7620   58.4890  C.ar      1 <0>        -0.1147
      11  C11        11.1500   34.5000   61.3760  C.2       1 <0>         0.3470
      12  N1         12.3780   34.8240   61.8860  N.pl3     1 <0>        -0.5909
      13  C12        12.8130   33.7380   62.6230  C.ar      1 <0>         0.0660
      14  C13        13.9590   33.4750   63.3610  C.ar      1 <0>        -0.1169
      15  C14        14.1000   32.2600   63.9990  C.ar      1 <0>         0.0901
      16  C15        13.1000   31.2960   63.9090  C.ar      1 <0>         0.0679
      17  C16        11.9580   31.5410   63.1820  C.ar      1 <0>        -0.0708
      18  C17        11.8000   32.7690   62.5280  C.ar      1 <0>         0.0709
      19  N2         10.8130   33.2940   61.7620  N.2       1 <0>        -0.4747
      20  F1         13.2520   30.1110   64.5400  F         1 <0>        -0.1224
      21  F2         15.2170   32.0040   64.7160  F         1 <0>        -0.1207
@<TRIPOS>BOND
     1     1     2 1
     2     2     3 1
     3     2     4 1
     4     2     5 1
     5     5    10 ar
     6     5     6 ar
     7     6     7 ar
     8     7     8 ar
     9     8     9 ar
    10     8    11 1
    11     9    10 ar
    12    11    19 2
    13    11    12 1
    14    12    13 1
    15    13    18 ar
    16    13    14 ar
    17    14    15 ar
    18    15    16 ar
    19    15    21 1
    20    16    17 ar
    21    16    20 1
    22    17    18 ar
    23    18    19 1

@<TRIPOS>MOLECULE
ZINC44270768_replica-1.pdb
 19 20 0 0 0
SMALL
GASTEIGER

@<TRIPOS>ATOM
       1  C1         -0.5690   24.8930   51.7390  C.3       1 <0>        -0.1359
       2  C2         -0.3270   25.9420   52.7930  C.ar      1 <0>        -0.0475
       3  C3          0.3710   25.6160   53.9420  C.ar      1 <0>        -0.1014
       4  C4          0.5950   26.5750   54.9110  C.ar      1 <0>        -0.0760
       5  C5          0.1180   27.8670   54.7300  C.ar      1 <0>         0.1545
       6  C6         -0.5820   28.1910   53.5740  C.ar      1 <0>        -0.1000
       7  C7         -0.7980   27.2280   52.6070  C.ar      1 <0>        -0.1668
       8  C8         -1.5510   27.5800   51.3510  C.3       1 <0>         0.5115
       9  F1         -2.3020   28.7400   51.5660  F         1 <0>        -0.1777
      10  F2         -0.6450   27.7980   50.3080  F         1 <0>        -0.1741
      11  F3         -2.4070   26.5270   51.0100  F         1 <0>        -0.1735
      12  N1          0.3420   28.8400   55.7080  N.pl3     1 <0>        -0.6591
      13  C9         -0.2250   28.7000   56.9700  C.ar      1 <0>         0.4249
      14  C10        -1.5480   28.2890   57.0890  C.ar      1 <0>        -0.2331
      15  C11        -2.1020   28.1530   58.3500  C.ar      1 <0>        -0.0064
      16  C12        -1.3100   28.4340   59.4550  C.ar      1 <0>        -0.2409
      17  C13        -0.0000   28.8390   59.2640  C.ar      1 <0>         0.3534
      18  N2          0.5020   28.9540   58.0480  N.ar      1 <0>        -0.5628
      19  F4          0.7760   29.1130   60.3360  F         1 <0>        -0.1081
@<TRIPOS>BOND
     1     1     2 1
     2     2     7 ar
     3     2     3 ar
     4     3     4 ar
     5     4     5 ar
     6     5     6 ar
     7     5    12 1
     8     6     7 ar
     9     7     8 1
    10     8     9 1
    11     8    10 1
    12     8    11 1
    13    12    13 1
    14    13    18 ar
    15    13    14 ar
    16    14    15 ar
    17    15    16 ar
    18    16    17 ar
    19    17    18 ar
    20    17    19 1

@<TRIPOS>MOLECULE
ZINC45158317_replica-1.pdb
 26 28 0 0 0
SMALL
GASTEIGER

@<TRIPOS>ATOM
       1  C1         -0.7390   31.6530   56.7820  C.3       1 <0>        -0.1202
       2  C2          0.0690   31.3530   58.0180  C.2       1 <0>        -0.1073
       3  C3          0.4920   30.1060   58.2540  C.2       1 <0>        -0.1510
       4  C4          0.0780   29.0070   57.3660  C.2       1 <0>         0.1279
       5  C5         -1.0350   28.2860   57.6510  C.2       1 <0>        -0.0974
       6  C6         -1.7590   28.5230   58.9000  C.2       1 <0>        -0.1326
       7  C7         -2.0410   27.5020   59.7110  C.2       1 <0>        -0.1583
       8  N1          0.8290   28.7070   56.2330  N.pl3     1 <0>        -0.6711
       9  C8          0.1940   28.3670   55.0530  C.2       1 <0>         0.4322
      10  C9          0.3950   27.1320   54.5350  C.2       1 <0>        -0.2991
      11  C10        -0.2430   26.7580   53.3280  C.ar      1 <0>         0.0552
      12  C11        -0.0620   25.4920   52.7590  C.ar      1 <0>        -0.1446
      13  C12        -0.7000   25.1800   51.5930  C.ar      1 <0>        -0.0720
      14  C13        -1.5260   26.1030   50.9610  C.ar      1 <0>        -0.1587
      15  C14        -1.7220   27.3470   51.4910  C.ar      1 <0>        -0.0368
      16  C15        -1.0860   27.6960   52.6840  C.ar      1 <0>        -0.1885
      17  C16        -1.2610   29.0160   53.2950  C.2       1 <0>         0.5600
      18  O1         -1.9760   29.8510   52.7720  O.2       1 <0>        -0.5185
      19  N2         -0.6190   29.2880   54.4510  N.am      1 <0>        -0.6374
      20  S1          1.5450   29.7790   59.6290  S.3       1 <0>        -0.0158
      21  C17         0.8690   30.7590   60.9270  C.ar      1 <0>        -0.1420
      22  C18         1.3240   32.0570   61.1290  C.ar      1 <0>        -0.0643
      23  C19         0.7920   32.8230   62.1470  C.ar      1 <0>        -0.1267
      24  C20        -0.1930   32.3000   62.9650  C.ar      1 <0>        -0.0855
      25  C21        -0.6490   31.0090   62.7680  C.ar      1 <0>        -0.1281
      26  C22        -0.1250   30.2400   61.7470  C.ar      1 <0>        -0.0636
@<TRIPOS>BOND
     1     1     2 1
     2     2     3 2
     3     3     4 1
     4     3    20 1
     5     4     5 2
     6     4     8 1
     7     5     6 1
     8     6     7 2
     9     8     9 1
    10     9    19 1
    11     9    10 2
    12    10    11 1
    13    11    16 ar
    14    11    12 ar
    15    12    13 ar
    16    13    14 ar
    17    14    15 ar
    18    15    16 ar
    19    16    17 1
    20    17    18 2
    21    17    19 am
    22    20    21 1
    23    21    26 ar
    24    21    22 ar
    25    22    23 ar
    26    23    24 ar
    27    24    25 ar
    28    25    26 ar

@<TRIPOS>MOLECULE
ZINC04980491_replica-1.pdb
 31 34 0 0 0
SMALL
GASTEIGER

@<TRIPOS>ATOM
       1  C1          5.0670   34.4160   54.1160  C.3       1 <0>        -0.1871
       2  C2          5.0870   35.4940   55.2010  C.3       1 <0>        -0.0150
       3  C3          6.9720   34.1660   55.9390  C.3       1 <0>        -0.0119
       4  C4          8.2580   34.2090   56.7670  C.3       1 <0>        -0.1892
       5  C5          7.3210   36.4260   55.1420  C.3       1 <0>        -0.0062
       6  C6          7.1890   37.8400   55.7120  C.3       1 <0>        -0.1647
       7  C7          8.3350   38.1040   56.6900  C.3       1 <0>         0.1295
       8  N1          7.7970   38.2600   58.0440  N.pl3     1 <0>        -0.7230
       9  C8          7.8680   37.2120   58.9390  C.2       1 <0>         0.4819
      10  C9          9.0260   36.9590   59.6180  C.2       1 <0>        -0.3161
      11  C10         9.0700   35.8890   60.5270  C.2       1 <0>         0.2903
      12  N2          8.0010   35.1300   60.7140  N.2       1 <0>        -0.4960
      13  C11         6.8640   35.3690   60.0470  C.2       1 <0>         0.3081
      14  N3          6.7800   36.4080   59.1550  N.pl3     1 <0>        -0.3446
      15  N4          5.4860   36.4100   58.6190  N.2       1 <0>        -0.3228
      16  C12         4.8010   35.4170   59.1560  C.2       1 <0>         0.1758
      17  C13         5.6280   34.7390   60.0580  C.2       1 <0>        -0.2589
      18  C14         3.3880   35.0770   58.8540  C.ar      1 <0>        -0.0415
      19  C15         2.8130   33.9320   59.3990  C.ar      1 <0>        -0.0550
      20  C16         1.4970   33.6220   59.1200  C.ar      1 <0>        -0.1527
      21  C17         0.7520   34.4440   58.2890  C.ar      1 <0>         0.1181
      22  C18         1.3220   35.5820   57.7400  C.ar      1 <0>        -0.1579
      23  C19         2.6350   35.9010   58.0200  C.ar      1 <0>        -0.0568
      24  F1         -0.5330   34.1340   58.0140  F         1 <0>        -0.1327
      25  C20        10.3170   35.6050   61.2760  C.ar      1 <0>        -0.0680
      26  C21        11.0010   34.4080   61.0680  C.ar      1 <0>        -0.0884
      27  C22        12.1640   34.1510   61.7650  C.ar      1 <0>        -0.1275
      28  C23        12.6460   35.0740   62.6760  C.ar      1 <0>        -0.0938
      29  C24        11.9690   36.2610   62.8900  C.ar      1 <0>        -0.1242
      30  C25        10.8080   36.5310   62.1960  C.ar      1 <0>        -0.0648
      31  N5          6.4030   35.5290   55.8730  N.4       1 <0>        -0.3955
@<TRIPOS>BOND
     1     1     2 1
     2     2    31 1
     3     3     4 1
     4     3    31 1
     5     5     6 1
     6     5    31 1
     7     6     7 1
     8     7     8 1
     9     8     9 1
    10     9    14 1
    11     9    10 2
    12    10    11 1
    13    11    12 2
    14    11    25 1
    15    12    13 1
    16    13    17 2
    17    13    14 1
    18    14    15 1
    19    15    16 2
    20    16    17 1
    21    16    18 1
    22    18    23 ar
    23    18    19 ar
    24    19    20 ar
    25    20    21 ar
    26    21    22 ar
    27    21    24 1
    28    22    23 ar
    29    25    30 ar
    30    25    26 ar
    31    26    27 ar
    32    27    28 ar
    33    28    29 ar
    34    29    30 ar

@<TRIPOS>MOLECULE
ZINC19889313_replica-1.pdb
 24 27 0 0 0
SMALL
GASTEIGER

@<TRIPOS>ATOM
       1  C1          1.3420   35.9400   56.7040  C.3       1 <0>        -0.1088
       2  C2          2.6780   35.6490   57.3360  C.ar      1 <0>        -0.1334
       3  C3          2.7500   34.9150   58.5060  C.ar      1 <0>        -0.0791
       4  C4          3.9700   34.6550   59.0870  C.ar      1 <0>        -0.1588
       5  C5          5.1520   35.1240   58.5110  C.ar      1 <0>         0.2168
       6  C6          5.0660   35.8530   57.3220  C.ar      1 <0>        -0.1408
       7  C7          3.8400   36.1140   56.7490  C.ar      1 <0>        -0.0752
       8  C8          6.3280   36.3240   56.7100  C.3       1 <0>        -0.0165
       9  C9          6.4040   37.5500   55.8770  C.2       1 <0>        -0.1624
      10  C10         7.6020   38.0990   56.0420  C.2       1 <0>        -0.1809
      11  C11         8.4170   37.2810   57.0490  C.3       1 <0>        -0.0864
      12  C12         7.3080   36.6350   57.8850  C.3       1 <0>        -0.0759
      13  C13         7.5860   35.2860   58.5160  C.3       1 <0>         0.1858
      14  N1          6.3450   34.8530   59.1780  N.pl3     1 <0>        -0.7505
      15  C14         8.6920   35.4130   59.5320  C.ar      1 <0>        -0.0420
      16  C15         9.8230   34.6250   59.4250  C.ar      1 <0>        -0.1108
      17  C16        10.8370   34.7420   60.3580  C.ar      1 <0>        -0.0500
      18  C17        10.7200   35.6450   61.3970  C.ar      1 <0>        -0.0435
      19  C18         9.5880   36.4320   61.5050  C.ar      1 <0>        -0.0497
      20  C19         8.5740   36.3160   60.5720  C.ar      1 <0>        -0.1051
      21  N2         11.8060   35.7690   62.3950  N.pl3     1 <0>         0.0256
      22  O1         11.7760   36.6630   63.2210  O.2       1 <0>        -0.1568
      23  O2         12.7290   34.9740   62.3910  O.3       1 <0>        -0.1562
      24  C20         4.0300   33.8520   60.3620  C.3       1 <0>        -0.1049
@<TRIPOS>BOND
     1     1     2 1
     2     2     7 ar
     3     2     3 ar
     4     3     4 ar
     5     4     5 ar
     6     4    24 1
     7     5    14 1
     8     5     6 ar
     9     6     7 ar
    10     6     8 1
    11     8    12 1
    12     8     9 1
    13     9    10 2
    14    10    11 1
    15    11    12 1
    16    12    13 1
    17    13    14 1
    18    13    15 1
    19    15    20 ar
    20    15    16 ar
    21    16    17 ar
    22    17    18 ar
    23    18    19 ar
    24    18    21 1
    25    19    20 ar
    26    21    22 2
    27    21    23 1

@<TRIPOS>MOLECULE
ZINC59463879_replica-1.pdb
 24 26 0 0 0
SMALL
GASTEIGER

@<TRIPOS>ATOM
       1  C1         14.1350   33.8870   62.3330  C.2       1 <0>        -0.1642
       2  C2         13.1160   33.2110   62.8050  C.2       1 <0>        -0.1620
       3  C3         11.7100   33.6410   62.4770  C.3       1 <0>         0.0845
       4  O1         11.6810   35.0540   62.2610  O.3       1 <0>        -0.3045
       5  C4         10.8570   35.5120   61.2860  C.ar      1 <0>         0.1703
       6  C5         10.6360   34.7430   60.1480  C.ar      1 <0>        -0.2333
       7  C6          9.8050   35.2000   59.1580  C.ar      1 <0>        -0.0342
       8  C7          9.1760   36.4450   59.2950  C.ar      1 <0>        -0.1510
       9  C8          9.4020   37.2170   60.4450  C.ar      1 <0>        -0.0306
      10  C9         10.2310   36.7450   61.4300  C.ar      1 <0>        -0.1688
      11  C10         8.2870   36.9410   58.2420  C.2       1 <0>         0.1090
      12  C11         7.1290   36.2550   57.9390  C.2       1 <0>        -0.1238
      13  C12         6.9010   35.3480   56.8010  C.2       1 <0>         0.4854
      14  O2          7.6920   35.0440   55.9280  O.2       1 <0>        -0.4248
      15  O3          5.6240   34.9250   56.9330  O.3       1 <0>        -0.2851
      16  C13         5.0930   35.4970   58.0320  C.2       1 <0>         0.3099
      17  N1          5.9540   36.2690   58.6340  N.2       1 <0>        -0.4432
      18  C14         3.7110   35.2710   58.4990  C.ar      1 <0>        -0.0105
      19  C15         2.6440   35.9220   57.8760  C.ar      1 <0>        -0.0739
      20  C16         1.3560   35.7070   58.3180  C.ar      1 <0>        -0.1038
      21  C17         1.1180   34.8460   59.3750  C.ar      1 <0>        -0.0873
      22  C18         2.1680   34.1980   59.9980  C.ar      1 <0>        -0.0888
      23  C19         3.4630   34.4000   59.5630  C.ar      1 <0>        -0.0656
      24  I1          5.0530   33.4090   60.5020  I         1 <0>         0.0084
@<TRIPOS>BOND
     1     1     2 2
     2     2     3 1
     3     3     4 1
     4     4     5 1
     5     5    10 ar
     6     5     6 ar
     7     6     7 ar
     8     7     8 ar
     9     8     9 ar
    10     8    11 1
    11     9    10 ar
    12    11    12 2
    13    12    17 1
    14    12    13 1
    15    13    14 2
    16    13    15 1
    17    15    16 1
    18    16    17 2
    19    16    18 1
    20    18    23 ar
    21    18    19 ar
    22    19    20 ar
    23    20    21 ar
    24    21    22 ar
    25    22    23 ar
    26    23    24 1

@<TRIPOS>MOLECULE
ZINC65331598_replica-1.pdb
 27 30 0 0 0
SMALL
GASTEIGER

@<TRIPOS>ATOM
       1  C1          1.4250   32.0260   56.3170  C.3       1 <0>        -0.1188
       2  C2          2.7030   32.8170   56.4290  C.ar      1 <0>        -0.0809
       3  C3          2.7720   34.0950   55.9080  C.ar      1 <0>        -0.0974
       4  C4          3.9410   34.8220   56.0090  C.ar      1 <0>        -0.0982
       5  C5          5.0500   34.2690   56.6360  C.ar      1 <0>         0.1383
       6  C6          4.9780   32.9850   57.1600  C.ar      1 <0>        -0.1356
       7  C7          3.8030   32.2640   57.0590  C.ar      1 <0>        -0.0940
       8  N1          6.2380   35.0040   56.7410  N.pl3     1 <0>        -0.3178
       9  C8          6.5690   35.8450   57.7410  C.2       1 <0>         0.3248
      10  C9          7.8070   36.3590   57.4600  C.2       1 <0>        -0.2668
      11  C10         8.2340   35.8100   56.2600  C.2       1 <0>         0.0985
      12  N2          7.3030   34.9930   55.8240  N.2       1 <0>        -0.2778
      13  C11         8.4930   37.3470   58.3680  C.3       1 <0>         0.0360
      14  C12         7.4190   38.1540   59.1010  C.3       1 <0>        -0.1339
      15  C13         6.3100   37.2710   59.5960  C.2       1 <0>         0.5342
      16  O1          5.7900   37.5240   60.6620  O.2       1 <0>        -0.5059
      17  N3          5.8710   36.2030   58.8950  N.am      1 <0>        -0.6511
      18  C14         9.3470   36.6100   59.3670  C.ar      1 <0>        -0.0462
      19  C15         9.7040   37.2220   60.5550  C.ar      1 <0>        -0.1143
      20  C16        10.4870   36.5460   61.4720  C.ar      1 <0>        -0.0648
      21  C17        10.9130   35.2590   61.2010  C.ar      1 <0>        -0.1829
      22  C18        10.5560   34.6480   60.0140  C.ar      1 <0>        -0.0657
      23  C19         9.7690   35.3210   59.0990  C.ar      1 <0>        -0.1095
      24  C20        11.7680   34.5230   62.2000  C.3       1 <0>         0.5076
      25  F1         12.0430   35.3620   63.2870  F         1 <0>        -0.1760
      26  F2         11.0870   33.3870   62.6490  F         1 <0>        -0.1760
      27  F3         12.9680   34.1380   61.5940  F         1 <0>        -0.1768
@<TRIPOS>BOND
     1     1     2 1
     2     2     7 ar
     3     2     3 ar
     4     3     4 ar
     5     4     5 ar
     6     5     6 ar
     7     5     8 1
     8     6     7 ar
     9     8    12 1
    10     8     9 1
    11     9    17 1
    12     9    10 2
    13    10    11 1
    14    10    13 1
    15    11    12 2
    16    13    14 1
    17    13    18 1
    18    14    15 1
    19    15    16 2
    20    15    17 am
    21    18    23 ar
    22    18    19 ar
    23    19    20 ar
    24    20    21 ar
    25    21    22 ar
    26    21    24 1
    27    22    23 ar
    28    24    25 1
    29    24    26 1
    30    24    27 1

@<TRIPOS>MOLECULE
ZINC32101652_replica-1.pdb
 21 23 0 0 0
SMALL
GASTEIGER

@<TRIPOS>ATOM
       1  C1         -3.0780   29.5980   56.2570  C.3       1 <0>        -0.1172
       2  C2         -2.3930   28.5390   57.0830  C.ar      1 <0>        -0.1022
       3  C3         -3.0940   27.4280   57.5020  C.ar      1 <0>        -0.1044
       4  C4         -2.4660   26.4550   58.2590  C.ar      1 <0>        -0.1261
       5  C5         -1.1330   26.5890   58.6020  C.ar      1 <0>        -0.1091
       6  C6         -0.4190   27.6950   58.1890  C.ar      1 <0>        -0.0978
       7  C7         -1.0440   28.6780   57.4190  C.ar      1 <0>         0.0914
       8  N1         -0.3420   29.7750   57.0010  N.2       1 <0>        -0.4691
       9  C8          0.2630   29.7620   55.8450  C.2       1 <0>         0.2151
      10  C9          0.0710   28.6290   54.9310  C.ar      1 <0>        -0.1539
      11  C10         0.6550   27.3820   55.2280  C.ar      1 <0>        -0.0934
      12  C11         0.4910   26.3210   54.3990  C.ar      1 <0>        -0.1157
      13  C12        -0.2710   26.4520   53.2210  C.ar      1 <0>        -0.0214
      14  C13        -0.4510   25.3640   52.3520  C.ar      1 <0>        -0.1145
      15  C14        -1.1920   25.5190   51.2200  C.ar      1 <0>        -0.1020
      16  C15        -1.7770   26.7440   50.9080  C.ar      1 <0>        -0.1216
      17  C16        -1.6240   27.8210   51.7270  C.ar      1 <0>        -0.0908
      18  C17        -0.8660   27.6990   52.9040  C.ar      1 <0>        -0.0823
      19  C18        -0.6940   28.7910   53.7760  C.ar      1 <0>         0.1621
      20  O1         -1.2600   29.9900   53.4920  O.3       1 <0>        -0.4857
      21  C19         1.0340   27.8400   58.5640  C.3       1 <0>        -0.1077
@<TRIPOS>BOND
     1     1     2 1
     2     2     7 ar
     3     2     3 ar
     4     3     4 ar
     5     4     5 ar
     6     5     6 ar
     7     6     7 ar
     8     6    21 1
     9     7     8 1
    10     8     9 2
    11     9    10 1
    12    10    19 ar
    13    10    11 ar
    14    11    12 ar
    15    12    13 ar
    16    13    18 ar
    17    13    14 ar
    18    14    15 ar
    19    15    16 ar
    20    16    17 ar
    21    17    18 ar
    22    18    19 ar
    23    19    20 1

@<TRIPOS>MOLECULE
ZINC45862610_replica-1.pdb
 28 30 0 0 0
SMALL
GASTEIGER

@<TRIPOS>ATOM
       1  C1         -0.2010   33.5150   58.0280  C.3       1 <0>        -0.1597
       2  C2          0.6940   33.6450   56.7940  C.3       1 <0>        -0.1004
       3  C3          1.2400   35.0720   56.7080  C.3       1 <0>        -0.1412
       4  C4          1.8590   32.6590   56.9030  C.3       1 <0>         0.1511
       5  C5          1.3450   31.2530   56.7230  C.2       1 <0>         0.5148
       6  O1          1.3580   30.4800   57.6580  O.2       1 <0>        -0.5305
       7  N1          0.8740   30.8550   55.5260  N.am      1 <0>        -0.7170
       8  C6          0.4460   29.4680   55.3310  C.3       1 <0>         0.1598
       9  C7         -0.8120   29.4400   54.4620  C.3       1 <0>        -0.1121
      10  C8         -1.4410   30.7830   54.0840  C.3       1 <0>        -0.1474
      11  C9         -2.1280   29.8790   55.1080  C.3       1 <0>        -0.1667
      12  C10        -0.8740   28.3310   53.4420  C.ar      1 <0>        -0.0496
      13  C11        -1.5550   28.5220   52.2550  C.ar      1 <0>        -0.1175
      14  C12        -1.6130   27.5060   51.3190  C.ar      1 <0>        -0.1167
      15  C13        -0.9890   26.2990   51.5710  C.ar      1 <0>        -0.1207
      16  C14        -0.3070   26.1080   52.7590  C.ar      1 <0>        -0.1162
      17  C15        -0.2460   27.1260   53.6920  C.ar      1 <0>        -0.1095
      18  N2          2.8470   32.9540   55.8630  N.am      1 <0>        -0.6941
      19  C16         4.1200   33.2360   56.2030  C.2       1 <0>         0.6541
      20  O2          4.4480   33.2450   57.3730  O.2       1 <0>        -0.5653
      21  O3          5.0290   33.5080   55.2480  O.3       1 <0>        -0.3571
      22  C17         6.4030   33.3110   55.5850  C.3       1 <0>         0.1292
      23  C18         7.0450   34.6440   55.8750  C.ar      1 <0>        -0.1014
      24  C19         7.9000   34.7790   56.9520  C.ar      1 <0>        -0.0932
      25  C20         8.4870   36.0020   57.2180  C.ar      1 <0>        -0.1233
      26  C21         8.2200   37.0880   56.4080  C.ar      1 <0>        -0.1071
      27  C22         7.3650   36.9530   55.3300  C.ar      1 <0>        -0.1234
      28  C23         6.7810   35.7300   55.0610  C.ar      1 <0>        -0.0932
@<TRIPOS>BOND
     1     1     2 1
     2     2     3 1
     3     2     4 1
     4     4     5 1
     5     4    18 1
     6     5     6 2
     7     5     7 am
     8     7     8 1
     9     8     9 1
    10     9    11 1
    11     9    10 1
    12     9    12 1
    13    10    11 1
    14    12    17 ar
    15    12    13 ar
    16    13    14 ar
    17    14    15 ar
    18    15    16 ar
    19    16    17 ar
    20    18    19 am
    21    19    20 2
    22    19    21 1
    23    21    22 1
    24    22    23 1
    25    23    28 ar
    26    23    24 ar
    27    24    25 ar
    28    25    26 ar
    29    26    27 ar
    30    27    28 ar

@<TRIPOS>MOLECULE
ZINC13468916_replica-1.pdb
 25 26 0 0 0
SMALL
GASTEIGER

@<TRIPOS>ATOM
       1  C1          7.4040   37.7710   57.4190  C.3       1 <0>        -0.1430
       2  C2          6.9230   36.6900   56.4480  C.3       1 <0>        -0.1056
       3  C3          8.1070   36.1830   55.6230  C.3       1 <0>        -0.1493
       4  C4          6.3160   35.5280   57.2380  C.3       1 <0>         0.1918
       5  C5          4.8250   35.7200   57.3480  C.ar      1 <0>        -0.0758
       6  C6          4.0670   35.9090   56.2070  C.ar      1 <0>        -0.1128
       7  C7          2.6990   36.0800   56.3090  C.ar      1 <0>        -0.1192
       8  C8          2.0900   36.0730   57.5500  C.ar      1 <0>        -0.1248
       9  C9          2.8500   35.8900   58.6900  C.ar      1 <0>        -0.1191
      10  C10         4.2170   35.7130   58.5890  C.ar      1 <0>        -0.1077
      11  N1          6.9040   35.4880   58.5780  N.am      1 <0>        -0.7354
      12  C11         7.5840   34.3980   58.9840  C.2       1 <0>         0.5117
      13  O1          7.7090   33.4490   58.2380  O.2       1 <0>        -0.4974
      14  C12         8.1890   34.3570   60.3630  C.3       1 <0>        -0.1144
      15  C13         9.4670   35.1990   60.3850  C.3       1 <0>        -0.0597
      16  C14        10.0480   35.2810   58.9710  C.3       1 <0>        -0.1256
      17  C15        10.4750   34.5600   61.3050  C.ar      1 <0>        -0.0226
      18  C16        10.3760   33.2150   61.6110  C.ar      1 <0>        -0.1277
      19  C17        11.3030   32.6280   62.4520  C.ar      1 <0>        -0.1227
      20  C18        12.3220   33.3870   62.9940  C.ar      1 <0>        -0.1426
      21  C19        12.4170   34.7320   62.6930  C.ar      1 <0>        -0.1198
      22  C20        11.4950   35.3190   61.8480  C.ar      1 <0>        -0.1104
      23  C21         9.1460   36.5870   60.8770  C.2       1 <0>         0.4888
      24  O2          8.5460   36.7360   61.9150  O.co2     1 <0>        -0.6173
      25  O3          9.5290   37.6560   60.1610  O.co2     1 <0>        -0.7720
@<TRIPOS>BOND
     1     1     2 1
     2     2     3 1
     3     2     4 1
     4     4     5 1
     5     4    11 1
     6     5    10 ar
     7     5     6 ar
     8     6     7 ar
     9     7     8 ar
    10     8     9 ar
    11     9    10 ar
    12    11    12 am
    13    12    13 2
    14    12    14 1
    15    14    15 1
    16    15    16 1
    17    15    17 1
    18    15    23 1
    19    17    22 ar
    20    17    18 ar
    21    18    19 ar
    22    19    20 ar
    23    20    21 ar
    24    21    22 ar
    25    23    24 2
    26    23    25 1

@<TRIPOS>MOLECULE
ZINC32950767_replica-1.pdb
 30 33 0 0 0
SMALL
GASTEIGER

@<TRIPOS>ATOM
       1  C1         13.3380   31.6460   63.3030  C.ar      1 <0>        -0.1203
       2  C2         14.1900   32.7340   63.2870  C.ar      1 <0>        -0.1181
       3  C3         13.7120   33.9820   62.9330  C.ar      1 <0>        -0.1139
       4  C4         12.3820   34.1410   62.5950  C.ar      1 <0>        -0.0851
       5  C5         11.5280   33.0540   62.6150  C.ar      1 <0>        -0.1138
       6  C6         12.0070   31.8050   62.9650  C.ar      1 <0>        -0.1180
       7  C7         11.8600   35.5020   62.2090  C.3       1 <0>        -0.0900
       8  C8         10.8700   35.3570   61.0510  C.3       1 <0>         0.1463
       9  N1          9.7440   36.2720   61.2560  N.am      1 <0>        -0.7553
      10  C9          8.4860   35.8600   61.0030  C.2       1 <0>         0.7084
      11  O1          8.2860   34.7280   60.6040  O.2       1 <0>        -0.5887
      12  N2          7.4500   36.7010   61.1910  N.am      1 <0>        -0.7579
      13  C10         6.0830   36.2530   60.9170  C.3       1 <0>         0.1209
      14  C11         5.4620   37.1410   59.8370  C.3       1 <0>         0.0880
      15  N3          5.5190   36.4510   58.5460  N.pl3     1 <0>        -0.4816
      16  C12         6.5060   36.5840   57.5880  C.ar      1 <0>         0.0549
      17  C13         7.6720   37.3310   57.5030  C.ar      1 <0>        -0.1112
      18  C14         8.4650   37.2360   56.3790  C.ar      1 <0>        -0.0961
      19  C15         8.1040   36.3990   55.3320  C.ar      1 <0>        -0.1254
      20  C16         6.9650   35.6500   55.4000  C.ar      1 <0>        -0.0612
      21  C17         6.1420   35.7330   56.5290  C.ar      1 <0>         0.0502
      22  N4          4.9740   35.1410   56.8750  N.2       1 <0>        -0.4729
      23  C18         4.6020   35.5590   58.0600  C.2       1 <0>         0.3236
      24  C19         3.3750   35.1320   58.7660  C.ar      1 <0>        -0.0401
      25  C20         3.4200   34.0650   59.6650  C.ar      1 <0>        -0.0898
      26  C21         2.2740   33.6730   60.3240  C.ar      1 <0>        -0.1498
      27  C22         1.0780   34.3310   60.0900  C.ar      1 <0>         0.1173
      28  C23         1.0260   35.3880   59.1950  C.ar      1 <0>        -0.1508
      29  C24         2.1670   35.7910   58.5330  C.ar      1 <0>        -0.0394
      30  F1         -0.0430   33.9410   60.7350  F         1 <0>        -0.1329
@<TRIPOS>BOND
     1     1     6 ar
     2     1     2 ar
     3     2     3 ar
     4     3     4 ar
     5     4     5 ar
     6     4     7 1
     7     5     6 ar
     8     7     8 1
     9     8     9 1
    10     9    10 am
    11    10    11 2
    12    10    12 am
    13    12    13 1
    14    13    14 1
    15    14    15 1
    16    15    23 1
    17    15    16 1
    18    16    21 ar
    19    16    17 ar
    20    17    18 ar
    21    18    19 ar
    22    19    20 ar
    23    20    21 ar
    24    21    22 1
    25    22    23 2
    26    23    24 1
    27    24    29 ar
    28    24    25 ar
    29    25    26 ar
    30    26    27 ar
    31    27    28 ar
    32    27    30 1
    33    28    29 ar

@<TRIPOS>MOLECULE
ZINC14000811_replica-1.pdb
 24 27 0 0 0
SMALL
GASTEIGER

@<TRIPOS>ATOM
       1  C1          3.7610   36.5280   55.6220  C.3       1 <0>        -0.1456
       2  C2          4.3290   35.2410   55.0190  C.3       1 <0>        -0.0855
       3  C3          4.1360   34.1040   55.9890  C.ar      1 <0>        -0.0765
       4  C4          2.9680   33.3680   55.9680  C.ar      1 <0>        -0.1078
       5  C5          2.7900   32.3250   56.8570  C.ar      1 <0>        -0.0989
       6  C6          3.7800   32.0140   57.7710  C.ar      1 <0>        -0.1080
       7  C7          4.9510   32.7470   57.7990  C.ar      1 <0>        -0.0804
       8  C8          5.1350   33.7920   56.9030  C.ar      1 <0>         0.1325
       9  N1          6.3220   34.5320   56.9230  N.pl3     1 <0>        -0.3134
      10  C9          6.6200   35.5540   57.7710  C.2       1 <0>         0.4901
      11  N2          5.9180   36.1060   58.7580  N.2       1 <0>        -0.6438
      12  C10         6.3580   37.2220   59.3250  C.2       1 <0>         0.5163
      13  O1          5.7670   37.6440   60.3000  O.2       1 <0>        -0.5105
      14  C11         7.5460   37.9910   58.8250  C.3       1 <0>        -0.1797
      15  C12         8.6270   37.0610   58.2660  C.3       1 <0>         0.0454
      16  C13         7.9420   35.9770   57.4720  C.2       1 <0>        -0.2909
      17  C14         8.3960   35.2490   56.4420  C.2       1 <0>         0.1821
      18  N3          7.4290   34.3540   56.0770  N.pl3     1 <0>        -0.4846
      19  C15         9.4080   36.4480   59.4000  C.ar      1 <0>        -0.0809
      20  C16         9.6050   37.1610   60.5680  C.ar      1 <0>        -0.1087
      21  C17        10.3220   36.5990   61.6070  C.ar      1 <0>        -0.1165
      22  C18        10.8420   35.3250   61.4800  C.ar      1 <0>        -0.1199
      23  C19        10.6450   34.6120   60.3120  C.ar      1 <0>        -0.1201
      24  C20         9.9240   35.1720   59.2740  C.ar      1 <0>        -0.1128
@<TRIPOS>BOND
     1     1     2 1
     2     2     3 1
     3     3     8 ar
     4     3     4 ar
     5     4     5 ar
     6     5     6 ar
     7     6     7 ar
     8     7     8 ar
     9     8     9 1
    10     9    18 1
    11     9    10 1
    12    10    16 1
    13    10    11 2
    14    11    12 1
    15    12    13 2
    16    12    14 1
    17    14    15 1
    18    15    16 1
    19    15    19 1
    20    16    17 2
    21    17    18 1
    22    19    24 ar
    23    19    20 ar
    24    20    21 ar
    25    21    22 ar
    26    22    23 ar
    27    23    24 ar

@<TRIPOS>MOLECULE
ZINC02963654_replica-1.pdb
 25 28 0 0 0
SMALL
GASTEIGER

@<TRIPOS>ATOM
       1  C1          8.4290   37.1010   61.9580  C.3       1 <0>        -0.1163
       2  C2          8.8180   36.3050   60.7380  C.ar      1 <0>        -0.0806
       3  C3         10.0860   35.7620   60.6440  C.ar      1 <0>        -0.1025
       4  C4         10.4480   35.0320   59.5270  C.ar      1 <0>        -0.1140
       5  C5          9.5410   34.8370   58.5040  C.ar      1 <0>        -0.0922
       6  C6          8.2690   35.3870   58.5920  C.ar      1 <0>         0.1410
       7  C7          7.9080   36.1200   59.7160  C.ar      1 <0>        -0.0506
       8  C8          6.5270   36.7120   59.8190  C.3       1 <0>        -0.1108
       9  N1          7.3490   35.1970   57.5550  N.pl3     1 <0>        -0.5176
      10  C9          7.1930   36.1720   56.6560  C.2       1 <0>         0.5766
      11  S1          8.1890   37.5610   56.7550  S.2       1 <0>        -0.6217
      12  N2          6.2780   36.1000   55.6740  N.pl3     1 <0>        -0.6706
      13  C10         5.3590   34.9520   55.6140  C.3       1 <0>         0.1680
      14  C11         6.1460   33.7040   56.0450  C.3       1 <0>        -0.1713
      15  C12         6.6020   33.9440   57.4920  C.3       1 <0>         0.3197
      16  O1          5.4510   33.9960   58.3310  O.3       1 <0>        -0.2904
      17  C13         4.3760   34.7180   57.9210  C.ar      1 <0>         0.1154
      18  C14         4.2640   35.1970   56.6290  C.ar      1 <0>        -0.1587
      19  C15         3.1470   35.9190   56.2480  C.ar      1 <0>        -0.1016
      20  C16         2.1380   36.1720   57.1590  C.ar      1 <0>        -0.1067
      21  C17         2.2430   35.7030   58.4550  C.ar      1 <0>        -0.1685
      22  C18         3.3570   34.9770   58.8390  C.ar      1 <0>         0.1089
      23  O2          3.4600   34.5150   60.1150  O.3       1 <0>        -0.3026
      24  C19         2.5900   33.4440   60.4880  C.3       1 <0>         0.0247
      25  C20         7.5040   32.7920   57.9380  C.3       1 <0>        -0.1410
@<TRIPOS>BOND
     1     1     2 1
     2     2     7 ar
     3     2     3 ar
     4     3     4 ar
     5     4     5 ar
     6     5     6 ar
     7     6     7 ar
     8     6     9 1
     9     7     8 1
    10     9    15 1
    11     9    10 1
    12    10    11 2
    13    10    12 1
    14    12    13 1
    15    13    18 1
    16    13    14 1
    17    14    15 1
    18    15    16 1
    19    15    25 1
    20    16    17 1
    21    17    22 ar
    22    17    18 ar
    23    18    19 ar
    24    19    20 ar
    25    20    21 ar
    26    21    22 ar
    27    22    23 1
    28    23    24 1

@<TRIPOS>MOLECULE
ZINC41588585_replica-1.pdb
 31 35 0 0 0
SMALL
GASTEIGER

@<TRIPOS>ATOM
       1  C1          6.0090   32.9210   61.1210  C.3       1 <0>        -0.1012
       2  C2          5.6770   34.2100   60.4140  C.ar      1 <0>        -0.1347
       3  C3          4.4340   34.3720   59.8190  C.ar      1 <0>         0.2095
       4  C4          4.1150   35.5580   59.1650  C.ar      1 <0>        -0.1935
       5  C5          5.0300   36.5740   59.1020  C.ar      1 <0>         0.0271
       6  C6          6.2820   36.4230   59.6960  C.ar      1 <0>        -0.2903
       7  C7          6.6130   35.2340   60.3670  C.ar      1 <0>         0.1739
       8  O1          7.8650   35.3260   60.8640  O.3       1 <0>        -0.2063
       9  C8          8.4330   36.5220   60.5810  C.2       1 <0>        -0.0435
      10  C9          9.6860   36.9240   60.9400  C.2       1 <0>        -0.0224
      11  C10        10.5190   36.0590   61.6760  C.2       1 <0>        -0.1467
      12  C11        11.0610   34.9700   61.0800  C.2       1 <0>        -0.0582
      13  C12        11.9310   34.0680   61.8490  C.ar      1 <0>        -0.0741
      14  C13        13.2850   34.3750   62.0230  C.ar      1 <0>        -0.1036
      15  C14        14.0930   33.5240   62.7460  C.ar      1 <0>        -0.1211
      16  C15        13.5690   32.3670   63.2980  C.ar      1 <0>        -0.1103
      17  C16        12.2310   32.0560   63.1300  C.ar      1 <0>        -0.1222
      18  C17        11.4070   32.9000   62.4160  C.ar      1 <0>        -0.0994
      19  C18         7.4620   37.3020   59.8050  C.2       1 <0>         0.4155
      20  O2          7.5940   38.4300   59.3620  O.2       1 <0>        -0.4242
      21  C19         2.7660   35.7450   58.5210  C.3       1 <0>         0.0995
      22  N1          2.1190   34.4370   58.3410  N.3       1 <0>        -0.5575
      23  C20         2.1720   33.6690   59.5960  C.3       1 <0>         0.2205
      24  O3          3.5350   33.3540   59.8820  O.3       1 <0>        -0.2915
      25  C21         0.7350   34.5930   57.8760  C.3       1 <0>         0.0642
      26  C22        -0.0870   33.3760   58.3050  C.3       1 <0>        -0.0345
      27  C23        -0.1410   32.3820   57.1740  C.2       1 <0>        -0.1429
      28  C24        -1.1810   31.6170   56.7590  C.2       1 <0>        -0.1535
      29  C25        -1.0010   30.7650   55.6850  C.2       1 <0>        -0.1567
      30  C26         0.2110   30.7210   55.0770  C.2       1 <0>        -0.1707
      31  S1          1.1430   31.9120   56.0260  S.3       1 <0>         0.0290
@<TRIPOS>BOND
     1     1     2 1
     2     2     7 ar
     3     2     3 ar
     4     3    24 1
     5     3     4 ar
     6     4     5 ar
     7     4    21 1
     8     5     6 ar
     9     6    19 1
    10     6     7 ar
    11     7     8 1
    12     8     9 1
    13     9    10 2
    14     9    19 1
    15    10    11 1
    16    11    12 2
    17    12    13 1
    18    13    18 ar
    19    13    14 ar
    20    14    15 ar
    21    15    16 ar
    22    16    17 ar
    23    17    18 ar
    24    19    20 2
    25    21    22 1
    26    22    23 1
    27    22    25 1
    28    23    24 1
    29    25    26 1
    30    26    27 1
    31    27    31 1
    32    27    28 2
    33    28    29 1
    34    29    30 2
    35    30    31 1

@<TRIPOS>MOLECULE
ZINC27635358_replica-1.pdb
 25 26 0 0 0
SMALL
GASTEIGER

@<TRIPOS>ATOM
       1  C1         -2.1430   28.6720   56.4600  C.3       1 <0>        -0.1554
       2  C2         -2.4000   29.3200   55.0980  C.3       1 <0>        -0.0831
       3  C3         -2.9610   30.7300   55.3020  C.3       1 <0>        -0.1480
       4  C4         -1.0890   29.4000   54.3150  C.3       1 <0>        -0.0554
       5  C5          0.0910   29.3550   55.2890  C.3       1 <0>         0.1261
       6  N1          0.8530   30.6030   55.1910  N.am      1 <0>        -0.7302
       7  C6          0.8460   31.4790   56.2150  C.2       1 <0>         0.5457
       8  O1          0.2050   31.2340   57.2200  O.2       1 <0>        -0.5439
       9  C7          1.6070   32.7250   56.1180  C.2       1 <0>        -0.1944
      10  C8          2.9530   32.6990   56.1820  C.2       1 <0>        -0.0332
      11  C9          3.7200   33.9530   56.0840  C.ar      1 <0>        -0.0649
      12  C10         3.0540   35.1820   56.0350  C.ar      1 <0>        -0.0568
      13  C11         3.7780   36.3510   55.9470  C.ar      1 <0>        -0.1139
      14  C12         5.1610   36.3110   55.8970  C.ar      1 <0>        -0.0487
      15  C13         5.8270   35.0990   55.9450  C.ar      1 <0>        -0.0420
      16  C14         5.1170   33.9200   56.0380  C.ar      1 <0>        -0.0358
      17  N2          7.3060   35.0670   55.8960  N.pl3     1 <0>         0.0251
      18  O2          7.9180   35.9810   55.3730  O.2       1 <0>        -0.1537
      19  O3          7.9110   34.1270   56.3800  O.3       1 <0>        -0.1536
      20  C15        -1.0000   28.2340   53.3640  C.ar      1 <0>        -0.0747
      21  C16        -1.6280   28.2960   52.1340  C.ar      1 <0>        -0.1113
      22  C17        -1.5420   27.2300   51.2600  C.ar      1 <0>        -0.1151
      23  C18        -0.8350   26.0960   51.6190  C.ar      1 <0>        -0.1228
      24  C19        -0.2110   26.0330   52.8510  C.ar      1 <0>        -0.1162
      25  C20        -0.2930   27.1020   53.7230  C.ar      1 <0>        -0.1218
@<TRIPOS>BOND
     1     1     2 1
     2     2     3 1
     3     2     4 1
     4     4     5 1
     5     4    20 1
     6     5     6 1
     7     6     7 am
     8     7     8 2
     9     7     9 1
    10     9    10 2
    11    10    11 1
    12    11    16 ar
    13    11    12 ar
    14    12    13 ar
    15    13    14 ar
    16    14    15 ar
    17    15    16 ar
    18    15    17 1
    19    17    18 2
    20    17    19 1
    21    20    25 ar
    22    20    21 ar
    23    21    22 ar
    24    22    23 ar
    25    23    24 ar
    26    24    25 ar

@<TRIPOS>MOLECULE
ZINC41153006_replica-1.pdb
 28 31 0 0 0
SMALL
GASTEIGER

@<TRIPOS>ATOM
       1  C1          4.1840   32.7790   56.6690  C.3       1 <0>         0.0304
       2  O1          3.2130   31.9460   57.3060  O.3       1 <0>        -0.3221
       3  C2          2.7500   32.3550   58.5180  C.ar      1 <0>         0.0913
       4  C3          3.6040   32.4040   59.6070  C.ar      1 <0>        -0.1881
       5  C4          3.1310   32.8210   60.8380  C.ar      1 <0>        -0.1036
       6  C5          1.8060   33.1890   60.9860  C.ar      1 <0>        -0.1344
       7  C6          0.9480   33.1420   59.9030  C.ar      1 <0>        -0.0896
       8  C7          1.4160   32.7300   58.6640  C.ar      1 <0>         0.1422
       9  N1          0.5500   32.6880   57.5640  N.pl3     1 <0>        -0.6245
      10  C8         -0.2780   31.5950   57.3770  C.ar      1 <0>         0.6073
      11  N2         -0.3200   30.6660   58.3130  N.ar      1 <0>        -0.5943
      12  C9         -1.1100   29.5920   58.1690  C.ar      1 <0>         0.2275
      13  C10        -1.1810   28.5880   59.1430  C.ar      1 <0>        -0.1254
      14  C11        -2.0000   27.5150   58.9470  C.ar      1 <0>        -0.0634
      15  C12        -2.7700   27.4030   57.7930  C.ar      1 <0>        -0.1532
      16  C13        -2.7240   28.3620   56.8250  C.ar      1 <0>        -0.0557
      17  C14        -1.8940   29.4750   56.9950  C.ar      1 <0>        -0.2320
      18  C15        -1.8060   30.5030   56.0230  C.ar      1 <0>         0.5099
      19  N3         -1.0010   31.5270   56.2620  N.ar      1 <0>        -0.6243
      20  N4         -2.5470   30.4420   54.8610  N.pl3     1 <0>        -0.6961
      21  C16        -1.8810   30.1790   53.5830  C.3       1 <0>         0.1318
      22  C17        -0.6870   29.2490   53.8110  C.3       1 <0>        -0.0938
      23  C18        -0.8420   28.0150   52.9600  C.ar      1 <0>        -0.0840
      24  C19        -1.5970   28.0630   51.8030  C.ar      1 <0>        -0.1131
      25  C20        -1.7380   26.9310   51.0240  C.ar      1 <0>        -0.1177
      26  C21        -1.1250   25.7500   51.4000  C.ar      1 <0>        -0.1197
      27  C22        -0.3690   25.7030   52.5560  C.ar      1 <0>        -0.1177
      28  C23        -0.2230   26.8360   53.3340  C.ar      1 <0>        -0.1131
@<TRIPOS>BOND
     1     1     2 1
     2     2     3 1
     3     3     8 ar
     4     3     4 ar
     5     4     5 ar
     6     5     6 ar
     7     6     7 ar
     8     7     8 ar
     9     8     9 1
    10     9    10 1
    11    10    19 ar
    12    10    11 ar
    13    11    12 ar
    14    12    17 ar
    15    12    13 ar
    16    13    14 ar
    17    14    15 ar
    18    15    16 ar
    19    16    17 ar
    20    17    18 ar
    21    18    19 ar
    22    18    20 1
    23    20    21 1
    24    21    22 1
    25    22    23 1
    26    23    28 ar
    27    23    24 ar
    28    24    25 ar
    29    25    26 ar
    30    26    27 ar
    31    27    28 ar

@<TRIPOS>MOLECULE
ZINC62038528_replica-1.pdb
 32 36 0 0 0
SMALL
GASTEIGER

@<TRIPOS>ATOM
       1  C1         -1.5050   27.5620   51.3360  C.3       1 <0>        -0.1143
       2  C2         -0.9210   27.4580   52.7200  C.ar      1 <0>        -0.0736
       3  C3         -0.1430   26.3660   53.0600  C.ar      1 <0>        -0.1193
       4  C4          0.3960   26.2650   54.3290  C.ar      1 <0>        -0.1205
       5  C5          0.1560   27.2580   55.2650  C.ar      1 <0>         0.0704
       6  C6         -0.6280   28.3580   54.9240  C.ar      1 <0>         0.1249
       7  C7         -1.1600   28.4550   53.6460  C.ar      1 <0>        -0.1139
       8  N1         -0.8720   29.3650   55.8670  N.am      1 <0>        -0.6611
       9  C8         -0.1490   30.5020   55.8400  C.2       1 <0>         0.5346
      10  O1          0.6470   30.6940   54.9460  O.2       1 <0>        -0.5003
      11  C9         -0.3300   31.5350   56.9240  C.3       1 <0>        -0.1867
      12  S1          0.8840   31.2480   58.2400  S.3       1 <0>         0.0970
      13  C10         0.0520   30.1710   59.3600  C.ar      1 <0>         0.1912
      14  C11        -0.1330   30.5460   60.7180  C.ar      1 <0>        -0.1694
      15  C12         0.2770   31.7640   61.4100  C.2       1 <0>        -0.0476
      16  C13        -0.0160   31.8950   62.7260  C.2       1 <0>        -0.1425
      17  S2         -0.8660   30.3770   63.1150  S.3       1 <0>         0.1265
      18  C14        -0.8110   29.6070   61.5190  C.ar      1 <0>         0.1306
      19  N2         -1.2390   28.4610   61.0230  N.ar      1 <0>        -0.4871
      20  C15        -1.0380   28.1670   59.7530  C.ar      1 <0>         0.3340
      21  N3         -0.4150   29.0030   58.9430  N.ar      1 <0>        -0.5396
      22  C16         1.0000   32.8370   60.6880  C.ar      1 <0>        -0.0500
      23  C17         0.2910   33.8520   60.0460  C.ar      1 <0>        -0.0868
      24  C18         0.9760   34.8410   59.3760  C.ar      1 <0>        -0.1013
      25  C19         2.3660   34.8400   59.3340  C.ar      1 <0>        -0.0594
      26  C20         3.0710   33.8410   59.9700  C.ar      1 <0>        -0.0722
      27  C21         2.3910   32.8420   60.6490  C.ar      1 <0>        -0.0965
      28  C22         4.5770   33.7900   59.9770  C.3       1 <0>        -0.0810
      29  C23         5.1500   34.6730   58.8700  C.3       1 <0>        -0.1207
      30  C24         4.5110   36.0620   58.9800  C.3       1 <0>        -0.1200
      31  C25         3.0440   35.9510   58.5740  C.3       1 <0>        -0.0831
      32  O2          0.6840   27.1590   56.5140  O.3       1 <0>        -0.4952
@<TRIPOS>BOND
     1     1     2 1
     2     2     7 ar
     3     2     3 ar
     4     3     4 ar
     5     4     5 ar
     6     5     6 ar
     7     5    32 1
     8     6     7 ar
     9     6     8 1
    10     8     9 am
    11     9    10 2
    12     9    11 1
    13    11    12 1
    14    12    13 1
    15    13    21 ar
    16    13    14 ar
    17    14    18 ar
    18    14    15 1
    19    15    16 2
    20    15    22 1
    21    16    17 1
    22    17    18 1
    23    18    19 ar
    24    19    20 ar
    25    20    21 ar
    26    22    27 ar
    27    22    23 ar
    28    23    24 ar
    29    24    25 ar
    30    25    31 1
    31    25    26 ar
    32    26    27 ar
    33    26    28 1
    34    28    29 1
    35    29    30 1
    36    30    31 1

@<TRIPOS>MOLECULE
ZINC01446652_replica-1.pdb
 30 33 0 0 0
SMALL
GASTEIGER

@<TRIPOS>ATOM
       1  C1          8.0050   39.0590   57.1490  C.3       1 <0>        -0.1204
       2  C2          8.4870   37.9200   58.0100  C.ar      1 <0>        -0.0681
       3  C3          8.7700   38.1390   59.3470  C.ar      1 <0>        -0.1203
       4  C4          9.2100   37.0990   60.1400  C.ar      1 <0>        -0.0782
       5  C5          9.3690   35.8270   59.5930  C.ar      1 <0>        -0.0334
       6  C6          9.0880   35.6140   58.2440  C.ar      1 <0>        -0.0881
       7  C7          8.6430   36.6590   57.4610  C.ar      1 <0>        -0.1193
       8  C8          9.8420   34.7070   60.4400  C.2       1 <0>         0.1690
       9  C9          9.0760   33.5110   60.8130  C.2       1 <0>        -0.2468
      10  C10         9.9110   32.7460   61.6060  C.2       1 <0>         0.1518
      11  N1         11.0830   33.3980   61.7180  N.pl3     1 <0>        -0.3056
      12  N2         11.0260   34.5950   61.0000  N.2       1 <0>        -0.2743
      13  C11        12.1920   32.9460   62.4440  C.ar      1 <0>         0.1484
      14  C12        12.1530   31.7090   63.0760  C.ar      1 <0>        -0.1343
      15  C13        13.2510   31.2640   63.7870  C.ar      1 <0>        -0.0918
      16  C14        14.3830   32.0520   63.8790  C.ar      1 <0>        -0.1223
      17  C15        14.4240   33.2850   63.2550  C.ar      1 <0>        -0.0954
      18  C16        13.3320   33.7350   62.5390  C.ar      1 <0>        -0.1134
      19  C17         7.6970   33.1940   60.4270  C.2       1 <0>         0.1538
      20  C18         7.3030   31.8990   60.3160  C.2       1 <0>        -0.2738
      21  C19         6.5110   31.0740   61.2460  C.2       1 <0>         0.5428
      22  O1          6.0980   31.5190   62.3010  O.2       1 <0>        -0.4577
      23  N3          6.2740   29.8260   60.8780  N.am      1 <0>        -0.5183
      24  C20         6.7350   29.3370   59.7090  C.2       1 <0>         0.2814
      25  S1          6.5340   27.7650   59.0620  S.2       1 <0>        -0.3398
      26  S2          7.5960   30.7280   58.9970  S.3       1 <0>         0.0717
      27  C21         5.4920   28.9560   61.7610  C.3       1 <0>         0.0865
      28  C22         6.4020   28.3820   62.8490  C.3       1 <0>        -0.1065
      29  C23         5.6220   28.2690   64.1600  C.3       1 <0>        -0.1427
      30  C24         6.8910   26.9950   62.4260  C.3       1 <0>        -0.1468
@<TRIPOS>BOND
     1     1     2 1
     2     2     7 ar
     3     2     3 ar
     4     3     4 ar
     5     4     5 ar
     6     5     6 ar
     7     5     8 1
     8     6     7 ar
     9     8    12 2
    10     8     9 1
    11     9    10 2
    12     9    19 1
    13    10    11 1
    14    11    12 1
    15    11    13 1
    16    13    18 ar
    17    13    14 ar
    18    14    15 ar
    19    15    16 ar
    20    16    17 ar
    21    17    18 ar
    22    19    20 2
    23    20    26 1
    24    20    21 1
    25    21    22 2
    26    21    23 am
    27    23    24 1
    28    23    27 1
    29    24    25 2
    30    24    26 1
    31    27    28 1
    32    28    29 1
    33    28    30 1

@<TRIPOS>MOLECULE
ZINC04671045_replica-1.pdb
 26 29 0 0 0
SMALL
GASTEIGER

@<TRIPOS>ATOM
       1  C1          6.1100   37.0260   60.2630  C.3       1 <0>        -0.0930
       2  C2          5.2710   36.3450   59.2120  C.2       1 <0>         0.1176
       3  C3          5.6510   36.1270   57.8710  C.2       1 <0>        -0.2485
       4  C4          4.6320   35.4900   57.2530  C.2       1 <0>         0.3359
       5  N1          3.6440   35.3130   58.1840  N.pl3     1 <0>        -0.3846
       6  N2          4.0790   35.8530   59.3940  N.2       1 <0>        -0.2620
       7  C5          2.3530   34.6620   57.9510  C.3       1 <0>         0.2046
       8  C6          1.3480   35.6910   57.4290  C.3       1 <0>        -0.1580
       9  C7          1.8450   34.0750   59.2440  C.ar      1 <0>        -0.1131
      10  C8          0.7170   34.6000   59.8440  C.ar      1 <0>        -0.0801
      11  C9          0.2520   34.0620   61.0310  C.ar      1 <0>        -0.1233
      12  C10         0.9150   32.9990   61.6150  C.ar      1 <0>        -0.1078
      13  C11         2.0430   32.4740   61.0130  C.ar      1 <0>        -0.1224
      14  C12         2.5060   33.0090   59.8250  C.ar      1 <0>        -0.1047
      15  N3          4.4740   35.0510   55.9590  N.am      1 <0>        -0.6272
      16  C13         5.2240   35.0330   54.9000  C.2       1 <0>         0.5410
      17  O1          4.7480   34.4520   53.9480  O.2       1 <0>        -0.5299
      18  C14         6.5660   35.6090   54.6670  C.3       1 <0>        -0.1252
      19  S1          7.6480   35.4630   56.0960  S.3       1 <0>        -0.1783
      20  C15         6.9780   36.5690   57.3400  C.3       1 <0>         0.0572
      21  C16         7.9540   36.6530   58.4870  C.ar      1 <0>        -0.0584
      22  C17         8.4570   35.4970   59.0530  C.ar      1 <0>        -0.0907
      23  C18         9.3510   35.5740   60.1050  C.ar      1 <0>        -0.1190
      24  C19         9.7410   36.8090   60.5900  C.ar      1 <0>        -0.1104
      25  C20         9.2380   37.9650   60.0240  C.ar      1 <0>        -0.1179
      26  C21         8.3470   37.8870   58.9690  C.ar      1 <0>        -0.1044
@<TRIPOS>BOND
     1     1     2 1
     2     2     6 2
     3     2     3 1
     4     3    20 1
     5     3     4 2
     6     4     5 1
     7     4    15 1
     8     5     6 1
     9     5     7 1
    10     7     8 1
    11     7     9 1
    12     9    14 ar
    13     9    10 ar
    14    10    11 ar
    15    11    12 ar
    16    12    13 ar
    17    13    14 ar
    18    15    16 am
    19    16    17 2
    20    16    18 1
    21    18    19 1
    22    19    20 1
    23    20    21 1
    24    21    26 ar
    25    21    22 ar
    26    22    23 ar
    27    23    24 ar
    28    24    25 ar
    29    25    26 ar

@<TRIPOS>MOLECULE
ZINC13183942_replica-1.pdb
 23 24 0 0 0
SMALL
GASTEIGER

@<TRIPOS>ATOM
       1  C1         -0.4100   25.6550   52.0760  C.3       1 <0>        -0.1142
       2  C2         -0.6210   26.9810   52.7610  C.ar      1 <0>        -0.0930
       3  C3         -1.4410   27.9330   52.1830  C.ar      1 <0>        -0.1022
       4  C4         -1.6370   29.1490   52.8080  C.ar      1 <0>        -0.0953
       5  C5         -1.0070   29.4160   54.0180  C.ar      1 <0>        -0.0871
       6  C6         -0.1840   28.4570   54.5960  C.ar      1 <0>        -0.1292
       7  C7          0.0070   27.2430   53.9650  C.ar      1 <0>        -0.1006
       8  S1         -1.2530   30.9650   54.8190  S.3       1 <0>        -0.0970
       9  C8         -0.1100   30.9190   56.2260  C.3       1 <0>        -0.1208
      10  C9          0.9900   31.9640   56.0240  C.3       1 <0>         0.1333
      11  N1          0.4100   33.3060   56.1150  N.pl3     1 <0>        -1.1167
      12  S2          1.2480   34.5230   56.8630  S.o2      1 <0>         2.6995
      13  O1          2.4890   34.6400   56.1820  O.2       1 <0>        -0.9543
      14  O2          0.3460   35.6130   56.9980  O.2       1 <0>        -0.9614
      15  C10         1.6180   33.9720   58.4960  C.ar      1 <0>        -0.6938
      16  C11         2.8870   33.5110   58.7970  C.ar      1 <0>        -0.0311
      17  C12         3.1880   33.0810   60.0780  C.ar      1 <0>        -0.1563
      18  C13         2.2190   33.1000   61.0610  C.ar      1 <0>        -0.0209
      19  C14         0.9350   33.5580   60.7610  C.ar      1 <0>        -0.1327
      20  C15         0.6410   33.9950   59.4680  C.ar      1 <0>         0.0144
      21  C16        -0.1070   33.5810   61.8080  C.2       1 <0>         0.4892
      22  O3         -0.6400   34.6300   62.1120  O.co2     1 <0>        -0.6244
      23  O4         -0.4680   32.4390   62.4240  O.co2     1 <0>        -0.7496
@<TRIPOS>BOND
     1     1     2 1
     2     2     7 ar
     3     2     3 ar
     4     3     4 ar
     5     4     5 ar
     6     5     6 ar
     7     5     8 1
     8     6     7 ar
     9     8     9 1
    10     9    10 1
    11    10    11 1
    12    11    12 1
    13    12    13 2
    14    12    14 2
    15    12    15 1
    16    15    20 ar
    17    15    16 ar
    18    16    17 ar
    19    17    18 ar
    20    18    19 ar
    21    19    20 ar
    22    19    21 1
    23    21    22 2
    24    21    23 1

@<TRIPOS>MOLECULE
ZINC66128519_replica-1.pdb
 27 30 0 0 0
SMALL
GASTEIGER

@<TRIPOS>ATOM
       1  C1          7.4380   30.9980   61.6000  C.3       1 <0>        -0.1458
       2  C2          8.1390   32.0170   60.7000  C.3       1 <0>        -0.0946
       3  C3          9.5690   32.2390   61.1990  C.3       1 <0>        -0.1455
       4  C4          8.1760   31.4900   59.2640  C.3       1 <0>         0.0559
       5  O1          8.1910   32.5920   58.3530  O.3       1 <0>        -0.2859
       6  C5          6.9980   33.1760   58.0730  C.ar      1 <0>         0.1656
       7  C6          5.8300   32.6780   58.6590  C.ar      1 <0>        -0.1940
       8  C7          4.6200   33.2420   58.3980  C.ar      1 <0>        -0.0538
       9  C8          4.5380   34.3420   57.5260  C.ar      1 <0>        -0.0878
      10  C9          3.3050   34.9490   57.2350  C.ar      1 <0>        -0.0872
      11  C10         3.2610   36.0120   56.3850  C.ar      1 <0>        -0.1324
      12  C11         4.4230   36.5110   55.8000  C.ar      1 <0>        -0.0967
      13  C12         5.6350   35.9480   56.0590  C.ar      1 <0>        -0.1217
      14  C13         5.7200   34.8490   56.9300  C.ar      1 <0>         0.0111
      15  C14         6.9540   34.2460   57.2250  C.ar      1 <0>        -0.1734
      16  C15         8.2220   34.7750   56.6050  C.3       1 <0>         0.4410
      17  N1          9.3150   34.6800   57.5810  N.pl3     1 <0>        -0.7466
      18  C16         9.3640   35.6030   58.6170  C.ar      1 <0>         0.2332
      19  C17         9.9090   35.2920   59.8520  C.ar      1 <0>        -0.1823
      20  C18         9.9290   36.2470   60.8500  C.ar      1 <0>        -0.0580
      21  C19         9.4070   37.5120   60.6260  C.ar      1 <0>        -0.1729
      22  C20         8.8610   37.8380   59.4020  C.ar      1 <0>        -0.0258
      23  C21         8.8360   36.8860   58.3860  C.ar      1 <0>        -0.1913
      24  C22         8.2720   37.1840   57.0570  C.2       1 <0>         0.5920
      25  O2          8.0360   38.3320   56.7320  O.2       1 <0>        -0.5303
      26  N2          8.0220   36.1700   56.2090  N.am      1 <0>        -0.6028
      27  C23         7.5380   36.4710   54.8590  C.3       1 <0>         0.0897
@<TRIPOS>BOND
     1     1     2 1
     2     2     3 1
     3     2     4 1
     4     4     5 1
     5     5     6 1
     6     6    15 ar
     7     6     7 ar
     8     7     8 ar
     9     8     9 ar
    10     9    14 ar
    11     9    10 ar
    12    10    11 ar
    13    11    12 ar
    14    12    13 ar
    15    13    14 ar
    16    14    15 ar
    17    15    16 1
    18    16    26 1
    19    16    17 1
    20    17    18 1
    21    18    23 ar
    22    18    19 ar
    23    19    20 ar
    24    20    21 ar
    25    21    22 ar
    26    22    23 ar
    27    23    24 1
    28    24    25 2
    29    24    26 am
    30    26    27 1

@<TRIPOS>MOLECULE
ZINC16243693_replica-1.pdb
 22 24 0 0 0
SMALL
GASTEIGER

@<TRIPOS>ATOM
       1  C1         -1.3980   30.0320   56.3940  C.3       1 <0>        -0.1585
       2  C2         -0.7600   29.9350   55.0070  C.3       1 <0>         0.1817
       3  C3         -0.3620   28.5070   54.7360  C.ar      1 <0>        -0.0801
       4  C4          0.3340   27.8020   55.6690  C.ar      1 <0>        -0.1163
       5  C5          0.7110   26.4810   55.4360  C.ar      1 <0>        -0.1143
       6  C6          0.3930   25.8570   54.2690  C.ar      1 <0>        -0.0992
       7  C7         -0.3260   26.5520   53.2820  C.ar      1 <0>        -0.0478
       8  C8         -0.7140   27.8940   53.5220  C.ar      1 <0>        -0.0380
       9  C9         -1.4390   28.5880   52.5370  C.ar      1 <0>        -0.1098
      10  C10        -1.7620   27.9620   51.3720  C.ar      1 <0>        -0.1089
      11  C11        -1.3850   26.6400   51.1400  C.ar      1 <0>        -0.1112
      12  C12        -0.6720   25.9420   52.0650  C.ar      1 <0>        -0.1070
      13  N1          0.4280   30.7910   54.9560  N.pl3     1 <0>        -0.6756
      14  C13         0.7140   31.6090   55.9890  C.2       1 <0>         0.5575
      15  S1          1.6390   31.0290   57.3070  S.2       1 <0>        -0.6081
      16  N2          0.2730   32.8820   55.9830  N.pl3     1 <0>        -0.6318
      17  C14         0.6700   33.7650   56.9930  C.ar      1 <0>         0.1234
      18  C15         0.1630   33.6260   58.2780  C.ar      1 <0>        -0.0724
      19  C16         0.5560   34.5010   59.2720  C.ar      1 <0>        -0.1112
      20  C17         1.4550   35.5120   58.9890  C.ar      1 <0>        -0.1137
      21  C18         1.9630   35.6520   57.7100  C.ar      1 <0>        -0.1149
      22  C19         1.5770   34.7790   56.7130  C.ar      1 <0>        -0.1248
@<TRIPOS>BOND
     1     1     2 1
     2     2     3 1
     3     2    13 1
     4     3     8 ar
     5     3     4 ar
     6     4     5 ar
     7     5     6 ar
     8     6     7 ar
     9     7    12 ar
    10     7     8 ar
    11     8     9 ar
    12     9    10 ar
    13    10    11 ar
    14    11    12 ar
    15    13    14 1
    16    14    15 2
    17    14    16 1
    18    16    17 1
    19    17    22 ar
    20    17    18 ar
    21    18    19 ar
    22    19    20 ar
    23    20    21 ar
    24    21    22 ar

@<TRIPOS>MOLECULE
ZINC40188633_replica-1.pdb
 27 29 0 0 0
SMALL
GASTEIGER

@<TRIPOS>ATOM
       1  C1          8.6370   38.6950   57.0410  C.3       1 <0>        -0.1382
       2  C2          7.3760   38.2070   56.3240  C.3       1 <0>        -0.1432
       3  C3          7.1690   36.7420   56.6120  C.2       1 <0>         0.5148
       4  O1          8.1110   36.0480   56.9310  O.2       1 <0>        -0.5360
       5  N1          5.9370   36.2040   56.5140  N.am      1 <0>        -0.7216
       6  C4          5.7360   34.7790   56.7930  C.3       1 <0>         0.2247
       7  C5          5.4620   34.0370   55.4840  C.3       1 <0>        -0.1584
       8  C6          4.5610   34.6120   57.7220  C.2       1 <0>         0.2728
       9  N2          3.4600   35.3030   57.6650  N.2       1 <0>        -0.4756
      10  C7          2.6140   34.8960   58.6470  C.ar      1 <0>         0.0475
      11  C8          1.3300   35.2870   59.0340  C.ar      1 <0>        -0.0606
      12  C9          0.7220   34.6730   60.0920  C.ar      1 <0>        -0.1252
      13  C10         1.3680   33.6600   60.7890  C.ar      1 <0>        -0.0951
      14  C11         2.6350   33.2590   60.4240  C.ar      1 <0>        -0.1116
      15  C12         3.2680   33.8710   59.3510  C.ar      1 <0>         0.0520
      16  N3          4.4950   33.7110   58.7400  N.pl3     1 <0>        -0.4797
      17  C13         5.5340   32.7500   59.1170  C.3       1 <0>         0.1107
      18  C14         6.3120   33.2870   60.3200  C.3       1 <0>         0.0465
      19  O2          6.2240   34.7130   60.3480  O.3       1 <0>        -0.3066
      20  C15         7.3930   35.4030   60.4030  C.ar      1 <0>         0.1301
      21  C16         8.5930   34.7240   60.5640  C.ar      1 <0>        -0.2036
      22  C17         9.7800   35.4270   60.6200  C.ar      1 <0>        -0.0518
      23  C18         9.7750   36.8060   60.5170  C.ar      1 <0>        -0.1503
      24  C19         8.5800   37.4850   60.3580  C.ar      1 <0>        -0.0791
      25  C20         7.3900   36.7860   60.2960  C.ar      1 <0>        -0.1182
      26  C21         6.0890   37.5250   60.1150  C.3       1 <0>        -0.1060
      27  C22        11.0850   34.6920   60.7940  C.3       1 <0>        -0.1173
@<TRIPOS>BOND
     1     1     2 1
     2     2     3 1
     3     3     4 2
     4     3     5 am
     5     5     6 1
     6     6     7 1
     7     6     8 1
     8     8    16 1
     9     8     9 2
    10     9    10 1
    11    10    15 ar
    12    10    11 ar
    13    11    12 ar
    14    12    13 ar
    15    13    14 ar
    16    14    15 ar
    17    15    16 1
    18    16    17 1
    19    17    18 1
    20    18    19 1
    21    19    20 1
    22    20    25 ar
    23    20    21 ar
    24    21    22 ar
    25    22    23 ar
    26    22    27 1
    27    23    24 ar
    28    24    25 ar
    29    25    26 1

@<TRIPOS>MOLECULE
ZINC53433337_replica-1.pdb
 19 20 0 0 0
SMALL
GASTEIGER

@<TRIPOS>ATOM
       1  C1          0.6390   25.8260   54.4140  C.3       1 <0>        -0.1053
       2  C2         -0.1850   26.2580   53.2280  C.ar      1 <0>        -0.1643
       3  C3         -0.5280   25.3400   52.2540  C.ar      1 <0>        -0.0743
       4  C4         -1.2840   25.7350   51.1660  C.ar      1 <0>        -0.1760
       5  C5         -1.7000   27.0490   51.0490  C.ar      1 <0>        -0.0778
       6  C6         -1.3610   27.9710   52.0190  C.ar      1 <0>        -0.1941
       7  C7         -0.6060   27.5760   53.1160  C.ar      1 <0>         0.2171
       8  N1         -0.2650   28.5050   54.1020  N.pl3     1 <0>        -0.7475
       9  C8         -0.8220   29.8600   54.0560  C.3       1 <0>         0.1041
      10  C9         -0.0410   30.7660   55.0100  C.3       1 <0>         0.1387
      11  N2         -0.8950   31.1350   56.1420  N.pl3     1 <0>        -0.6735
      12  C10        -2.3530   31.0830   56.0060  C.3       1 <0>         0.1147
      13  C11        -0.3190   31.5360   57.3490  C.ar      1 <0>         0.1629
      14  C12        -0.0320   32.8770   57.5720  C.ar      1 <0>        -0.1221
      15  C13         0.5370   33.2710   58.7670  C.ar      1 <0>        -0.1197
      16  C14         0.8210   32.3310   59.7420  C.ar      1 <0>        -0.1189
      17  C15         0.5360   30.9960   59.5240  C.ar      1 <0>        -0.1162
      18  C16        -0.0380   30.5960   58.3330  C.ar      1 <0>        -0.0916
      19  C17        -0.3540   29.1420   58.0990  C.3       1 <0>        -0.1085
@<TRIPOS>BOND
     1     1     2 1
     2     2     7 ar
     3     2     3 ar
     4     3     4 ar
     5     4     5 ar
     6     5     6 ar
     7     6     7 ar
     8     7     8 1
     9     8     9 1
    10     9    10 1
    11    10    11 1
    12    11    12 1
    13    11    13 1
    14    13    18 ar
    15    13    14 ar
    16    14    15 ar
    17    15    16 ar
    18    16    17 ar
    19    17    18 ar
    20    18    19 1

@<TRIPOS>MOLECULE
ZINC23436992_replica-1.pdb
 30 33 0 0 0
SMALL
GASTEIGER

@<TRIPOS>ATOM
       1  C1         16.2890   34.2260   64.6940  C.3       1 <0>        -0.1476
       2  C2         15.5160   33.9680   63.3990  C.3       1 <0>        -0.1292
       3  C3         14.1300   33.4110   63.7360  C.3       1 <0>         0.1517
       4  C4         14.2000   31.8860   63.8200  C.3       1 <0>         0.0505
       5  O1         13.0100   31.3230   63.2600  O.3       1 <0>        -0.3875
       6  C5         12.7690   29.9700   63.6480  C.3       1 <0>         0.0277
       7  N1         13.1800   33.8010   62.6900  N.am      1 <0>        -0.7284
       8  C6         12.3610   34.8530   62.8820  C.2       1 <0>         0.5580
       9  O2         12.4090   35.4790   63.9230  O.2       1 <0>        -0.5333
      10  C7         11.4040   35.2450   61.8290  C.ar      1 <0>        -0.1259
      11  C8         10.7790   36.4950   61.8820  C.ar      1 <0>        -0.0525
      12  C9          9.8910   36.8590   60.9040  C.ar      1 <0>        -0.1191
      13  C10         9.6080   35.9810   59.8540  C.ar      1 <0>        -0.0031
      14  C11        10.2280   34.7300   59.8040  C.ar      1 <0>        -0.0990
      15  C12        11.1220   34.3680   60.7780  C.ar      1 <0>        -0.0787
      16  C13         8.6500   36.3730   58.8000  C.2       1 <0>         0.1095
      17  C14         7.7430   35.5550   58.1890  C.2       1 <0>        -0.2297
      18  C15         7.0330   36.3260   57.2510  C.2       1 <0>         0.1106
      19  N2          7.4990   37.5590   57.2930  N.2       1 <0>        -0.2501
      20  N3          8.5100   37.6190   58.2600  N.pl3     1 <0>        -0.4759
      21  C16         5.9520   35.8360   56.3650  C.ar      1 <0>        -0.0047
      22  C17         6.2320   35.4670   55.0610  C.ar      1 <0>        -0.0900
      23  C18         5.2220   35.0060   54.2230  C.ar      1 <0>        -0.1161
      24  C19         3.9360   34.9040   54.6580  C.ar      1 <0>        -0.0971
      25  C20         3.6080   35.2680   55.9750  C.ar      1 <0>        -0.0515
      26  C21         4.6240   35.7400   56.8420  C.ar      1 <0>        -0.0320
      27  C22         4.2960   36.1050   58.1570  C.ar      1 <0>        -0.0984
      28  C23         3.0060   35.9990   58.5820  C.ar      1 <0>        -0.1171
      29  C24         2.0060   35.5350   57.7310  C.ar      1 <0>        -0.1138
      30  C25         2.2870   35.1790   56.4480  C.ar      1 <0>        -0.1083
@<TRIPOS>BOND
     1     1     2 1
     2     2     3 1
     3     3     4 1
     4     3     7 1
     5     4     5 1
     6     5     6 1
     7     7     8 am
     8     8     9 2
     9     8    10 1
    10    10    15 ar
    11    10    11 ar
    12    11    12 ar
    13    12    13 ar
    14    13    14 ar
    15    13    16 1
    16    14    15 ar
    17    16    20 1
    18    16    17 2
    19    17    18 1
    20    18    19 2
    21    18    21 1
    22    19    20 1
    23    21    26 ar
    24    21    22 ar
    25    22    23 ar
    26    23    24 ar
    27    24    25 ar
    28    25    30 ar
    29    25    26 ar
    30    26    27 ar
    31    27    28 ar
    32    28    29 ar
    33    29    30 ar

@<TRIPOS>MOLECULE
ZINC38111997_replica-1.pdb
 21 22 0 0 0
SMALL
GASTEIGER

@<TRIPOS>ATOM
       1  C1         11.1140   33.1670   62.2390  C.3       1 <0>        -0.1450
       2  C2         11.8990   34.4710   62.0930  C.3       1 <0>        -0.0638
       3  C3         11.9180   35.2070   63.4350  C.3       1 <0>        -0.1472
       4  C4         13.3330   34.1590   61.6610  C.3       1 <0>        -0.1450
       5  C5         11.2300   35.3540   61.0370  C.3       1 <0>        -0.0770
       6  C6         10.4400   36.4670   61.7290  C.3       1 <0>        -0.1205
       7  C7          9.7710   37.3490   60.6730  C.3       1 <0>        -0.1410
       8  C8          8.8210   36.5000   59.8250  C.3       1 <0>         0.1932
       9  C9          9.6120   35.3870   59.1340  C.3       1 <0>        -0.1146
      10  C10        10.2810   34.5060   60.1900  C.3       1 <0>        -0.1141
      11  C11         7.7500   35.8810   60.7250  C.3       1 <0>         0.0481
      12  O1          6.8990   36.9120   61.2290  O.3       1 <0>        -0.5621
      13  N1          8.1820   37.3460   58.8140  N.pl3     1 <0>        -0.7343
      14  C12         7.6100   36.7670   57.6770  C.ar      1 <0>         0.1958
      15  C13         6.3730   36.1420   57.7610  C.ar      1 <0>        -0.1770
      16  C14         5.8090   35.5720   56.6370  C.ar      1 <0>        -0.1044
      17  C15         6.4790   35.6210   55.4240  C.ar      1 <0>         0.0658
      18  C16         7.7160   36.2440   55.3380  C.ar      1 <0>        -0.1563
      19  C17         8.2790   36.8200   56.4600  C.ar      1 <0>        -0.1585
      20  O2          5.9240   35.0590   54.3180  O.3       1 <0>        -0.3228
      21  C18         4.6050   34.5250   54.4530  C.3       1 <0>         0.0295
@<TRIPOS>BOND
     1     1     2 1
     2     2     3 1
     3     2     4 1
     4     2     5 1
     5     5    10 1
     6     5     6 1
     7     6     7 1
     8     7     8 1
     9     8     9 1
    10     8    11 1
    11     8    13 1
    12     9    10 1
    13    11    12 1
    14    13    14 1
    15    14    19 ar
    16    14    15 ar
    17    15    16 ar
    18    16    17 ar
    19    17    18 ar
    20    17    20 1
    21    18    19 ar
    22    20    21 1

@<TRIPOS>MOLECULE
ZINC14551879_replica-1.pdb
 25 28 0 0 0
SMALL
GASTEIGER

@<TRIPOS>ATOM
       1  C1         12.9620   30.5160   63.5930  C.3       1 <0>        -0.1459
       2  S1         13.4350   32.2600   63.4250  S.3       1 <0>        -0.1123
       3  C2         12.1390   32.9620   62.4590  C.ar      1 <0>        -0.0781
       4  C3         12.3170   34.1970   61.8470  C.ar      1 <0>        -0.0923
       5  C4         11.2990   34.7430   61.0920  C.ar      1 <0>        -0.0811
       6  C5         10.1040   34.0630   60.9410  C.ar      1 <0>        -0.0901
       7  C6          9.9210   32.8370   61.5530  C.ar      1 <0>        -0.0951
       8  C7         10.9360   32.2810   62.3070  C.ar      1 <0>        -0.1257
       9  C8          8.9960   34.6640   60.1150  C.3       1 <0>         0.1530
      10  C9          9.0120   34.0710   58.7210  C.3       1 <0>        -0.1175
      11  C10         8.7270   32.5720   58.5730  C.3       1 <0>        -0.0832
      12  C11         8.0990   32.5190   57.1780  C.2       1 <0>        -0.1487
      13  C12         7.5340   33.6860   56.8910  C.2       1 <0>        -0.1697
      14  C13         7.6990   34.5890   58.0560  C.3       1 <0>        -0.0474
      15  C14         7.8440   36.0550   57.9160  C.ar      1 <0>        -0.0377
      16  C15         7.2770   36.7410   56.8620  C.ar      1 <0>        -0.0092
      17  C16         7.4120   38.1130   56.7640  C.ar      1 <0>        -0.0620
      18  C17         8.1180   38.8020   57.7340  C.ar      1 <0>        -0.1227
      19  C18         8.6900   38.1240   58.7880  C.ar      1 <0>         0.1141
      20  C19         8.5750   36.7340   58.8930  C.ar      1 <0>         0.1128
      21  N1          9.2070   36.1130   59.9690  N.pl3     1 <0>        -0.6285
      22  F1          9.3750   38.8080   59.7300  F         1 <0>        -0.1167
      23  N2          6.5190   36.0020   55.8270  N.pl3     1 <0>         0.0222
      24  O1          7.0430   35.7430   54.7580  O.2       1 <0>        -0.1446
      25  O2          5.3730   35.6540   56.0450  O.3       1 <0>        -0.1350
@<TRIPOS>BOND
     1     1     2 1
     2     2     3 1
     3     3     8 ar
     4     3     4 ar
     5     4     5 ar
     6     5     6 ar
     7     6     7 ar
     8     6     9 1
     9     7     8 ar
    10     9    21 1
    11     9    10 1
    12    10    14 1
    13    10    11 1
    14    11    12 1
    15    12    13 2
    16    13    14 1
    17    14    15 1
    18    15    20 ar
    19    15    16 ar
    20    16    17 ar
    21    16    23 1
    22    17    18 ar
    23    18    19 ar
    24    19    20 ar
    25    19    22 1
    26    20    21 1
    27    23    24 2
    28    23    25 1

@<TRIPOS>MOLECULE
ZINC03878905_replica-1.pdb
 26 28 0 0 0
SMALL
GASTEIGER

@<TRIPOS>ATOM
       1  C1          7.9690   38.6650   58.5780  C.3       1 <0>        -0.1105
       2  C2          8.5770   37.2930   58.7160  C.ar      1 <0>         0.2167
       3  C3          8.3260   36.3190   57.7680  C.ar      1 <0>        -0.2357
       4  C4          8.9150   35.0630   57.9310  C.ar      1 <0>         0.4314
       5  N1          9.6870   34.8460   58.9890  N.ar      1 <0>        -0.5584
       6  C5          9.8990   35.8050   59.8790  C.ar      1 <0>         0.4054
       7  N2          9.3530   37.0070   59.7500  N.ar      1 <0>        -0.5353
       8  C6         10.7680   35.5270   61.0490  C.ar      1 <0>        -0.0542
       9  C7         11.0080   36.5220   61.9950  C.ar      1 <0>        -0.0706
      10  C8         11.8130   36.2550   63.0830  C.ar      1 <0>        -0.1307
      11  C9         12.3890   35.0070   63.2320  C.ar      1 <0>        -0.0943
      12  C10        12.1580   34.0170   62.2930  C.ar      1 <0>        -0.1308
      13  C11        11.3510   34.2700   61.2030  C.ar      1 <0>        -0.0665
      14  N3          8.6940   34.0570   57.0020  N.pl3     1 <0>        -0.6486
      15  C12         8.0130   32.8960   57.3780  C.ar      1 <0>         0.2199
      16  C13         6.7010   32.6950   56.9680  C.ar      1 <0>        -0.1224
      17  C14         6.0320   31.5440   57.3370  C.ar      1 <0>        -0.0303
      18  C15         6.6640   30.5980   58.1230  C.ar      1 <0>        -0.0683
      19  C16         7.9680   30.7980   58.5380  C.ar      1 <0>        -0.0272
      20  C17         8.6440   31.9430   58.1680  C.ar      1 <0>        -0.1543
      21  N4          5.9420   29.3700   58.5230  N.pl3     1 <0>         0.0320
      22  O1          6.5570   28.3330   58.7050  O.2       1 <0>        -0.1644
      23  O2          4.7330   29.3940   58.6690  O.3       1 <0>        -0.1623
      24  C18         7.4420   36.6080   56.5820  C.3       1 <0>        -0.0423
      25  C19         6.0050   36.3320   56.9460  C.2       1 <0>        -0.1618
      26  C20         5.1410   36.0250   56.0120  C.2       1 <0>        -0.1758
@<TRIPOS>BOND
     1     1     2 1
     2     2     7 ar
     3     2     3 ar
     4     3     4 ar
     5     3    24 1
     6     4     5 ar
     7     4    14 1
     8     5     6 ar
     9     6     7 ar
    10     6     8 1
    11     8    13 ar
    12     8     9 ar
    13     9    10 ar
    14    10    11 ar
    15    11    12 ar
    16    12    13 ar
    17    14    15 1
    18    15    20 ar
    19    15    16 ar
    20    16    17 ar
    21    17    18 ar
    22    18    19 ar
    23    18    21 1
    24    19    20 ar
    25    21    22 2
    26    21    23 1
    27    24    25 1
    28    25    26 2

@<TRIPOS>MOLECULE
ZINC37060465_replica-1.pdb
 21 22 0 0 0
SMALL
GASTEIGER

@<TRIPOS>ATOM
       1  C1         -2.6220   30.7710   55.6830  C.3       1 <0>        -0.1726
       2  C2         -1.1540   31.1550   55.4850  C.3       1 <0>         0.1422
       3  C3         -0.6450   30.5670   54.1680  C.3       1 <0>        -0.1204
       4  C4         -1.7870   29.8340   53.4610  C.3       1 <0>        -0.0809
       5  C5         -1.3150   28.4730   53.0230  C.ar      1 <0>        -0.0848
       6  C6         -1.6770   27.9830   51.7810  C.ar      1 <0>        -0.1183
       7  C7         -1.2450   26.7330   51.3790  C.ar      1 <0>        -0.1175
       8  C8         -0.4500   25.9730   52.2160  C.ar      1 <0>        -0.1235
       9  C9         -0.0870   26.4630   53.4570  C.ar      1 <0>        -0.1170
      10  C10        -0.5160   27.7150   53.8580  C.ar      1 <0>        -0.1175
      11  N1         -0.3580   30.6280   56.5960  N.pl3     1 <0>        -0.7271
      12  C11         0.0580   31.4780   57.6250  C.ar      1 <0>         0.1971
      13  C12         0.2200   32.8350   57.3820  C.ar      1 <0>        -0.1201
      14  C13         0.6300   33.6740   58.4010  C.ar      1 <0>        -0.0082
      15  C14         0.8780   33.1640   59.6620  C.ar      1 <0>        -0.0878
      16  C15         0.7190   31.8130   59.9080  C.ar      1 <0>        -0.1016
      17  C16         0.3040   30.9680   58.8950  C.ar      1 <0>         0.0710
      18  F1          0.1430   29.6490   59.1370  F         1 <0>        -0.1252
      19  N2          0.8030   35.1220   58.1430  N.pl3     1 <0>         0.0326
      20  O1          0.3350   35.6170   57.1430  O.2       1 <0>        -0.1556
      21  O2          1.4100   35.8080   58.9300  O.3       1 <0>        -0.1505
@<TRIPOS>BOND
     1     1     2 1
     2     2     3 1
     3     2    11 1
     4     3     4 1
     5     4     5 1
     6     5    10 ar
     7     5     6 ar
     8     6     7 ar
     9     7     8 ar
    10     8     9 ar
    11     9    10 ar
    12    11    12 1
    13    12    17 ar
    14    12    13 ar
    15    13    14 ar
    16    14    15 ar
    17    14    19 1
    18    15    16 ar
    19    16    17 ar
    20    17    18 1
    21    19    20 2
    22    19    21 1

@<TRIPOS>MOLECULE
ZINC57684555_replica-1.pdb
 23 24 0 0 0
SMALL
GASTEIGER

@<TRIPOS>ATOM
       1  C1          0.9680   35.0980   58.6040  C.3       1 <0>        -0.1393
       2  C2          1.1360   34.0590   59.7150  C.3       1 <0>        -0.0263
       3  C3          2.6010   34.0110   60.1520  C.3       1 <0>        -0.1395
       4  C4          0.2600   34.4420   60.9090  C.3       1 <0>        -0.1460
       5  C5          0.7200   32.7040   59.2020  C.ar      1 <0>        -0.1071
       6  C6          0.1580   32.5850   57.9450  C.ar      1 <0>        -0.0814
       7  C7         -0.2260   31.3450   57.4720  C.ar      1 <0>        -0.1499
       8  C8         -0.0450   30.2180   58.2600  C.ar      1 <0>         0.1252
       9  C9          0.5200   30.3400   59.5220  C.ar      1 <0>        -0.2061
      10  C10         0.9060   31.5820   59.9880  C.ar      1 <0>        -0.0752
      11  O1         -0.4220   28.9960   57.7990  O.3       1 <0>        -0.3159
      12  C11         0.5500   27.9510   57.8640  C.3       1 <0>         0.0608
      13  C12         0.5190   27.1460   56.5630  C.3       1 <0>        -0.1254
      14  C13        -0.6240   27.6480   55.6790  C.3       1 <0>        -0.1060
      15  C14        -0.0510   28.2180   54.3790  C.3       1 <0>         0.0549
      16  C15        -0.5350   29.5950   54.1920  C.1       1 <0>         0.2067
      17  N1         -0.9080   30.6580   54.0470  N.1       1 <0>        -0.4206
      18  C16        -0.4970   27.3670   53.2180  C.ar      1 <0>        -0.0903
      19  C17        -0.1010   26.0460   53.1370  C.ar      1 <0>        -0.1061
      20  C18        -0.5090   25.2650   52.0710  C.ar      1 <0>        -0.1171
      21  C19        -1.3170   25.8060   51.0880  C.ar      1 <0>        -0.1124
      22  C20        -1.7140   27.1270   51.1690  C.ar      1 <0>        -0.1176
      23  C21        -1.3080   27.9060   52.2370  C.ar      1 <0>        -0.1033
@<TRIPOS>BOND
     1     1     2 1
     2     2     3 1
     3     2     4 1
     4     2     5 1
     5     5    10 ar
     6     5     6 ar
     7     6     7 ar
     8     7     8 ar
     9     8     9 ar
    10     8    11 1
    11     9    10 ar
    12    11    12 1
    13    12    13 1
    14    13    14 1
    15    14    15 1
    16    15    16 1
    17    15    18 1
    18    16    17 3
    19    18    23 ar
    20    18    19 ar
    21    19    20 ar
    22    20    21 ar
    23    21    22 ar
    24    22    23 ar

@<TRIPOS>MOLECULE
ZINC32004719_replica-1.pdb
 21 23 0 0 0
SMALL
GASTEIGER

@<TRIPOS>ATOM
      1  C1         7.7800   38.6940   58.2370 C.3     0  <0>0        0.1306
      2  N1         8.2560   37.3090   58.1940 N.ar    0  <0>0       -0.3200
      3  C2         9.0230   36.6960   59.1570 C.ar    0  <0>0        0.0601
      4  C3         9.5500   37.1330   60.3710 C.ar    0  <0>0        0.0172
      5  C4        10.2930   36.2870   61.1410 C.ar    0  <0>0        0.0015
      6  C5        10.5360   34.9720   60.7270 C.ar    0  <0>0        0.0001
      7  C6        10.0220   34.5130   59.5250 C.ar    0  <0>0        0.0015
      8  C7         9.2600   35.3750   58.7290 C.ar    0  <0>0        0.0175
      9  C8         8.6090   35.2230   57.4800 C.ar    0  <0>0        0.0254
     10  C9         8.0100   36.4050   57.1790 C.ar    0  <0>0        0.1408
     11  C11       11.3410   34.0650   61.5830 C.ar    0  <0>0        0.0009
     12  C16       12.6610   34.3870   61.8920 C.ar    0  <0>0        0.0122
     13  C15       13.4050   33.5430   62.6940 C.ar    0  <0>0        0.0682
     14  C14       12.8440   32.3730   63.1800 C.ar    0  <0>0        0.0682
     15 Cl         15.0470   33.9450   63.0880 Cl      0  <0>0       -0.0814
     16  C13       11.5340   32.0470   62.8690 C.ar    0  <0>0        0.0122
     17 Cl         13.7850   31.3120   64.1810 Cl      0  <0>0       -0.0814
     18  C12       10.7820   32.8870   62.0740 C.ar    0  <0>0        0.0009
     19  C10        7.2270   36.6790   55.9660 C.2     0  <0>0        0.4033
     20  O1         7.7880   36.7930   54.8930 O.co2   0  <0>0       -0.2389
     21  O2         5.8860   36.8030   56.0430 O.co2   0  <0>0       -0.2389
@<TRIPOS>BOND
     1    20    19   ar
     2    19    21   ar
     3    19    10    1
     4    10     9   ar
     5    10     2   ar
     6     9     8   ar
     7     2     1    1
     8     2     3   ar
     9     8     3   ar
    10     8     7   ar
    11     3     4   ar
    12     7     6   ar
    13     4     5   ar
    14     6     5   ar
    15     6    11    1
    16    11    12   ar
    17    11    18   ar
    18    12    13   ar
    19    18    16   ar
    20    13    15    1
    21    13    14   ar
    22    16    14   ar
    23    14    17    1


@<TRIPOS>MOLECULE
ZINC66128516_replica-1.pdb
 27 30 0 0 0
SMALL
GASTEIGER

@<TRIPOS>ATOM
       1  C1          2.4020   34.8740   58.5370  C.3       1 <0>        -0.1546
       2  C2          3.5640   34.5970   57.5820  C.3       1 <0>        -0.1142
       3  C3          4.2010   35.9220   57.1560  C.3       1 <0>         0.0681
       4  C4          3.6590   36.3300   55.7850  C.3       1 <0>        -0.1746
       5  O1          5.6200   35.7650   57.0810  O.3       1 <0>        -0.2788
       6  C5          6.3300   36.0370   58.2080  C.ar      1 <0>         0.1668
       7  C6          5.6830   36.5930   59.3150  C.ar      1 <0>        -0.1972
       8  C7          6.3670   36.8770   60.4550  C.ar      1 <0>        -0.0535
       9  C8          7.7450   36.6080   60.5270  C.ar      1 <0>        -0.0882
      10  C9          8.4820   36.8870   61.6900  C.ar      1 <0>        -0.0877
      11  C10         9.8150   36.6140   61.7240  C.ar      1 <0>        -0.1324
      12  C11        10.4630   36.0590   60.6220  C.ar      1 <0>        -0.0978
      13  C12         9.7810   35.7750   59.4790  C.ar      1 <0>        -0.1201
      14  C13         8.4030   36.0440   59.4050  C.ar      1 <0>         0.0125
      15  C14         7.6660   35.7590   58.2440  C.ar      1 <0>        -0.1763
      16  C15         8.3480   35.1530   57.0440  C.3       1 <0>         0.4411
      17  N1          8.9940   33.8950   57.4350  N.pl3     1 <0>        -0.7469
      18  C16         8.1970   32.7710   57.6260  C.ar      1 <0>         0.2343
      19  C17         8.5400   31.7720   58.5210  C.ar      1 <0>        -0.1818
      20  C18         7.7120   30.6780   58.6740  C.ar      1 <0>        -0.0570
      21  C19         6.5400   30.5730   57.9410  C.ar      1 <0>        -0.1728
      22  C20         6.1840   31.5590   57.0440  C.ar      1 <0>        -0.0265
      23  C21         7.0110   32.6660   56.8780  C.ar      1 <0>        -0.1942
      24  C22         6.6830   33.7440   55.9270  C.2       1 <0>         0.5870
      25  O2          5.8160   33.5840   55.0910  O.2       1 <0>        -0.5293
      26  N2          7.3570   34.9070   55.9970  N.am      1 <0>        -0.5998
      27  C23         7.0880   35.9490   55.0020  C.3       1 <0>         0.0991
@<TRIPOS>BOND
     1     1     2 1
     2     2     3 1
     3     3     4 1
     4     3     5 1
     5     5     6 1
     6     6    15 ar
     7     6     7 ar
     8     7     8 ar
     9     8     9 ar
    10     9    14 ar
    11     9    10 ar
    12    10    11 ar
    13    11    12 ar
    14    12    13 ar
    15    13    14 ar
    16    14    15 ar
    17    15    16 1
    18    16    26 1
    19    16    17 1
    20    17    18 1
    21    18    23 ar
    22    18    19 ar
    23    19    20 ar
    24    20    21 ar
    25    21    22 ar
    26    22    23 ar
    27    23    24 1
    28    24    25 2
    29    24    26 am
    30    26    27 1

@<TRIPOS>MOLECULE
ZINC03953784_replica-1.pdb
 20 21 0 0 0
SMALL
GASTEIGER

@<TRIPOS>ATOM
       1  C1         -0.4360   25.6760   52.2090  C.ar      1 <0>        -0.1639
       2  C2         -0.0210   26.2870   53.3790  C.ar      1 <0>        -0.0772
       3  C3         -0.4160   27.5790   53.6620  C.ar      1 <0>        -0.1793
       4  C4         -1.2320   28.2670   52.7710  C.ar      1 <0>         0.1833
       5  C5         -1.6470   27.6500   51.5970  C.ar      1 <0>        -0.1827
       6  C6         -1.2480   26.3570   51.3200  C.ar      1 <0>        -0.0771
       7  N1         -1.6330   29.5730   53.0540  N.pl3     1 <0>        -0.6676
       8  C7         -1.1720   30.2080   54.1950  C.2       1 <0>         0.1065
       9  C8         -2.0260   30.5120   55.1870  C.2       1 <0>        -0.2215
      10  C9         -1.5390   31.1820   56.3910  C.2       1 <0>        -0.1093
      11  C10        -0.2580   31.6100   56.4550  C.2       1 <0>        -0.1093
      12  C11         0.2300   32.2800   57.6600  C.2       1 <0>        -0.2215
      13  C12        -0.1750   33.5300   57.9440  C.2       1 <0>         0.1065
      14  N2          0.2870   34.1640   59.0840  N.pl3     1 <0>        -0.6676
      15  C13         1.6300   34.5300   59.1840  C.ar      1 <0>         0.1832
      16  C14         2.1080   35.6260   58.4760  C.ar      1 <0>        -0.1828
      17  C15         3.4370   35.9850   58.5770  C.ar      1 <0>        -0.0771
      18  C16         4.2930   35.2570   59.3830  C.ar      1 <0>        -0.1639
      19  C17         3.8210   34.1660   60.0900  C.ar      1 <0>        -0.0772
      20  C18         2.4920   33.8040   59.9990  C.ar      1 <0>        -0.1793
@<TRIPOS>BOND
     1     1     6 ar
     2     1     2 ar
     3     2     3 ar
     4     3     4 ar
     5     4     5 ar
     6     4     7 1
     7     5     6 ar
     8     7     8 1
     9     8     9 2
    10     9    10 1
    11    10    11 2
    12    11    12 1
    13    12    13 2
    14    13    14 1
    15    14    15 1
    16    15    20 ar
    17    15    16 ar
    18    16    17 ar
    19    17    18 ar
    20    18    19 ar
    21    19    20 ar

@<TRIPOS>MOLECULE
ZINC05267961_replica-1.pdb
 25 28 0 0 0
SMALL
GASTEIGER

@<TRIPOS>ATOM
       1  C1         12.7030   29.2880   63.9450  C.3       1 <0>        -0.1173
       2  C2         12.5900   30.7590   63.6370  C.ar      1 <0>        -0.0752
       3  C3         11.3500   31.3210   63.3930  C.ar      1 <0>        -0.1259
       4  C4         11.2480   32.6710   63.1110  C.ar      1 <0>        -0.0948
       5  C5         12.3840   33.4580   63.0710  C.ar      1 <0>        -0.0857
       6  C6         13.6230   32.8950   63.3090  C.ar      1 <0>        -0.0605
       7  C7         13.7250   31.5460   63.5980  C.ar      1 <0>        -0.1210
       8  C8         14.8620   33.7510   63.2610  C.3       1 <0>        -0.1178
       9  C9         12.2710   34.9280   62.7620  C.3       1 <0>        -0.0927
      10  C10        11.3700   35.1230   61.5700  C.2       1 <0>         0.5062
      11  O1         11.6050   34.5430   60.5310  O.2       1 <0>        -0.4473
      12  N1         10.3020   35.9410   61.6580  N.am      1 <0>        -0.6199
      13  C11         9.4730   36.1200   60.5610  C.2       1 <0>         0.3763
      14  N2          9.4620   37.0980   59.6880  N.2       1 <0>        -0.5010
      15  C12         8.5890   37.1440   58.6590  C.ar      1 <0>         0.1325
      16  C13         8.4690   38.1340   57.6500  C.ar      1 <0>        -0.0575
      17  C14         7.5420   38.0560   56.6720  C.ar      1 <0>        -0.0472
      18  C15         6.6270   36.9780   56.5860  C.ar      1 <0>         0.0970
      19  C16         6.7400   35.9870   57.5860  C.ar      1 <0>        -0.1026
      20  C17         7.6790   36.0670   58.5780  C.ar      1 <0>        -0.1088
      21  S1          8.1450   35.0760   59.9790  S.3       1 <0>         0.0324
      22  S2          5.4510   34.8540   57.1290  S.3       1 <0>         0.0474
      23  C18         4.8800   35.7080   55.7290  C.2       1 <0>         0.1388
      24  N3          5.6530   36.7550   55.6810  N.2       1 <0>        -0.5013
      25  C19         3.7590   35.3290   54.7950  C.3       1 <0>        -0.0705
@<TRIPOS>BOND
     1     1     2 1
     2     2     7 ar
     3     2     3 ar
     4     3     4 ar
     5     4     5 ar
     6     5     6 ar
     7     5     9 1
     8     6     7 ar
     9     6     8 1
    10     9    10 1
    11    10    11 2
    12    10    12 am
    13    12    13 1
    14    13    21 1
    15    13    14 2
    16    14    15 1
    17    15    20 ar
    18    15    16 ar
    19    16    17 ar
    20    17    18 ar
    21    18    24 1
    22    18    19 ar
    23    19    20 ar
    24    19    22 1
    25    20    21 1
    26    22    23 1
    27    23    24 2
    28    23    25 1

@<TRIPOS>MOLECULE
ZINC13421470_replica-1.pdb
 27 29 0 0 0
SMALL
GASTEIGER

@<TRIPOS>ATOM
       1  C1         -0.6900   26.7080   51.9510  C.ar      1 <0>        -0.1143
       2  C2         -0.0350   26.4300   53.1360  C.ar      1 <0>        -0.1158
       3  C3         -0.0870   27.3320   54.1830  C.ar      1 <0>        -0.0998
       4  C4         -0.7940   28.5110   54.0440  C.ar      1 <0>        -0.0917
       5  C5         -1.4530   28.7870   52.8600  C.ar      1 <0>        -0.1072
       6  C6         -1.3970   27.8870   51.8120  C.ar      1 <0>        -0.1139
       7  C7         -0.8510   29.4940   55.1850  C.3       1 <0>         0.2787
       8  C8         -1.2120   28.7690   56.4560  C.2       1 <0>        -0.1514
       9  C9         -2.4240   28.3250   56.8700  C.2       1 <0>        -0.1424
      10  C10        -2.5200   27.6740   58.0860  C.2       1 <0>        -0.1555
      11  C11        -1.4010   27.5080   58.8330  C.2       1 <0>        -0.1737
      12  S1         -0.1570   28.2780   57.8100  S.3       1 <0>         0.0474
      13  N1          0.4570   30.1340   55.3430  N.am      1 <0>        -0.7261
      14  C12         0.5420   31.3760   55.8610  C.2       1 <0>         0.5225
      15  O1         -0.4660   31.9640   56.1950  O.2       1 <0>        -0.5040
      16  C13         1.8860   32.0350   56.0240  C.3       1 <0>         0.0440
      17  O2          1.7060   33.4060   56.3830  O.3       1 <0>        -0.2938
      18  C14         2.7920   34.2180   56.2870  C.ar      1 <0>         0.1007
      19  C15         3.6640   34.0870   55.2160  C.ar      1 <0>        -0.1413
      20  C16         4.7680   34.9130   55.1210  C.ar      1 <0>        -0.0758
      21  C17         5.0020   35.8690   56.0920  C.ar      1 <0>        -0.0600
      22  C18         4.1370   35.9980   57.1620  C.ar      1 <0>        -0.0770
      23  C19         3.0290   35.1790   57.2590  C.ar      1 <0>        -0.2047
      24  C20         6.2070   36.7700   55.9850  C.3       1 <0>        -0.1286
      25  C21         7.0750   36.5940   57.2050  C.2       1 <0>         0.4641
      26  O3          7.2650   37.5260   57.9500  O.co2     1 <0>        -0.6303
      27  O4          7.6310   35.4010   57.4660  O.co2     1 <0>        -0.7738
@<TRIPOS>BOND
     1     1     6 ar
     2     1     2 ar
     3     2     3 ar
     4     3     4 ar
     5     4     5 ar
     6     4     7 1
     7     5     6 ar
     8     7     8 1
     9     7    13 1
    10     8    12 1
    11     8     9 2
    12     9    10 1
    13    10    11 2
    14    11    12 1
    15    13    14 am
    16    14    15 2
    17    14    16 1
    18    16    17 1
    19    17    18 1
    20    18    23 ar
    21    18    19 ar
    22    19    20 ar
    23    20    21 ar
    24    21    22 ar
    25    21    24 1
    26    22    23 ar
    27    24    25 1
    28    25    26 2
    29    25    27 1

@<TRIPOS>MOLECULE
ZINC58415127_replica-1.pdb
 25 28 0 0 0
SMALL
GASTEIGER

@<TRIPOS>ATOM
       1  C1          2.0330   36.0020   58.6260  C.3       1 <0>        -0.1132
       2  C2          1.4330   34.6440   58.3700  C.ar      1 <0>        -0.1422
       3  C3          1.3680   33.7240   59.3770  C.ar      1 <0>        -0.0456
       4  C4          0.7980   32.4680   59.0940  C.ar      1 <0>        -0.1167
       5  C5          0.6970   31.4720   60.0780  C.ar      1 <0>        -0.0336
       6  C6          0.1390   30.2710   59.7640  C.ar      1 <0>        -0.1468
       7  C7         -0.3320   30.0150   58.4780  C.ar      1 <0>         0.0240
       8  C8         -0.2500   30.9570   57.5000  C.ar      1 <0>        -0.6667
       9  C9          0.3190   32.2110   57.7850  C.ar      1 <0>         0.2002
      10  N1          0.4120   33.1560   56.8450  N.ar      1 <0>        -0.4830
      11  C10         0.9380   34.3290   57.1070  C.ar      1 <0>         0.1632
      12  S1         -0.8530   30.6070   55.8810  S.o2      1 <0>         2.6993
      13  O1         -2.1590   31.1620   55.8060  O.2       1 <0>        -0.9337
      14  O2          0.1820   30.9680   54.9770  O.2       1 <0>        -0.9639
      15  N2         -1.0290   28.9650   55.7680  N.pl3     1 <0>        -1.1021
      16  C11         0.0420   28.1520   55.1880  C.3       1 <0>         0.1743
      17  C12         0.3370   26.9330   56.0880  C.3       1 <0>        -0.1256
      18  C13         0.6970   25.8410   55.0600  C.3       1 <0>        -0.0826
      19  C14        -0.0220   26.2400   53.7890  C.ar      1 <0>        -0.0602
      20  C15        -0.3980   27.5710   53.8610  C.ar      1 <0>        -0.1159
      21  C16        -1.0730   28.1580   52.8040  C.ar      1 <0>        -0.0692
      22  C17        -1.3730   27.4210   51.6750  C.ar      1 <0>        -0.1549
      23  C18        -0.9970   26.0910   51.5990  C.ar      1 <0>         0.1031
      24  C19        -0.3240   25.5000   52.6580  C.ar      1 <0>        -0.1420
      25  F1         -1.2900   25.3670   50.4960  F         1 <0>        -0.1378
@<TRIPOS>BOND
     1     1     2 1
     2     2    11 ar
     3     2     3 ar
     4     3     4 ar
     5     4     9 ar
     6     4     5 ar
     7     5     6 ar
     8     6     7 ar
     9     7     8 ar
    10     8     9 ar
    11     8    12 1
    12     9    10 ar
    13    10    11 ar
    14    12    13 2
    15    12    14 2
    16    12    15 1
    17    15    16 1
    18    16    20 1
    19    16    17 1
    20    17    18 1
    21    18    19 1
    22    19    24 ar
    23    19    20 ar
    24    20    21 ar
    25    21    22 ar
    26    22    23 ar
    27    23    24 ar
    28    23    25 1

@<TRIPOS>MOLECULE
ZINC39726224_replica-1.pdb
 30 34 0 0 0
SMALL
GASTEIGER

@<TRIPOS>ATOM
       1  C1          6.2960   33.3710   59.8360  C.3       1 <0>        -0.1444
       2  C2          7.0010   33.3090   58.4800  C.3       1 <0>        -0.0206
       3  C3          6.4190   34.3530   57.5630  C.ar      1 <0>        -0.0711
       4  C4          5.2010   34.9350   57.8630  C.ar      1 <0>        -0.1007
       5  C5          4.6670   35.8930   57.0210  C.ar      1 <0>        -0.1178
       6  C6          5.3500   36.2700   55.8800  C.ar      1 <0>        -0.1132
       7  C7          6.5690   35.6890   55.5820  C.ar      1 <0>        -0.1182
       8  C8          7.1050   34.7340   56.4260  C.ar      1 <0>        -0.1015
       9  S1          8.7740   33.6220   58.7050  S.3       1 <0>        -0.1819
      10  C9          8.9190   34.0940   60.4500  C.3       1 <0>         0.3001
      11  N1          9.7530   33.0840   61.1060  N.2       1 <0>        -0.3990
      12  C10        10.8330   33.4260   61.7240  C.2       1 <0>         0.1928
      13  C11        11.8840   32.6970   62.4740  C.ar      1 <0>        -0.0882
      14  C12        12.0970   31.3690   62.7910  C.ar      1 <0>        -0.0547
      15  C13        13.2140   31.0070   63.5300  C.ar      1 <0>        -0.0919
      16  C14        14.1130   31.9720   63.9490  C.ar      1 <0>        -0.0988
      17  C15        13.9160   33.3030   63.6390  C.ar      1 <0>        -0.0426
      18  C16        12.7950   33.6900   62.8950  C.ar      1 <0>         0.0480
      19  N2         12.3740   34.9050   62.4650  N.2       1 <0>        -0.3340
      20  C17        11.2600   34.8500   61.7860  C.2       1 <0>         0.0761
      21  C18        10.4290   35.8800   61.1300  C.2       1 <0>         0.5914
      22  O1         10.7580   37.0500   61.1680  O.2       1 <0>        -0.4661
      23  N3          9.3030   35.5070   60.4880  N.am      1 <0>        -0.5512
      24  C19         8.5040   36.4680   59.8600  C.ar      1 <0>         0.0928
      25  C20         8.9160   37.0440   58.6650  C.ar      1 <0>        -0.0721
      26  C21         8.1260   37.9930   58.0470  C.ar      1 <0>        -0.1236
      27  C22         6.9230   38.3690   58.6150  C.ar      1 <0>        -0.0717
      28  C23         6.5070   37.7990   59.8040  C.ar      1 <0>        -0.1496
      29  C24         7.2910   36.8430   60.4250  C.ar      1 <0>         0.1336
      30  F1          6.8810   36.2820   61.5840  F         1 <0>        -0.1207
@<TRIPOS>BOND
     1     1     2 1
     2     2     3 1
     3     2     9 1
     4     3     8 ar
     5     3     4 ar
     6     4     5 ar
     7     5     6 ar
     8     6     7 ar
     9     7     8 ar
    10     9    10 1
    11    10    23 1
    12    10    11 1
    13    11    12 2
    14    12    20 1
    15    12    13 1
    16    13    18 ar
    17    13    14 ar
    18    14    15 ar
    19    15    16 ar
    20    16    17 ar
    21    17    18 ar
    22    18    19 1
    23    19    20 2
    24    20    21 1
    25    21    22 2
    26    21    23 am
    27    23    24 1
    28    24    29 ar
    29    24    25 ar
    30    25    26 ar
    31    26    27 ar
    32    27    28 ar
    33    28    29 ar
    34    29    30 1

@<TRIPOS>MOLECULE
ZINC02399711_replica-1.pdb
 29 31 0 0 0
SMALL
GASTEIGER

@<TRIPOS>ATOM
       1  C1         11.1380   36.2900   62.0190  C.3       1 <0>        -0.1219
       2  C2         10.0700   36.1120   60.9720  C.ar      1 <0>        -0.0608
       3  C3         10.2920   35.2740   59.8950  C.ar      1 <0>        -0.1090
       4  C4          9.3140   35.1090   58.9330  C.ar      1 <0>        -0.0893
       5  C5          8.1060   35.7840   59.0500  C.ar      1 <0>         0.0995
       6  C6          7.8870   36.6240   60.1320  C.ar      1 <0>        -0.0890
       7  C7          8.8670   36.7820   61.0930  C.ar      1 <0>        -0.1093
       8  N1          7.1130   35.6190   58.0760  N.am      1 <0>        -0.4926
       9  C8          6.2020   34.6040   58.2120  C.2       1 <0>         0.2987
      10  C9          5.2350   34.4170   57.2900  C.2       1 <0>        -0.3402
      11  C10         4.3020   33.3710   57.4220  C.2       1 <0>         0.3909
      12  O1          3.4330   33.2400   56.5820  O.2       1 <0>        -0.4280
      13  C11         4.3590   32.4140   58.5810  C.3       1 <0>        -0.1486
      14  C12         5.8080   32.3050   59.0650  C.3       1 <0>        -0.0547
      15  C13         6.3060   33.7060   59.4210  C.3       1 <0>        -0.0962
      16  C14         5.8720   31.4060   60.3020  C.3       1 <0>        -0.1406
      17  C15         6.6790   31.7140   57.9550  C.3       1 <0>        -0.1558
      18  C16         5.1200   35.3170   56.0890  C.3       1 <0>         0.1630
      19  N2          6.1470   36.3460   56.0740  N.am      1 <0>        -0.7045
      20  C17         7.0730   36.4600   57.0340  C.2       1 <0>         0.7202
      21  O2          7.9000   37.3460   56.9550  O.2       1 <0>        -0.5151
      22  C18         3.7450   35.9900   56.1020  C.3       1 <0>         0.4452
      23  F1          2.8070   35.1460   55.4980  F         1 <0>        -0.1640
      24  F2          3.3630   36.2440   57.4230  F         1 <0>        -0.1696
      25  F3          3.8090   37.1970   55.3950  F         1 <0>        -0.1299
      26  C19         5.2440   34.4710   54.8200  C.3       1 <0>         0.4454
      27  F4          5.9510   33.2990   55.1080  F         1 <0>        -0.1301
      28  F5          3.9680   34.1430   54.3510  F         1 <0>        -0.1695
      29  F6          5.9270   35.1990   53.8400  F         1 <0>        -0.1634
@<TRIPOS>BOND
     1     1     2 1
     2     2     7 ar
     3     2     3 ar
     4     3     4 ar
     5     4     5 ar
     6     5     6 ar
     7     5     8 1
     8     6     7 ar
     9     8    20 am
    10     8     9 1
    11     9    15 1
    12     9    10 2
    13    10    11 1
    14    10    18 1
    15    11    12 2
    16    11    13 1
    17    13    14 1
    18    14    15 1
    19    14    16 1
    20    14    17 1
    21    18    19 1
    22    18    22 1
    23    18    26 1
    24    19    20 am
    25    20    21 2
    26    22    23 1
    27    22    24 1
    28    22    25 1
    29    26    27 1
    30    26    28 1
    31    26    29 1

@<TRIPOS>MOLECULE
ZINC41631480_replica-1.pdb
 26 27 0 0 0
SMALL
GASTEIGER

@<TRIPOS>ATOM
       1  C1          0.0000   28.5030   58.5500  C.3       1 <0>        -0.1545
       2  C2         -1.1800   29.4240   58.2340  C.3       1 <0>        -0.0972
       3  C3         -0.9320   30.1330   56.9000  C.3       1 <0>        -0.1008
       4  C4         -1.2050   29.1800   55.7660  C.2       1 <0>         0.5398
       5  O1         -2.2400   28.5480   55.7420  O.2       1 <0>        -0.5011
       6  N1         -0.3000   29.0280   54.7800  N.am      1 <0>        -0.6617
       7  C5         -0.5040   28.0650   53.7820  C.ar      1 <0>         0.1211
       8  C6          0.0540   26.8010   53.9100  C.ar      1 <0>        -0.0721
       9  C7         -0.1470   25.8550   52.9250  C.ar      1 <0>        -0.1445
      10  C8         -0.9080   26.1640   51.8100  C.ar      1 <0>         0.1050
      11  C9         -1.4660   27.4250   51.6780  C.ar      1 <0>        -0.1730
      12  C10        -1.2710   28.3740   52.6650  C.ar      1 <0>         0.1080
      13  F1         -1.8220   29.6020   52.5390  F         1 <0>        -0.1228
      14  F2         -1.1040   25.2360   50.8480  F         1 <0>        -0.1356
      15  S1          0.7940   30.6880   56.8240  S.3       1 <0>         0.0190
      16  C11         0.8080   32.1680   57.7800  C.ar      1 <0>         0.3285
      17  N2          0.5410   33.3230   57.1880  N.ar      1 <0>        -0.6097
      18  C12         0.5430   34.4560   57.8800  C.ar      1 <0>         0.4468
      19  O2          0.2690   35.6350   57.2710  O.3       1 <0>        -0.6954
      20  C13         0.8320   34.4140   59.2440  C.ar      1 <0>        -0.3079
      21  C14         1.1060   33.1910   59.8240  C.ar      1 <0>         0.1863
      22  N3          1.0810   32.0990   59.0760  N.ar      1 <0>        -0.5730
      23  C15         1.4240   33.0990   61.2940  C.3       1 <0>        -0.0200
      24  S2         -0.1180   32.9520   62.2390  S.3       1 <0>        -0.2419
      25  C16        -0.4420   31.1680   62.2770  C.3       1 <0>        -0.0976
      26  C17        -0.4820   30.6880   63.7280  C.3       1 <0>        -0.1335
@<TRIPOS>BOND
     1     1     2 1
     2     2     3 1
     3     3     4 1
     4     3    15 1
     5     4     5 2
     6     4     6 am
     7     6     7 1
     8     7    12 ar
     9     7     8 ar
    10     8     9 ar
    11     9    10 ar
    12    10    11 ar
    13    10    14 1
    14    11    12 ar
    15    12    13 1
    16    15    16 1
    17    16    22 ar
    18    16    17 ar
    19    17    18 ar
    20    18    19 1
    21    18    20 ar
    22    20    21 ar
    23    21    22 ar
    24    21    23 1
    25    23    24 1
    26    24    25 1
    27    25    26 1

@<TRIPOS>MOLECULE
ZINC32188358_replica-1.pdb
 22 23 0 0 0
SMALL
GASTEIGER

@<TRIPOS>ATOM
       1  C1         -0.9700   25.3950   51.5060  C.3       1 <0>        -0.1457
       2  C2         -0.5670   26.8370   51.8160  C.3       1 <0>        -0.0589
       3  C3         -1.6520   27.7900   51.3070  C.3       1 <0>        -0.1460
       4  C4         -0.4100   27.0070   53.3050  C.ar      1 <0>        -0.0362
       5  C5          0.3870   26.1320   54.0210  C.ar      1 <0>        -0.1529
       6  C6          0.5340   26.2860   55.3860  C.ar      1 <0>        -0.0767
       7  C7         -0.1160   27.3150   56.0410  C.ar      1 <0>        -0.2160
       8  C8         -0.9160   28.1950   55.3260  C.ar      1 <0>         0.1329
       9  C9         -1.0660   28.0350   53.9550  C.ar      1 <0>        -0.1499
      10  O1         -1.5560   29.2080   55.9670  O.3       1 <0>        -0.3048
      11  C10        -1.4060   30.5190   55.4190  C.3       1 <0>         0.0687
      12  C11        -0.0150   31.0570   55.7600  C.3       1 <0>         0.1107
      13  C12        -0.1370   32.1510   56.8230  C.3       1 <0>         0.1006
      14  N1          0.2550   33.4390   56.2460  N.pl3     1 <0>        -0.7546
      15  C13         1.1620   34.2610   56.9210  C.ar      1 <0>         0.1943
      16  C14         0.7380   35.0270   57.9980  C.ar      1 <0>        -0.1776
      17  C15         1.6370   35.8360   58.6660  C.ar      1 <0>        -0.0784
      18  C16         2.9570   35.8900   58.2580  C.ar      1 <0>        -0.1515
      19  C17         3.3840   35.1320   57.1830  C.ar      1 <0>        -0.1048
      20  C18         2.4900   34.3170   56.5120  C.ar      1 <0>         0.0177
      21  F1          2.9060   33.5780   55.4610  F         1 <0>        -0.1443
      22  O2          0.5860   31.6020   54.5840  O.3       1 <0>        -0.5830
@<TRIPOS>BOND
     1     1     2 1
     2     2     3 1
     3     2     4 1
     4     4     9 ar
     5     4     5 ar
     6     5     6 ar
     7     6     7 ar
     8     7     8 ar
     9     8     9 ar
    10     8    10 1
    11    10    11 1
    12    11    12 1
    13    12    13 1
    14    12    22 1
    15    13    14 1
    16    14    15 1
    17    15    20 ar
    18    15    16 ar
    19    16    17 ar
    20    17    18 ar
    21    18    19 ar
    22    19    20 ar
    23    20    21 1

@<TRIPOS>MOLECULE
ZINC59739900_replica-1.pdb
 24 26 0 0 0
SMALL
GASTEIGER

@<TRIPOS>ATOM
       1  C1         -2.8290   30.1340   55.5450  C.3       1 <0>        -0.1531
       2  C2         -1.3700   29.8050   55.8670  C.3       1 <0>        -0.0631
       3  C3         -1.0930   28.3380   55.5340  C.3       1 <0>        -0.0968
       4  C4          0.0320   28.2530   54.4990  C.3       1 <0>        -0.0874
       5  C5         -0.4140   27.3970   53.3430  C.ar      1 <0>        -0.0830
       6  C6         -1.1750   27.9470   52.3280  C.ar      1 <0>        -0.1173
       7  C7         -1.5840   27.1610   51.2670  C.ar      1 <0>        -0.1179
       8  C8         -1.2310   25.8260   51.2190  C.ar      1 <0>        -0.1240
       9  C9         -0.4690   25.2760   52.2330  C.ar      1 <0>        -0.1179
      10  C10        -0.0570   26.0620   53.2920  C.ar      1 <0>        -0.1171
      11  S1         -0.2780   30.8670   54.8800  S.3       1 <0>        -0.0017
      12  C11         0.2900   32.0780   56.0260  C.2       1 <0>         0.2685
      13  N1          1.4930   32.6070   56.0580  N.2       1 <0>        -0.5302
      14  C12         1.5690   33.4940   57.0610  C.2       1 <0>         0.2855
      15  N2          0.4100   33.5360   57.6800  N.2       1 <0>        -0.3003
      16  N3         -0.4380   32.6300   57.0230  N.pl3     1 <0>        -0.4626
      17  C13         2.7670   34.2940   57.4160  C.ar      1 <0>        -0.0583
      18  C14         2.6900   35.2610   58.4150  C.ar      1 <0>        -0.0337
      19  C15         3.8050   36.0020   58.7440  C.ar      1 <0>        -0.1564
      20  C16         5.0050   35.7850   58.0800  C.ar      1 <0>         0.1458
      21  C17         5.0860   34.8210   57.0830  C.ar      1 <0>        -0.2129
      22  C18         3.9750   34.0740   56.7550  C.ar      1 <0>        -0.0403
      23  O1          6.1020   36.5170   58.4050  O.3       1 <0>        -0.3145
      24  C19         6.9230   36.9700   57.3280  C.3       1 <0>         0.0245
@<TRIPOS>BOND
     1     1     2 1
     2     2     3 1
     3     2    11 1
     4     3     4 1
     5     4     5 1
     6     5    10 ar
     7     5     6 ar
     8     6     7 ar
     9     7     8 ar
    10     8     9 ar
    11     9    10 ar
    12    11    12 1
    13    12    13 2
    14    12    16 1
    15    13    14 1
    16    14    17 1
    17    14    15 2
    18    15    16 1
    19    17    22 ar
    20    17    18 ar
    21    18    19 ar
    22    19    20 ar
    23    20    21 ar
    24    20    23 1
    25    21    22 ar
    26    23    24 1

@<TRIPOS>MOLECULE
ZINC05932584_replica-1.pdb
 23 25 0 0 0
SMALL
GASTEIGER

@<TRIPOS>ATOM
       1  C1          0.2310   34.0540   60.9240  C.3       1 <0>         0.0252
       2  O1          1.2470   34.7370   60.1850  O.3       1 <0>        -0.3115
       3  C2          2.3110   34.0000   59.7730  C.ar      1 <0>         0.1426
       4  C3          2.4810   32.7040   60.2390  C.ar      1 <0>        -0.1861
       5  C4          3.5630   31.9540   59.8200  C.ar      1 <0>        -0.0669
       6  C5          4.4770   32.4900   58.9350  C.ar      1 <0>        -0.1219
       7  C6          4.3090   33.7840   58.4610  C.ar      1 <0>         0.1292
       8  C7          3.2270   34.5420   58.8840  C.ar      1 <0>        -0.1158
       9  N1          5.2350   34.3270   57.5590  N.am      1 <0>        -0.4771
      10  C8          6.4040   34.7490   58.0100  C.2       1 <0>         0.5364
      11  O2          6.6990   34.6810   59.1880  O.2       1 <0>        -0.4321
      12  C9          7.3350   35.3110   57.0080  C.2       1 <0>        -0.2397
      13  C10         8.5840   35.8140   57.1750  C.2       1 <0>         0.0956
      14  C11         9.1190   36.0190   58.5280  C.ar      1 <0>        -0.0750
      15  C12         8.8070   37.1840   59.2380  C.ar      1 <0>        -0.0570
      16  C13         9.3100   37.3690   60.5090  C.ar      1 <0>        -0.0951
      17  C14        10.1290   36.4090   61.0790  C.ar      1 <0>        -0.1253
      18  C15        10.4470   35.2550   60.3820  C.ar      1 <0>         0.0905
      19  C16         9.9480   35.0540   59.1090  C.ar      1 <0>        -0.1165
      20  F1         11.2480   34.3250   60.9470  F         1 <0>        -0.1353
      21  S1          6.3640   35.1430   55.5170  S.3       1 <0>         0.0824
      22  C17         4.9150   34.4000   56.2520  C.2       1 <0>         0.2688
      23  S2          3.4690   33.9020   55.4810  S.2       1 <0>        -0.2957
@<TRIPOS>BOND
     1     1     2 1
     2     2     3 1
     3     3     8 ar
     4     3     4 ar
     5     4     5 ar
     6     5     6 ar
     7     6     7 ar
     8     7     8 ar
     9     7     9 1
    10     9    22 1
    11     9    10 am
    12    10    11 2
    13    10    12 1
    14    12    13 2
    15    12    21 1
    16    13    14 1
    17    14    19 ar
    18    14    15 ar
    19    15    16 ar
    20    16    17 ar
    21    17    18 ar
    22    18    19 ar
    23    18    20 1
    24    21    22 1
    25    22    23 2

@<TRIPOS>MOLECULE
ZINC01253074_replica-1.pdb
 23 26 0 0 0
SMALL
GASTEIGER

@<TRIPOS>ATOM
       1  C1         -0.6270   24.4030   51.2460  C.3       1 <0>        -0.1228
       2  C2         -0.5090   25.5790   52.1800  C.ar      1 <0>        -0.0522
       3  C3          0.1640   25.4400   53.3800  C.ar      1 <0>        -0.1277
       4  C4          0.2760   26.5140   54.2400  C.ar      1 <0>        -0.0669
       5  C5         -0.2920   27.7410   53.8960  C.ar      1 <0>        -0.0602
       6  C6         -0.9730   27.8730   52.6870  C.ar      1 <0>        -0.0541
       7  C7         -1.0730   26.7940   51.8320  C.ar      1 <0>        -0.1278
       8  C8         -0.1750   28.8970   54.8140  C.2       1 <0>         0.3406
       9  N1         -0.1520   30.1660   54.4170  N.2       1 <0>        -0.4580
      10  C9          0.0210   30.9020   55.6280  C.3       1 <0>         0.2135
      11  C10        -0.7800   29.9510   56.6280  C.3       1 <0>         0.0240
      12  O1         -0.0790   28.7890   56.1900  O.3       1 <0>        -0.2944
      13  S1         -0.1280   30.8400   58.0860  S.3       1 <0>        -0.1199
      14  C11        -0.1580   32.4750   57.3330  C.2       1 <0>         0.4256
      15  N2         -0.1580   32.2420   56.0160  N.2       1 <0>        -0.5501
      16  N3         -0.1780   33.6960   57.9710  N.pl3     1 <0>        -0.6030
      17  C12         1.0230   34.3490   58.2660  C.ar      1 <0>         0.1439
      18  C13         1.8310   33.8900   59.2980  C.ar      1 <0>        -0.1215
      19  C14         3.0200   34.5340   59.5820  C.ar      1 <0>        -0.0950
      20  C15         3.3990   35.6430   58.8490  C.ar      1 <0>        -0.1004
      21  C16         2.5940   36.1070   57.8240  C.ar      1 <0>        -0.0972
      22  C17         1.4080   35.4640   57.5310  C.ar      1 <0>        -0.1411
      23  C18         4.6940   36.3470   59.1660  C.3       1 <0>        -0.1147
@<TRIPOS>BOND
     1     1     2 1
     2     2     7 ar
     3     2     3 ar
     4     3     4 ar
     5     4     5 ar
     6     5     6 ar
     7     5     8 1
     8     6     7 ar
     9     8    12 1
    10     8     9 2
    11     9    10 1
    12    10    15 1
    13    10    11 1
    14    11    12 1
    15    11    13 1
    16    13    14 1
    17    14    15 2
    18    14    16 1
    19    16    17 1
    20    17    22 ar
    21    17    18 ar
    22    18    19 ar
    23    19    20 ar
    24    20    21 ar
    25    20    23 1
    26    21    22 ar

@<TRIPOS>MOLECULE
ZINC35682858_replica-1.pdb
 23 26 0 0 0
SMALL
GASTEIGER

@<TRIPOS>ATOM
       1  C1          2.0900   32.8990   61.3220  C.3       1 <0>        -0.1166
       2  C2          2.2950   33.7720   60.1110  C.ar      1 <0>        -0.0734
       3  C3          1.2030   34.2230   59.3930  C.ar      1 <0>        -0.0984
       4  C4          1.3870   35.0260   58.2810  C.ar      1 <0>        -0.1021
       5  C5          2.6630   35.3780   57.8860  C.ar      1 <0>        -0.0622
       6  C6          3.7610   34.9280   58.6060  C.ar      1 <0>         0.1185
       7  C7          3.5720   34.1260   59.7250  C.ar      1 <0>        -0.1033
       8  N1          5.0570   35.2840   58.2070  N.pl3     1 <0>        -0.2781
       9  C8          5.8310   36.2690   58.7250  C.2       1 <0>         0.0450
      10  C9          7.0260   36.2670   58.0730  C.2       1 <0>        -0.1018
      11  N2          6.9530   35.2910   57.1390  N.2       1 <0>        -0.1852
      12  N3          5.8220   34.6890   57.1930  N.2       1 <0>        -0.0385
      13  C10         8.0580   37.2690   58.5340  C.3       1 <0>         0.2636
      14  C11         7.4050   38.4370   59.3100  C.3       1 <0>        -0.1078
      15  S1          5.8970   37.5800   59.9230  S.3       1 <0>        -0.0225
      16  C12         9.0500   36.5750   59.4300  C.ar      1 <0>        -0.0829
      17  C13         9.5540   35.3370   59.0770  C.ar      1 <0>        -0.0927
      18  C14        10.4650   34.7010   59.9000  C.ar      1 <0>        -0.1206
      19  C15        10.8710   35.3030   61.0760  C.ar      1 <0>        -0.1084
      20  C16        10.3680   36.5400   61.4300  C.ar      1 <0>        -0.1232
      21  C17         9.4610   37.1790   60.6050  C.ar      1 <0>        -0.0835
      22  O1          8.7450   37.7900   57.3950  O.3       1 <0>        -0.5294
      23  C18         2.8620   36.2520   56.6740  C.3       1 <0>        -0.1154
@<TRIPOS>BOND
     1     1     2 1
     2     2     7 ar
     3     2     3 ar
     4     3     4 ar
     5     4     5 ar
     6     5     6 ar
     7     5    23 1
     8     6     7 ar
     9     6     8 1
    10     8    12 1
    11     8     9 1
    12     9    15 1
    13     9    10 2
    14    10    11 1
    15    10    13 1
    16    11    12 2
    17    13    14 1
    18    13    16 1
    19    13    22 1
    20    14    15 1
    21    16    21 ar
    22    16    17 ar
    23    17    18 ar
    24    18    19 ar
    25    19    20 ar
    26    20    21 ar

@<TRIPOS>MOLECULE
ZINC02963660_replica-1.pdb
 25 28 0 0 0
SMALL
GASTEIGER

@<TRIPOS>ATOM
       1  C1          5.7640   37.0220   60.2670  C.3       1 <0>        -0.1096
       2  C2          7.2270   36.6680   60.3260  C.ar      1 <0>        -0.0493
       3  C3          7.9660   36.9700   61.4540  C.ar      1 <0>        -0.1227
       4  C4          9.3110   36.6510   61.5050  C.ar      1 <0>        -0.0959
       5  C5          9.9180   36.0240   60.4330  C.ar      1 <0>        -0.1229
       6  C6          9.1830   35.7160   59.3050  C.ar      1 <0>        -0.0457
       7  C7          7.8330   36.0340   59.2500  C.ar      1 <0>         0.1343
       8  N1          7.0860   35.7230   58.1080  N.pl3     1 <0>        -0.5149
       9  C8          6.9330   36.6570   57.1560  C.2       1 <0>         0.5759
      10  S1          7.7440   38.1540   57.3320  S.2       1 <0>        -0.6201
      11  N2          6.1630   36.4610   56.0740  N.pl3     1 <0>        -0.6693
      12  C9          5.4090   35.2060   55.9290  C.3       1 <0>         0.1682
      13  C10         6.2610   34.0720   56.5070  C.3       1 <0>        -0.1719
      14  C11         6.4960   34.3930   57.9890  C.3       1 <0>         0.3200
      15  O1          5.2450   34.3290   58.6690  O.3       1 <0>        -0.2914
      16  C12         4.1600   34.9120   58.0950  C.ar      1 <0>         0.1151
      17  C13         4.1680   35.3440   56.7830  C.ar      1 <0>        -0.1588
      18  C14         3.0370   35.9210   56.2320  C.ar      1 <0>        -0.1021
      19  C15         1.8950   36.0780   56.9940  C.ar      1 <0>        -0.1067
      20  C16         1.8790   35.6550   58.3100  C.ar      1 <0>        -0.1688
      21  C17         3.0060   35.0740   58.8640  C.ar      1 <0>         0.1090
      22  O2          2.9890   34.6580   60.1590  O.3       1 <0>        -0.3025
      23  C18         2.0730   33.6130   60.4930  C.3       1 <0>         0.0247
      24  C19         7.4530   33.3590   58.5870  C.3       1 <0>        -0.1457
      25  C20         9.8460   35.0330   58.1360  C.3       1 <0>        -0.1176
@<TRIPOS>BOND
     1     1     2 1
     2     2     7 ar
     3     2     3 ar
     4     3     4 ar
     5     4     5 ar
     6     5     6 ar
     7     6     7 ar
     8     6    25 1
     9     7     8 1
    10     8    14 1
    11     8     9 1
    12     9    10 2
    13     9    11 1
    14    11    12 1
    15    12    17 1
    16    12    13 1
    17    13    14 1
    18    14    15 1
    19    14    24 1
    20    15    16 1
    21    16    21 ar
    22    16    17 ar
    23    17    18 ar
    24    18    19 ar
    25    19    20 ar
    26    20    21 ar
    27    21    22 1
    28    22    23 1

@<TRIPOS>MOLECULE
ZINC00513974_replica-1.pdb
 23 25 0 0 0
SMALL
GASTEIGER

@<TRIPOS>ATOM
       1  C1         14.1350   33.8450   62.5900  C.3       1 <0>        -0.1529
       2  C2         12.6850   33.9920   63.0520  C.3       1 <0>         0.0542
       3  O1         12.2440   35.3310   62.8230  O.3       1 <0>        -0.3173
       4  C3         11.3170   35.5180   61.8470  C.ar      1 <0>         0.1120
       5  C4         11.1380   34.5540   60.8670  C.ar      1 <0>        -0.1293
       6  C5         10.1970   34.7440   59.8740  C.ar      1 <0>        -0.1113
       7  C6          9.4300   35.9000   59.8570  C.ar      1 <0>         0.1339
       8  C7          9.6130   36.8690   60.8360  C.ar      1 <0>        -0.0799
       9  C8         10.5500   36.6750   61.8310  C.ar      1 <0>        -0.1834
      10  N1          8.4750   36.0930   58.8510  N.pl3     1 <0>        -0.6437
      11  C9          7.1870   35.6260   59.0230  C.2       1 <0>         0.5352
      12  N2          6.7760   34.9070   60.0380  N.2       1 <0>        -0.5300
      13  C10         5.4580   34.6160   59.8870  C.ar      1 <0>         0.0757
      14  C11         4.5410   33.8920   60.6530  C.ar      1 <0>        -0.0784
      15  C12         3.2370   33.7710   60.2260  C.ar      1 <0>        -0.1206
      16  C13         2.8280   34.3620   59.0410  C.ar      1 <0>        -0.1145
      17  C14         3.7210   35.0810   58.2720  C.ar      1 <0>        -0.1032
      18  C15         5.0380   35.2120   58.6870  C.ar      1 <0>         0.0481
      19  N3          6.1510   35.8490   58.1620  N.pl3     1 <0>        -0.5063
      20  C16         6.2060   36.6120   56.9120  C.3       1 <0>         0.1140
      21  C17         6.7120   35.7090   55.7860  C.3       1 <0>        -0.1133
      22  C18         5.5300   35.2510   54.9300  C.3       1 <0>        -0.1467
      23  C19         7.7010   36.4850   54.9150  C.3       1 <0>        -0.1510
@<TRIPOS>BOND
     1     1     2 1
     2     2     3 1
     3     3     4 1
     4     4     9 ar
     5     4     5 ar
     6     5     6 ar
     7     6     7 ar
     8     7     8 ar
     9     7    10 1
    10     8     9 ar
    11    10    11 1
    12    11    19 1
    13    11    12 2
    14    12    13 1
    15    13    18 ar
    16    13    14 ar
    17    14    15 ar
    18    15    16 ar
    19    16    17 ar
    20    17    18 ar
    21    18    19 1
    22    19    20 1
    23    20    21 1
    24    21    22 1
    25    21    23 1

@<TRIPOS>MOLECULE
ZINC13125347_replica-1.pdb
 24 27 0 0 0
SMALL
GASTEIGER

@<TRIPOS>ATOM
       1  C1         -3.0340   30.3310   52.7790  C.3       1 <0>        -0.1332
       2  C2         -1.9260   29.3670   53.1170  C.ar      1 <0>        -0.0625
       3  C3         -1.6250   28.3290   52.2550  C.ar      1 <0>        -0.1220
       4  C4         -0.6080   27.4450   52.5650  C.ar      1 <0>        -0.1036
       5  C5          0.1090   27.6010   53.7370  C.ar      1 <0>        -0.1247
       6  C6         -0.1910   28.6390   54.5990  C.ar      1 <0>        -0.0950
       7  C7         -1.2050   29.5250   54.2860  C.ar      1 <0>        -0.1194
       8  C8         -1.5280   30.6610   55.2230  C.3       1 <0>         0.1474
       9  N1         -1.1970   30.2700   56.5960  N.pl3     1 <0>        -0.4751
      10  C9         -1.7440   29.2160   57.3030  C.ar      1 <0>         0.0571
      11  C10        -2.6960   28.2500   57.0090  C.ar      1 <0>        -0.1144
      12  C11        -3.0300   27.3080   57.9600  C.ar      1 <0>        -0.0970
      13  C12        -2.4210   27.3210   59.2070  C.ar      1 <0>        -0.1278
      14  C13        -1.4820   28.2640   59.5140  C.ar      1 <0>        -0.0610
      15  C14        -1.1260   29.2290   58.5660  C.ar      1 <0>         0.0462
      16  N2         -0.2520   30.2650   58.5740  N.2       1 <0>        -0.4748
      17  C15        -0.2850   30.8790   57.4160  C.2       1 <0>         0.3368
      18  C16         0.5360   32.0520   57.0520  C.2       1 <0>        -0.1458
      19  C17         0.2830   33.3100   57.6470  C.2       1 <0>        -0.0024
      20  C18         1.0550   34.3750   57.2930  C.2       1 <0>        -0.2306
      21  C19         2.0820   34.2020   56.3480  C.2       1 <0>         0.5161
      22  O1          2.7760   35.1530   56.0270  O.2       1 <0>        -0.5376
      23  N3          2.3040   32.9960   55.7930  N.am      1 <0>        -0.5967
      24  C20         1.5550   31.9270   56.1340  C.2       1 <0>         0.1931
@<TRIPOS>BOND
     1     1     2 1
     2     2     7 ar
     3     2     3 ar
     4     3     4 ar
     5     4     5 ar
     6     5     6 ar
     7     6     7 ar
     8     7     8 1
     9     8     9 1
    10     9    17 1
    11     9    10 1
    12    10    15 ar
    13    10    11 ar
    14    11    12 ar
    15    12    13 ar
    16    13    14 ar
    17    14    15 ar
    18    15    16 1
    19    16    17 2
    20    17    18 1
    21    18    24 2
    22    18    19 1
    23    19    20 2
    24    20    21 1
    25    21    22 2
    26    21    23 am
    27    23    24 1

@<TRIPOS>MOLECULE
ZINC11114863_replica-1.pdb
 25 27 0 0 0
SMALL
GASTEIGER

@<TRIPOS>ATOM
       1  C1         -1.8000   27.4690   50.8530  C.3       1 <0>        -0.1184
       2  C2         -1.1310   27.3460   52.1970  C.ar      1 <0>        -0.0400
       3  C3         -0.3970   26.2140   52.5010  C.ar      1 <0>        -0.1743
       4  C4          0.2200   26.0960   53.7340  C.ar      1 <0>        -0.0734
       5  C5          0.1040   27.1090   54.6650  C.ar      1 <0>        -0.2032
       6  C6         -0.6330   28.2470   54.3620  C.ar      1 <0>         0.2201
       7  C7         -1.2560   28.3600   53.1260  C.ar      1 <0>        -0.1580
       8  C8         -2.0610   29.5900   52.7960  C.3       1 <0>        -0.1092
       9  N1         -0.7530   29.2740   55.3020  N.pl3     1 <0>        -0.7370
      10  C9          0.4050   29.6670   56.1090  C.3       1 <0>         0.1076
      11  C10         0.6670   31.1400   55.9260  C.2       1 <0>         0.5155
      12  O1         -0.1610   31.8400   55.3830  O.2       1 <0>        -0.5235
      13  N2          1.8210   31.6790   56.3670  N.am      1 <0>        -0.7214
      14  C11         2.0760   33.1110   56.1890  C.3       1 <0>         0.2785
      15  C12         3.5420   33.3310   55.9180  C.ar      1 <0>        -0.0960
      16  C13         4.4910   32.7300   56.7240  C.ar      1 <0>        -0.1080
      17  C14         5.8360   32.9290   56.4740  C.ar      1 <0>        -0.1137
      18  C15         6.2320   33.7340   55.4220  C.ar      1 <0>        -0.1118
      19  C16         5.2830   34.3380   54.6190  C.ar      1 <0>        -0.1142
      20  C17         3.9370   34.1370   54.8680  C.ar      1 <0>        -0.0995
      21  C18         1.6800   33.8500   57.4410  C.2       1 <0>        -0.1534
      22  C19         1.9530   35.1290   57.7990  C.2       1 <0>        -0.1404
      23  C20         1.4790   35.6020   59.0090  C.2       1 <0>        -0.1553
      24  C21         0.7640   34.7690   59.8050  C.2       1 <0>        -0.1711
      25  S1          0.7360   33.2670   58.8390  S.3       1 <0>         0.0433
@<TRIPOS>BOND
     1     1     2 1
     2     2     7 ar
     3     2     3 ar
     4     3     4 ar
     5     4     5 ar
     6     5     6 ar
     7     6     7 ar
     8     6     9 1
     9     7     8 1
    10     9    10 1
    11    10    11 1
    12    11    12 2
    13    11    13 am
    14    13    14 1
    15    14    15 1
    16    14    21 1
    17    15    20 ar
    18    15    16 ar
    19    16    17 ar
    20    17    18 ar
    21    18    19 ar
    22    19    20 ar
    23    21    25 1
    24    21    22 2
    25    22    23 1
    26    23    24 2
    27    24    25 1

@<TRIPOS>MOLECULE
ZINC32949088_replica-1.pdb
 27 29 0 0 0
SMALL
GASTEIGER

@<TRIPOS>ATOM
       1  C1          4.0300   36.1230   55.8210  C.3       1 <0>        -0.1538
       2  C2          3.8380   34.8960   54.9290  C.3       1 <0>        -0.0926
       3  C3          5.0570   34.7320   54.0170  C.3       1 <0>        -0.1490
       4  C4          3.6840   33.6490   55.8020  C.3       1 <0>        -0.1256
       5  C5          2.5780   33.8830   56.8340  C.3       1 <0>         0.1442
       6  N1          1.2730   33.6520   56.2110  N.am      1 <0>        -0.7601
       7  C6          0.7960   32.3970   56.0900  C.2       1 <0>         0.7070
       8  O1          1.4500   31.4570   56.4980  O.2       1 <0>        -0.5754
       9  N2         -0.4050   32.1850   55.5170  N.am      1 <0>        -0.7535
      10  C7         -0.9230   30.8200   55.3860  C.3       1 <0>         0.1794
      11  C8         -2.2100   30.6830   56.2020  C.3       1 <0>        -0.0959
      12  C9         -2.1130   29.4730   57.0940  C.ar      1 <0>        -0.0586
      13  C10        -2.9800   28.4100   56.9140  C.ar      1 <0>        -0.1074
      14  C11        -2.8870   27.2980   57.7290  C.ar      1 <0>        -0.1138
      15  C12        -1.9360   27.2510   58.7310  C.ar      1 <0>        -0.1222
      16  C13        -1.0730   28.3150   58.9130  C.ar      1 <0>        -0.1137
      17  C14        -1.1610   29.4250   58.0960  C.ar      1 <0>        -0.1013
      18  C15        -1.2180   30.5260   53.9130  C.3       1 <0>        -0.0854
      19  C16        -0.8710   29.0910   53.6090  C.ar      1 <0>        -0.0673
      20  C17        -0.0710   28.3750   54.4810  C.ar      1 <0>        -0.1047
      21  C18         0.2490   27.0590   54.2060  C.ar      1 <0>        -0.0956
      22  C19        -0.2320   26.4540   53.0550  C.ar      1 <0>         0.0265
      23  C20        -1.0380   27.1750   52.1780  C.ar      1 <0>         0.0349
      24  C21        -1.3590   28.4920   52.4620  C.ar      1 <0>        -0.0934
      25  O2         -1.3780   26.3660   51.1330  O.3       1 <0>        -0.3114
      26  C22        -1.1110   25.0240   51.5830  C.3       1 <0>         0.2094
      27  O3         -0.0680   25.1920   52.5600  O.3       1 <0>        -0.3054
@<TRIPOS>BOND
     1     1     2 1
     2     2     3 1
     3     2     4 1
     4     4     5 1
     5     5     6 1
     6     6     7 am
     7     7     8 2
     8     7     9 am
     9     9    10 1
    10    10    11 1
    11    10    18 1
    12    11    12 1
    13    12    17 ar
    14    12    13 ar
    15    13    14 ar
    16    14    15 ar
    17    15    16 ar
    18    16    17 ar
    19    18    19 1
    20    19    24 ar
    21    19    20 ar
    22    20    21 ar
    23    21    22 ar
    24    22    27 1
    25    22    23 ar
    26    23    24 ar
    27    23    25 1
    28    25    26 1
    29    26    27 1

@<TRIPOS>MOLECULE
ZINC57410702_replica-1.pdb
 22 23 0 0 0
SMALL
GASTEIGER

@<TRIPOS>ATOM
       1  C1         15.8030   33.9660   64.7290  C.3       1 <0>         0.0248
       2  O1         15.0810   33.8850   63.4980  O.3       1 <0>        -0.3073
       3  C2         14.0510   33.0120   63.4470  C.ar      1 <0>         0.1450
       4  C3         14.1900   31.7240   63.9470  C.ar      1 <0>        -0.2145
       5  C4         13.1300   30.8420   63.8900  C.ar      1 <0>        -0.0649
       6  C5         11.9080   31.2150   63.3370  C.ar      1 <0>        -0.1607
       7  C6         11.7120   32.4620   62.8330  C.ar      1 <0>        -0.0645
       8  C7         12.7630   33.4080   62.8700  C.ar      1 <0>        -0.0958
       9  C8         12.5770   34.7000   62.3600  C.2       1 <0>        -0.0518
      10  C9         11.3320   35.0690   61.8070  C.2       1 <0>        -0.1291
      11  C10        10.8630   36.3410   61.9700  C.2       1 <0>         0.0545
      12  N1         10.1030   36.9020   61.0170  N.2       1 <0>        -0.2541
      13  N2          9.8130   36.2380   59.9490  N.pl3     1 <0>        -0.5063
      14  C11         9.0400   36.8180   58.9650  C.ar      1 <0>         0.2002
      15  C12         8.6380   38.1520   59.0830  C.ar      1 <0>        -0.0949
      16  C13         7.8650   38.7250   58.0970  C.ar      1 <0>        -0.0797
      17  C14         7.4860   37.9820   56.9900  C.ar      1 <0>        -0.0891
      18  C15         7.8810   36.6610   56.8670  C.ar      1 <0>         0.0360
      19  C16         8.6590   36.0770   57.8450  C.ar      1 <0>        -0.1196
      20  N3          7.4720   35.8750   55.6810  N.pl3     1 <0>        -0.0221
      21  O2          7.0690   34.6290   55.8230  O.2       1 <0>        -0.1590
      22  O3          7.5120   36.4230   54.4840  O.3       1 <0>        -0.1674
@<TRIPOS>BOND
     1     1     2 1
     2     2     3 1
     3     3     8 ar
     4     3     4 ar
     5     4     5 ar
     6     5     6 ar
     7     6     7 ar
     8     7     8 ar
     9     8     9 1
    10     9    10 2
    11    10    11 1
    12    11    12 2
    13    12    13 1
    14    13    14 1
    15    14    19 ar
    16    14    15 ar
    17    15    16 ar
    18    16    17 ar
    19    17    18 ar
    20    18    19 ar
    21    18    20 1
    22    20    21 2
    23    20    22 1

@<TRIPOS>MOLECULE
ZINC23138004_replica-1.pdb
 27 29 0 0 0
SMALL
GASTEIGER

@<TRIPOS>ATOM
       1  C1         -0.6890   30.6520   54.2990  C.3       1 <0>        -0.1558
       2  C2         -0.7860   29.4390   55.2260  C.3       1 <0>         0.1844
       3  C3         -0.5210   28.1820   54.4370  C.ar      1 <0>        -0.0825
       4  C4         -0.9530   28.0840   53.1280  C.ar      1 <0>        -0.1146
       5  C5         -0.7070   26.9330   52.4030  C.ar      1 <0>        -0.1167
       6  C6         -0.0380   25.8760   52.9910  C.ar      1 <0>        -0.1240
       7  C7          0.3910   25.9720   54.3010  C.ar      1 <0>        -0.1165
       8  C8          0.1490   27.1250   55.0250  C.ar      1 <0>        -0.1098
       9  N1          0.2070   29.5600   56.2960  N.am      1 <0>        -0.7461
      10  C9         -0.1910   29.5940   57.5840  C.2       1 <0>         0.5244
      11  O1         -1.3710   29.5230   57.8550  O.2       1 <0>        -0.5219
      12  C10         0.8310   29.7190   58.6850  C.3       1 <0>        -0.0829
      13  C11         0.8160   31.1260   59.2240  C.ar      1 <0>         0.1956
      14  C12         0.8900   31.3410   60.5710  C.ar      1 <0>        -0.3577
      15  C13         0.8860   32.6610   61.0510  C.ar      1 <0>         0.4968
      16  O2          0.9560   32.8880   62.2480  O.3       1 <0>        -0.6234
      17  N2          0.8000   33.6750   60.1630  N.ar      1 <0>        -0.6355
      18  C14         0.7230   33.4000   58.8310  C.ar      1 <0>         0.3373
      19  N3          0.7320   32.1580   58.3880  N.ar      1 <0>        -0.6166
      20  S1          0.6090   34.7290   57.6780  S.3       1 <0>        -0.0409
      21  C15         1.6230   35.9660   58.5240  C.3       1 <0>        -0.0622
      22  C16         2.9950   36.0020   57.9010  C.ar      1 <0>        -0.0649
      23  C17         4.1200   35.9800   58.7030  C.ar      1 <0>        -0.1036
      24  C18         5.3780   36.0080   58.1310  C.ar      1 <0>        -0.1215
      25  C19         5.5110   36.0700   56.7570  C.ar      1 <0>        -0.1241
      26  C20         4.3860   36.0980   55.9550  C.ar      1 <0>        -0.1220
      27  C21         3.1280   36.0640   56.5260  C.ar      1 <0>        -0.1040
@<TRIPOS>BOND
     1     1     2 1
     2     2     3 1
     3     2     9 1
     4     3     8 ar
     5     3     4 ar
     6     4     5 ar
     7     5     6 ar
     8     6     7 ar
     9     7     8 ar
    10     9    10 am
    11    10    11 2
    12    10    12 1
    13    12    13 1
    14    13    14 ar
    15    13    19 ar
    16    14    15 ar
    17    15    17 ar
    18    15    16 1
    19    17    18 ar
    20    18    19 ar
    21    18    20 1
    22    20    21 1
    23    21    22 1
    24    22    27 ar
    25    22    23 ar
    26    23    24 ar
    27    24    25 ar
    28    25    26 ar
    29    26    27 ar

@<TRIPOS>MOLECULE
ZINC12346653_replica-1.pdb
 27 29 0 0 0
SMALL
GASTEIGER

@<TRIPOS>ATOM
       1  C1          8.4010   38.6550   57.9340  C.ar      1 <0>        -0.1092
       2  C2          7.5470   38.6230   59.0220  C.ar      1 <0>        -0.1156
       3  C3          6.8180   37.4860   59.2980  C.ar      1 <0>        -0.0866
       4  C4          6.9450   36.3630   58.4760  C.ar      1 <0>        -0.0872
       5  C5          7.8140   36.4010   57.3820  C.ar      1 <0>        -0.1182
       6  C6          8.5320   37.5470   57.1150  C.ar      1 <0>        -0.1152
       7  C7          6.1690   35.1420   58.7650  C.2       1 <0>         0.1473
       8  N1          6.6250   34.2690   59.6090  N.2       1 <0>        -0.1821
       9  N2          7.9110   34.4180   60.1460  N.am      1 <0>        -0.5848
      10  C8          8.5760   33.3410   60.6100  C.2       1 <0>         0.5680
      11  O1          8.0600   32.2410   60.5630  O.2       1 <0>        -0.4844
      12  C9          9.9310   33.4980   61.1750  C.ar      1 <0>        -0.1291
      13  C10        10.6340   34.7010   60.9810  C.ar      1 <0>        -0.0922
      14  C11        11.8800   34.8700   61.4920  C.ar      1 <0>        -0.1082
      15  C12        12.4860   33.8330   62.2270  C.ar      1 <0>        -0.0336
      16  C13        13.7740   33.9850   62.7650  C.ar      1 <0>        -0.1134
      17  C14        14.3360   32.9650   63.4710  C.ar      1 <0>        -0.1052
      18  C15        13.6500   31.7680   63.6710  C.ar      1 <0>        -0.1213
      19  C16        12.4000   31.5840   63.1650  C.ar      1 <0>        -0.0919
      20  C17        11.7860   32.6170   62.4340  C.ar      1 <0>        -0.0623
      21  C18        10.5010   32.4590   61.8940  C.ar      1 <0>        -0.0267
      22  C19         4.8470   34.9110   58.0800  C.3       1 <0>        -0.0693
      23  S1          4.7690   33.1990   57.4810  S.3       1 <0>        -0.1462
      24  C20         6.1030   33.1040   56.2550  C.3       1 <0>        -0.1437
      25  C21         7.1940   32.2020   56.7690  C.2       1 <0>         0.4794
      26  O2          8.2280   32.6760   57.1760  O.co2     1 <0>        -0.6113
      27  O3          7.0180   30.8720   56.7780  O.co2     1 <0>        -0.7615
@<TRIPOS>BOND
     1     1     6 ar
     2     1     2 ar
     3     2     3 ar
     4     3     4 ar
     5     4     5 ar
     6     4     7 1
     7     5     6 ar
     8     7     8 2
     9     7    22 1
    10     8     9 1
    11     9    10 am
    12    10    11 2
    13    10    12 1
    14    12    21 ar
    15    12    13 ar
    16    13    14 ar
    17    14    15 ar
    18    15    20 ar
    19    15    16 ar
    20    16    17 ar
    21    17    18 ar
    22    18    19 ar
    23    19    20 ar
    24    20    21 ar
    25    22    23 1
    26    23    24 1
    27    24    25 1
    28    25    26 2
    29    25    27 1

@<TRIPOS>MOLECULE
ZINC04914544_replica-1.pdb
 28 31 0 0 0
SMALL
GASTEIGER

@<TRIPOS>ATOM
       1  C1          0.3230   34.1780   57.9200  C.3       1 <0>        -0.1532
       2  C2          0.6860   35.3700   57.0330  C.3       1 <0>         0.0543
       3  O1          1.6470   36.1880   57.7050  O.3       1 <0>        -0.3157
       4  C3          2.9530   36.0000   57.3800  C.ar      1 <0>         0.1317
       5  C4          3.3630   36.1060   56.0580  C.ar      1 <0>        -0.1493
       6  C5          4.6900   35.9140   55.7310  C.ar      1 <0>        -0.0626
       7  C6          5.6110   35.6190   56.7190  C.ar      1 <0>        -0.1173
       8  C7          5.2050   35.5070   58.0360  C.ar      1 <0>        -0.0838
       9  C8          3.8800   35.7040   58.3690  C.ar      1 <0>        -0.2053
      10  C9          7.0600   35.4110   56.3580  C.3       1 <0>         0.0130
      11  C10         7.5290   36.5490   55.4500  C.3       1 <0>        -0.1362
      12  C11         7.6450   37.8130   56.2630  C.2       1 <0>         0.5257
      13  O2          7.4000   38.8840   55.7520  O.2       1 <0>        -0.5031
      14  N1          8.0210   37.7540   57.5520  N.am      1 <0>        -0.6613
      15  C12         8.3290   36.5590   58.1490  C.2       1 <0>         0.2183
      16  C13         7.8960   35.3960   57.6160  C.2       1 <0>        -0.2668
      17  C14         8.2070   34.1610   58.2080  C.2       1 <0>         0.4066
      18  O3          7.7910   33.1360   57.7040  O.2       1 <0>        -0.4599
      19  C15         9.0480   34.0860   59.4530  C.3       1 <0>        -0.1527
      20  C16         9.9920   35.2930   59.4890  C.3       1 <0>        -0.0337
      21  C17         9.1550   36.5700   59.4110  C.3       1 <0>        -0.0964
      22  C18        10.7800   35.2800   60.7740  C.ar      1 <0>        -0.0949
      23  C19        11.4900   34.1510   61.1380  C.ar      1 <0>        -0.0839
      24  C20        12.2170   34.1410   62.3140  C.ar      1 <0>        -0.1502
      25  C21        12.2240   35.2570   63.1330  C.ar      1 <0>         0.1010
      26  C22        11.5080   36.3850   62.7690  C.ar      1 <0>        -0.1506
      27  C23        10.7860   36.3960   61.5910  C.ar      1 <0>        -0.0796
      28  F1         12.9290   35.2450   64.2850  F         1 <0>        -0.1379
@<TRIPOS>BOND
     1     1     2 1
     2     2     3 1
     3     3     4 1
     4     4     9 ar
     5     4     5 ar
     6     5     6 ar
     7     6     7 ar
     8     7     8 ar
     9     7    10 1
    10     8     9 ar
    11    10    16 1
    12    10    11 1
    13    11    12 1
    14    12    13 2
    15    12    14 am
    16    14    15 1
    17    15    21 1
    18    15    16 2
    19    16    17 1
    20    17    18 2
    21    17    19 1
    22    19    20 1
    23    20    21 1
    24    20    22 1
    25    22    27 ar
    26    22    23 ar
    27    23    24 ar
    28    24    25 ar
    29    25    26 ar
    30    25    28 1
    31    26    27 ar

@<TRIPOS>MOLECULE
CHEMBL392127_replica-1.pdb
 28 32 0 0 0
SMALL
GASTEIGER

@<TRIPOS>ATOM
       1  C1          0.3660   34.2210   60.9580  C.3       1 <0>        -0.1208
       2  C2          1.6010   33.5820   60.3770  C.ar      1 <0>        -0.0625
       3  C3          2.0690   32.3880   60.8990  C.ar      1 <0>        -0.1258
       4  C4          3.2000   31.7990   60.3720  C.ar      1 <0>        -0.0896
       5  C5          3.8720   32.4090   59.3120  C.ar      1 <0>        -0.1355
       6  C6          3.3950   33.6120   58.7920  C.ar      1 <0>        -0.0629
       7  C7          2.2600   34.1890   59.3230  C.ar      1 <0>        -0.1243
       8  C8          5.0840   31.7830   58.7430  C.2       1 <0>         0.5631
       9  O1          4.9820   30.9410   57.8720  O.2       1 <0>        -0.5332
      10  N1          6.3040   32.1440   59.1910  N.am      1 <0>        -0.6077
      11  C9          6.4470   33.0890   60.3100  C.3       1 <0>         0.0992
      12  C10         7.4130   34.2000   59.8860  C.3       1 <0>         0.0426
      13  N2          8.6680   33.6010   59.4150  N.3       1 <0>        -0.5124
      14  C11         8.4480   32.7770   58.2200  C.3       1 <0>         0.0337
      15  C12         7.5250   31.6010   58.5780  C.3       1 <0>         0.1187
      16  C13         9.6820   34.6340   59.1620  C.3       1 <0>         0.1650
      17  C14         9.0180   35.9280   58.7600  C.ar      1 <0>        -0.1229
      18  C15         8.2010   36.2580   57.6990  C.ar      1 <0>        -0.0966
      19  C16         7.7220   37.5490   57.5690  C.ar      1 <0>        -0.1128
      20  C17         8.0590   38.5110   58.5050  C.ar      1 <0>        -0.1130
      21  C18         8.8750   38.1890   59.5700  C.ar      1 <0>        -0.0965
      22  C19         9.3620   36.8880   59.7070  C.ar      1 <0>        -0.0483
      23  C20        10.2410   36.2770   60.7330  C.ar      1 <0>        -0.0577
      24  C21        10.4450   34.9340   60.4300  C.ar      1 <0>        -0.0773
      25  C22        11.2330   34.1480   61.2440  C.ar      1 <0>        -0.0800
      26  C23        11.8250   34.6930   62.3690  C.ar      1 <0>        -0.1144
      27  C24        11.6290   36.0270   62.6800  C.ar      1 <0>        -0.1146
      28  C25        10.8420   36.8200   61.8710  C.ar      1 <0>        -0.0977
@<TRIPOS>BOND
     1     1     2 1
     2     2     7 ar
     3     2     3 ar
     4     3     4 ar
     5     4     5 ar
     6     5     6 ar
     7     5     8 1
     8     6     7 ar
     9     8     9 2
    10     8    10 am
    11    10    15 1
    12    10    11 1
    13    11    12 1
    14    12    13 1
    15    13    14 1
    16    13    16 1
    17    14    15 1
    18    16    24 1
    19    16    17 1
    20    17    22 ar
    21    17    18 ar
    22    18    19 ar
    23    19    20 ar
    24    20    21 ar
    25    21    22 ar
    26    22    23 1
    27    23    28 ar
    28    23    24 ar
    29    24    25 ar
    30    25    26 ar
    31    26    27 ar
    32    27    28 ar

@<TRIPOS>MOLECULE
ZINC21728730_replica-1.pdb
 29 33 0 0 0
SMALL
GASTEIGER

@<TRIPOS>ATOM
       1  C1          7.6730   38.7200   56.3870  C.ar      1 <0>        -0.1076
       2  C2          7.7910   37.4580   55.8330  C.ar      1 <0>        -0.1188
       3  C3          8.2080   36.3960   56.6100  C.ar      1 <0>        -0.0872
       4  C4          8.5120   36.5980   57.9550  C.ar      1 <0>        -0.0177
       5  C5          8.3870   37.8700   58.5090  C.ar      1 <0>        -0.0974
       6  C6          7.9730   38.9260   57.7210  C.ar      1 <0>        -0.1190
       7  C7          8.9610   35.4600   58.7940  C.2       1 <0>         0.1642
       8  C8          8.4670   34.1550   58.7430  C.2       1 <0>        -0.2539
       9  C9          9.1490   33.4080   59.6620  C.2       1 <0>         0.3320
      10  N1         10.0350   34.2210   60.2780  N.pl3     1 <0>        -0.3193
      11  N2          9.9050   35.5030   59.7180  N.2       1 <0>        -0.2686
      12  C10        10.9260   33.8530   61.2950  C.ar      1 <0>         0.1490
      13  C11        10.7010   32.6960   62.0290  C.ar      1 <0>        -0.1436
      14  C12        11.5840   32.3310   63.0270  C.ar      1 <0>        -0.0909
      15  C13        12.6840   33.1240   63.3030  C.ar      1 <0>        -0.1175
      16  C14        12.9060   34.2790   62.5760  C.ar      1 <0>        -0.0941
      17  C15        12.0300   34.6460   61.5730  C.ar      1 <0>        -0.1052
      18  N3          8.8950   32.0500   59.8450  N.am      1 <0>        -0.6650
      19  C16         8.0960   31.4270   58.9510  C.2       1 <0>         0.5397
      20  O1          7.7110   30.3020   59.1920  O.2       1 <0>        -0.5073
      21  C17         7.6720   32.0840   57.6690  C.3       1 <0>        -0.1366
      22  C18         7.3770   33.5720   57.8790  C.3       1 <0>         0.0339
      23  C19         6.0450   33.7360   58.5630  C.ar      1 <0>        -0.0894
      24  C20         4.9100   33.1770   58.0070  C.ar      1 <0>        -0.0833
      25  C21         3.6880   33.3220   58.6360  C.ar      1 <0>        -0.1494
      26  C22         3.5990   34.0390   59.8170  C.ar      1 <0>         0.0991
      27  C23         4.7350   34.6030   60.3710  C.ar      1 <0>        -0.1492
      28  C24         5.9580   34.4510   59.7440  C.ar      1 <0>        -0.0766
      29  F1          2.4040   34.1850   60.4300  F         1 <0>        -0.1390
@<TRIPOS>BOND
     1     1     6 ar
     2     1     2 ar
     3     2     3 ar
     4     3     4 ar
     5     4     5 ar
     6     4     7 1
     7     5     6 ar
     8     7    11 2
     9     7     8 1
    10     8    22 1
    11     8     9 2
    12     9    10 1
    13     9    18 1
    14    10    11 1
    15    10    12 1
    16    12    17 ar
    17    12    13 ar
    18    13    14 ar
    19    14    15 ar
    20    15    16 ar
    21    16    17 ar
    22    18    19 am
    23    19    20 2
    24    19    21 1
    25    21    22 1
    26    22    23 1
    27    23    28 ar
    28    23    24 ar
    29    24    25 ar
    30    25    26 ar
    31    26    27 ar
    32    26    29 1
    33    27    28 ar

@<TRIPOS>MOLECULE
ZINC01815206_replica-1.pdb
 29 33 0 0 0
SMALL
GASTEIGER

@<TRIPOS>ATOM
       1  C1          0.5540   33.2720   61.7700  C.3       1 <0>        -0.1429
       2  C2          0.7760   32.3120   60.5990  C.3       1 <0>        -0.1172
       3  S1          0.2900   30.6400   61.0880  S.3       1 <0>         0.0296
       4  C3          0.2820   29.8500   59.5130  C.2       1 <0>         0.3700
       5  N1         -0.5860   30.2630   58.5980  N.2       1 <0>        -0.4755
       6  C4         -0.5690   29.6500   57.4240  C.2       1 <0>         0.0954
       7  C5          0.3170   28.5930   57.0880  C.2       1 <0>        -0.2498
       8  C6          0.2020   28.0600   55.7960  C.2       1 <0>        -0.0337
       9  C7         -0.7650   28.5960   54.9820  C.2       1 <0>        -0.1599
      10  S2         -1.5250   29.8640   55.9520  S.3       1 <0>         0.2018
      11  C8         -1.0320   28.1400   53.6200  C.ar      1 <0>        -0.0017
      12  C9         -1.7900   28.8640   52.7100  C.ar      1 <0>        -0.1034
      13  C10        -1.9660   28.3810   51.4280  C.ar      1 <0>        -0.1172
      14  C11        -1.3910   27.1790   51.0560  C.ar      1 <0>        -0.1118
      15  C12        -0.6460   26.4460   51.9640  C.ar      1 <0>        -0.1130
      16  C13        -0.4720   26.9060   53.2500  C.ar      1 <0>        -0.0643
      17  C14         0.2700   26.0860   54.2690  C.3       1 <0>        -0.0804
      18  C15         1.0750   26.9390   55.2400  C.3       1 <0>        -0.0647
      19  C16         1.2400   28.1760   58.1060  C.2       1 <0>         0.5702
      20  O1          2.0410   27.2760   57.9200  O.2       1 <0>        -0.4938
      21  N2          1.1690   28.8400   59.2820  N.am      1 <0>        -0.4654
      22  C17         2.0460   28.4730   60.3120  C.ar      1 <0>         0.0413
      23  C18         3.2710   29.1130   60.4420  C.ar      1 <0>        -0.0423
      24  C19         4.1320   28.7560   61.4600  C.ar      1 <0>        -0.1990
      25  C20         3.7770   27.7490   62.3480  C.ar      1 <0>         0.1537
      26  C21         2.5550   27.1070   62.2160  C.ar      1 <0>        -0.1410
      27  C22         1.6920   27.4670   61.2010  C.ar      1 <0>        -0.0442
      28  O2          4.6280   27.3940   63.3460  O.3       1 <0>        -0.3108
      29  C23         5.9650   27.8940   63.2700  C.3       1 <0>         0.0232
@<TRIPOS>BOND
     1     1     2 1
     2     2     3 1
     3     3     4 1
     4     4    21 1
     5     4     5 2
     6     5     6 1
     7     6    10 1
     8     6     7 2
     9     7     8 1
    10     7    19 1
    11     8    18 1
    12     8     9 2
    13     9    10 1
    14     9    11 1
    15    11    16 ar
    16    11    12 ar
    17    12    13 ar
    18    13    14 ar
    19    14    15 ar
    20    15    16 ar
    21    16    17 1
    22    17    18 1
    23    19    20 2
    24    19    21 am
    25    21    22 1
    26    22    27 ar
    27    22    23 ar
    28    23    24 ar
    29    24    25 ar
    30    25    26 ar
    31    25    28 1
    32    26    27 ar
    33    28    29 1

@<TRIPOS>MOLECULE
ZINC11140053_replica-1.pdb
 28 31 0 0 0
SMALL
GASTEIGER

@<TRIPOS>ATOM
       1  C1          0.5110   35.1400   56.9070  C.3       1 <0>        -0.1203
       2  C2          1.8030   35.0110   57.6740  C.ar      1 <0>        -0.0559
       3  C3          2.5030   36.1460   58.0390  C.ar      1 <0>        -0.1294
       4  C4          3.6880   36.0350   58.7360  C.ar      1 <0>        -0.0882
       5  C5          4.1740   34.7730   59.0840  C.ar      1 <0>        -0.1237
       6  C6          3.4610   33.6320   58.7130  C.ar      1 <0>        -0.0084
       7  C7          2.2810   33.7570   58.0110  C.ar      1 <0>        -0.1243
       8  C8          3.9810   32.2650   59.0790  C.3       1 <0>        -0.1175
       9  C9          5.4400   34.6460   59.8360  C.2       1 <0>         0.5707
      10  O1          5.4290   34.6740   61.0520  O.2       1 <0>        -0.4522
      11  N1          6.6050   34.5010   59.1760  N.am      1 <0>        -0.5012
      12  C10         6.6350   34.5850   57.7130  C.3       1 <0>         0.0921
      13  C11         7.2520   35.9200   57.2910  C.3       1 <0>         0.0560
      14  C12         8.3320   35.6810   56.2190  C.3       1 <0>        -0.1478
      15  C13         7.8510   36.5120   55.0040  C.3       1 <0>        -0.1529
      16  C14         6.8910   37.5310   55.6680  C.3       1 <0>         0.0466
      17  O2          6.2450   36.7600   56.7040  O.3       1 <0>        -0.3593
      18  C15         7.7770   34.2720   59.8790  C.2       1 <0>         0.3838
      19  N2          8.6570   35.1430   60.3170  N.2       1 <0>        -0.5008
      20  C16         9.7660   34.7750   60.9950  C.ar      1 <0>         0.0669
      21  C17        10.7860   35.6060   61.5190  C.ar      1 <0>         0.1851
      22  C18        11.8550   35.0670   62.1890  C.ar      1 <0>        -0.1780
      23  C19        11.9750   33.6950   62.3780  C.ar      1 <0>         0.1462
      24  C20        10.9950   32.8540   61.8780  C.ar      1 <0>        -0.1026
      25  C21         9.9220   33.3860   61.2070  C.ar      1 <0>        -0.1117
      26  S1          8.4710   32.7200   60.4270  S.3       1 <0>         0.0359
      27  F1         13.0380   33.1870   63.0400  F         1 <0>        -0.1175
      28  F2         10.7050   36.9450   61.3580  F         1 <0>        -0.1113
@<TRIPOS>BOND
     1     1     2 1
     2     2     7 ar
     3     2     3 ar
     4     3     4 ar
     5     4     5 ar
     6     5     6 ar
     7     5     9 1
     8     6     7 ar
     9     6     8 1
    10     9    10 2
    11     9    11 am
    12    11    12 1
    13    11    18 1
    14    12    13 1
    15    13    17 1
    16    13    14 1
    17    14    15 1
    18    15    16 1
    19    16    17 1
    20    18    26 1
    21    18    19 2
    22    19    20 1
    23    20    25 ar
    24    20    21 ar
    25    21    22 ar
    26    21    28 1
    27    22    23 ar
    28    23    24 ar
    29    23    27 1
    30    24    25 ar
    31    25    26 1

@<TRIPOS>MOLECULE
ZINC14545890_replica-1.pdb
 33 37 0 0 0
SMALL
GASTEIGER

@<TRIPOS>ATOM
       1  C1         -0.7770   25.0010   52.0470  C.3       1 <0>        -0.1170
       2  C2         -0.3860   26.2500   52.7950  C.ar      1 <0>        -0.0943
       3  C3          0.4390   26.1620   53.9020  C.ar      1 <0>        -0.0937
       4  C4          0.8000   27.3040   54.5890  C.ar      1 <0>        -0.1541
       5  C5          0.3330   28.5420   54.1680  C.ar      1 <0>         0.1438
       6  C6         -0.4900   28.6290   53.0520  C.ar      1 <0>        -0.1264
       7  C7         -0.8510   27.4810   52.3720  C.ar      1 <0>        -0.0698
       8  C8         -1.7490   27.5730   51.1660  C.3       1 <0>        -0.1177
       9  N1          0.6950   29.6990   54.8610  N.pl3     1 <0>        -1.0580
      10  S1         -0.2460   30.2480   56.1080  S.o2      1 <0>         2.6934
      11  O1         -1.3390   30.9380   55.5200  O.2       1 <0>        -0.9566
      12  O2         -0.4250   29.1520   56.9950  O.2       1 <0>        -0.9526
      13  C9          0.6980   31.4530   56.9820  C.ar      1 <0>        -0.7282
      14  C10         0.6660   31.4880   58.3640  C.ar      1 <0>         0.0282
      15  C11         1.4110   32.4240   59.0520  C.ar      1 <0>        -0.2156
      16  C12         2.1990   33.3370   58.3620  C.ar      1 <0>         0.2781
      17  C13         2.2160   33.3050   56.9630  C.ar      1 <0>        -0.1555
      18  C14         1.4780   32.3580   56.2860  C.ar      1 <0>         0.0364
      19  C15         3.0300   34.3240   56.2670  C.3       1 <0>        -0.0267
      20  C16         3.5780   34.0990   54.9050  C.2       1 <0>        -0.1516
      21  C17         4.7230   34.7610   54.7940  C.2       1 <0>        -0.1638
      22  C18         5.0500   35.4660   56.1120  C.3       1 <0>        -0.0818
      23  C19         4.3040   34.5880   57.1250  C.3       1 <0>        -0.0989
      24  C20         3.8070   35.2620   58.3910  C.3       1 <0>         0.2161
      25  N2          2.9740   34.2540   59.0820  N.pl3     1 <0>        -0.7351
      26  C21         4.9720   35.6620   59.2590  C.ar      1 <0>        -0.1281
      27  C22         5.1690   36.9910   59.5820  C.ar      1 <0>        -0.0756
      28  C23         6.2380   37.3590   60.3790  C.ar      1 <0>        -0.1525
      29  C24         7.1110   36.3980   60.8550  C.ar      1 <0>        -0.0757
      30  C25         6.9180   35.0690   60.5360  C.ar      1 <0>        -0.2046
      31  C26         5.8440   34.6960   59.7400  C.ar      1 <0>         0.1432
      32  O3          5.6480   33.3880   59.4290  O.3       1 <0>        -0.3115
      33  C27         5.6550   32.4550   60.5120  C.3       1 <0>         0.0248
@<TRIPOS>BOND
     1     1     2 1
     2     2     7 ar
     3     2     3 ar
     4     3     4 ar
     5     4     5 ar
     6     5     6 ar
     7     5     9 1
     8     6     7 ar
     9     7     8 1
    10     9    10 1
    11    10    11 2
    12    10    12 2
    13    10    13 1
    14    13    18 ar
    15    13    14 ar
    16    14    15 ar
    17    15    16 ar
    18    16    25 1
    19    16    17 ar
    20    17    18 ar
    21    17    19 1
    22    19    23 1
    23    19    20 1
    24    20    21 2
    25    21    22 1
    26    22    23 1
    27    23    24 1
    28    24    25 1
    29    24    26 1
    30    26    31 ar
    31    26    27 ar
    32    27    28 ar
    33    28    29 ar
    34    29    30 ar
    35    30    31 ar
    36    31    32 1
    37    32    33 1

@<TRIPOS>MOLECULE
ZINC62490731_replica-1.pdb
 22 24 0 0 0
SMALL
GASTEIGER

@<TRIPOS>ATOM
       1  C1         12.4840   30.5020   63.9990  C.3       1 <0>        -0.1135
       2  C2         12.8540   31.8200   63.3710  C.ar      1 <0>        -0.0851
       3  C3         14.1580   32.2780   63.4440  C.ar      1 <0>        -0.1165
       4  C4         14.5070   33.4870   62.8710  C.ar      1 <0>        -0.1171
       5  C5         13.5550   34.2470   62.2210  C.ar      1 <0>        -0.0859
       6  C6         12.2380   33.7910   62.1430  C.ar      1 <0>         0.0113
       7  C7         11.8940   32.5670   62.7200  C.ar      1 <0>        -0.1043
       8  C8         11.2130   34.5990   61.4500  C.2       1 <0>         0.0259
       9  N1         10.4910   34.2660   60.3940  N.2       1 <0>        -0.4946
      10  C9          9.6070   35.0910   59.8780  C.2       1 <0>         0.0998
      11  C10         9.4840   36.3350   60.5170  C.2       1 <0>        -0.1805
      12  S1         10.6890   36.1530   61.8240  S.3       1 <0>         0.1643
      13  C11         8.6400   37.4270   60.2140  C.2       1 <0>         0.5488
      14  O1          7.4880   37.4450   60.6340  O.co2     1 <0>        -0.6495
      15  O2          9.0590   38.3550   59.5310  O.co2     1 <0>        -0.6729
      16  C12         8.7920   34.7300   58.6950  C.ar      1 <0>        -0.0047
      17  C13         9.0010   35.3770   57.4780  C.ar      1 <0>        -0.0149
      18  C14         8.2400   35.0370   56.3800  C.ar      1 <0>        -0.1577
      19  C15         7.2680   34.0540   56.4840  C.ar      1 <0>         0.0927
      20  C16         7.0560   33.4090   57.6920  C.ar      1 <0>        -0.1678
      21  C17         7.8170   33.7380   58.7950  C.ar      1 <0>        -0.0660
      22  F1          6.5250   33.7260   55.4050  F         1 <0>        -0.1480
@<TRIPOS>BOND
     1     1     2 1
     2     2     7 ar
     3     2     3 ar
     4     3     4 ar
     5     4     5 ar
     6     5     6 ar
     7     6     7 ar
     8     6     8 1
     9     8    12 1
    10     8     9 2
    11     9    10 1
    12    10    11 2
    13    10    16 1
    14    11    12 1
    15    11    13 1
    16    13    14 2
    17    13    15 1
    18    16    21 ar
    19    16    17 ar
    20    17    18 ar
    21    18    19 ar
    22    19    20 ar
    23    19    22 1
    24    20    21 ar

@<TRIPOS>MOLECULE
ZINC34022671_replica-1.pdb
 22 24 0 0 0
SMALL
GASTEIGER

@<TRIPOS>ATOM
       1  C1         11.7590   30.4630   63.5860  C.3       1 <0>        -0.1461
       2  C2         12.3620   31.8560   63.7770  C.3       1 <0>        -0.0606
       3  C3         13.8850   31.7740   63.6490  C.3       1 <0>        -0.1453
       4  C4         11.8180   32.7870   62.7250  C.ar      1 <0>        -0.0609
       5  C5         12.5270   33.9250   62.3800  C.ar      1 <0>        -0.1131
       6  C6         12.0360   34.7820   61.4180  C.ar      1 <0>        -0.0999
       7  C7         10.8170   34.4990   60.7910  C.ar      1 <0>        -0.0905
       8  C8         10.1070   33.3470   61.1460  C.ar      1 <0>        -0.0886
       9  C9         10.6140   32.4980   62.1060  C.ar      1 <0>        -0.1210
      10  C10        10.2870   35.4070   59.7650  C.2       1 <0>        -0.0153
      11  C11         9.5150   36.4680   60.1270  C.2       1 <0>         0.0138
      12  C12         9.3380   36.7830   61.5120  C.1       1 <0>         0.2540
      13  N1          9.1960   37.0330   62.6120  N.1       1 <0>        -0.4203
      14  C13         8.8590   37.2930   59.0900  C.2       1 <0>        -0.1484
      15  C14         8.5380   38.6090   59.1830  C.2       1 <0>         0.0896
      16  N2          7.9460   39.0220   58.0250  N.pl3     1 <0>        -0.5892
      17  C15         7.8630   37.9740   57.1330  C.ar      1 <0>         0.0939
      18  C16         8.4350   36.8490   57.7520  C.ar      1 <0>        -0.0875
      19  C17         8.4930   35.6340   57.0720  C.ar      1 <0>        -0.0724
      20  C18         7.9930   35.5440   55.7910  C.ar      1 <0>        -0.1405
      21  C19         7.4330   36.6550   55.1780  C.ar      1 <0>        -0.0975
      22  C20         7.3600   37.8610   55.8410  C.ar      1 <0>        -0.1280
@<TRIPOS>BOND
     1     1     2 1
     2     2     3 1
     3     2     4 1
     4     4     9 ar
     5     4     5 ar
     6     5     6 ar
     7     6     7 ar
     8     7     8 ar
     9     7    10 1
    10     8     9 ar
    11    10    11 2
    12    11    12 1
    13    11    14 1
    14    12    13 3
    15    14    18 1
    16    14    15 2
    17    15    16 1
    18    16    17 1
    19    17    22 ar
    20    17    18 ar
    21    18    19 ar
    22    19    20 ar
    23    20    21 ar
    24    21    22 ar

@<TRIPOS>MOLECULE
ZINC37934827_replica-1.pdb
 21 22 0 0 0
SMALL
GASTEIGER

@<TRIPOS>ATOM
       1  C1          8.6090   36.0430   56.2260  C.3       1 <0>        -0.1272
       2  C2          8.1720   36.9110   57.4070  C.3       1 <0>        -0.0207
       3  C3          8.4280   38.3840   57.0810  C.3       1 <0>        -0.1421
       4  C4          6.6790   36.7000   57.6700  C.3       1 <0>         0.0729
       5  N1          6.1930   35.5770   56.8570  N.3       1 <0>        -0.6719
       6  C5          5.5140   34.5780   57.6920  C.3       1 <0>         0.0813
       7  C6          6.5230   33.5810   58.2020  C.ar      1 <0>        -0.0209
       8  C7          7.2540   32.8200   57.3090  C.ar      1 <0>        -0.1172
       9  C8          8.1790   31.9060   57.7770  C.ar      1 <0>        -0.0683
      10  C9          8.3740   31.7520   59.1370  C.ar      1 <0>        -0.1176
      11  C10         7.6430   32.5130   60.0290  C.ar      1 <0>        -0.0577
      12  C11         6.7200   33.4310   59.5620  C.ar      1 <0>        -0.0299
      13  N2          5.9410   34.2500   60.5170  N.pl3     1 <0>         0.0353
      14  O1          6.3450   35.3400   60.8490  O.2       1 <0>        -0.1827
      15  O2          4.9000   33.8290   60.9660  O.3       1 <0>        -0.1201
      16  C12         8.9570   36.5240   58.6340  C.ar      1 <0>        -0.0677
      17  C13         8.9860   37.3650   59.7300  C.ar      1 <0>        -0.1230
      18  C14         9.7070   37.0090   60.8550  C.ar      1 <0>        -0.1173
      19  C15        10.3980   35.8120   60.8840  C.ar      1 <0>        -0.1259
      20  C16        10.3680   34.9710   59.7870  C.ar      1 <0>        -0.1176
      21  C17         9.6440   35.3240   58.6640  C.ar      1 <0>        -0.1142
@<TRIPOS>BOND
     1     1     2 1
     2     2     3 1
     3     2     4 1
     4     2    16 1
     5     4     5 1
     6     5     6 1
     7     6     7 1
     8     7    12 ar
     9     7     8 ar
    10     8     9 ar
    11     9    10 ar
    12    10    11 ar
    13    11    12 ar
    14    12    13 1
    15    13    14 2
    16    13    15 1
    17    16    21 ar
    18    16    17 ar
    19    17    18 ar
    20    18    19 ar
    21    19    20 ar
    22    20    21 ar

@<TRIPOS>MOLECULE
CHEMBL258933_replica-1.pdb
 24 25 0 0 0
SMALL
GASTEIGER

@<TRIPOS>ATOM
       1  C1         12.9350   30.6360   63.3870  C.3       1 <0>        -0.1547
       2  C2         12.4410   32.0390   63.0290  C.3       1 <0>        -0.1260
       3  C3         13.6170   33.0170   63.0580  C.3       1 <0>        -0.1213
       4  C4         13.3210   34.1980   62.1320  C.3       1 <0>        -0.1210
       5  C5         11.8350   34.1990   61.7670  C.3       1 <0>        -0.1144
       6  C6         11.2610   35.6040   61.9680  C.3       1 <0>        -0.0838
       7  C7         10.3880   35.9630   60.7940  C.ar      1 <0>        -0.0531
       8  C8         10.2500   35.0800   59.7410  C.ar      1 <0>        -0.1146
       9  C9          9.4500   35.4060   58.6620  C.ar      1 <0>        -0.0900
      10  C10         8.7810   36.6190   58.6360  C.ar      1 <0>         0.0609
      11  C11         8.9190   37.5090   59.6970  C.ar      1 <0>         0.1213
      12  C12         9.7200   37.1740   60.7770  C.ar      1 <0>        -0.1347
      13  O1          8.2660   38.7010   59.6760  O.3       1 <0>        -0.4917
      14  O2          7.9930   36.9410   57.5750  O.3       1 <0>        -0.2208
      15  C13         6.8480   36.2390   57.3980  C.ar      1 <0>         0.5768
      16  N1          6.7310   35.4550   56.3380  N.ar      1 <0>        -0.6213
      17  C14         5.6230   34.7510   56.1310  C.ar      1 <0>         0.4221
      18  C15         4.5790   34.8470   57.0450  C.ar      1 <0>        -0.2983
      19  C16         4.7390   35.6820   58.1460  C.ar      1 <0>         0.4221
      20  N2          5.8790   36.3510   58.2910  N.ar      1 <0>        -0.5935
      21  O3          3.7480   35.8070   59.0620  O.3       1 <0>        -0.2892
      22  C17         2.8430   34.7090   59.1920  C.3       1 <0>         0.0349
      23  O4          5.5110   33.9500   55.0430  O.3       1 <0>        -0.2912
      24  C18         4.9480   34.5310   53.8660  C.3       1 <0>         0.0380
@<TRIPOS>BOND
     1     1     2 1
     2     2     3 1
     3     3     4 1
     4     4     5 1
     5     5     6 1
     6     6     7 1
     7     7    12 ar
     8     7     8 ar
     9     8     9 ar
    10     9    10 ar
    11    10    11 ar
    12    10    14 1
    13    11    12 ar
    14    11    13 1
    15    14    15 1
    16    15    20 ar
    17    15    16 ar
    18    16    17 ar
    19    17    18 ar
    20    17    23 1
    21    18    19 ar
    22    19    20 ar
    23    19    21 1
    24    21    22 1
    25    23    24 1

@<TRIPOS>MOLECULE
ZINC61566775_replica-1.pdb
 19 20 0 0 0
SMALL
GASTEIGER

@<TRIPOS>ATOM
       1  C1          8.6670   38.5240   57.4950  C.3       1 <0>        -0.1489
       2  C2          8.0920   37.1560   57.8690  C.3       1 <0>        -0.0429
       3  C3          8.9770   36.5040   58.9000  C.2       1 <0>        -0.1304
       4  C4          9.6650   35.3380   58.8190  C.2       1 <0>        -0.1612
       5  C5         10.4220   34.9310   59.9000  C.2       1 <0>        -0.1397
       6  C6         10.4540   35.7080   61.0110  C.2       1 <0>        -0.1591
       7  S1          9.3980   37.0680   60.5390  S.3       1 <0>         0.0393
       8  C7         11.1960   35.4860   62.3040  C.3       1 <0>         0.2388
       9  C8         11.5870   36.8370   62.9060  C.3       1 <0>        -0.1660
      10  N1         12.4040   34.6980   62.0440  N.pl3     1 <0>        -0.7444
      11  C9         12.5060   33.3920   62.5360  C.ar      1 <0>         0.1851
      12  C10        11.3770   32.5860   62.6080  C.ar      1 <0>        -0.1561
      13  C11        11.4800   31.2970   63.0920  C.ar      1 <0>        -0.1631
      14  C12        12.7100   30.8060   63.5060  C.ar      1 <0>         0.0751
      15  C13        13.8370   31.6120   63.4350  C.ar      1 <0>        -0.1039
      16  C14        13.7380   32.8990   62.9450  C.ar      1 <0>        -0.1194
      17  C15        14.9650   33.7710   62.8610  C.3       1 <0>        -0.1081
      18  O1         12.8100   29.5380   63.9830  O.3       1 <0>        -0.3215
      19  C16        12.4240   29.3230   65.3430  C.3       1 <0>         0.0294
@<TRIPOS>BOND
     1     1     2 1
     2     2     3 1
     3     3     7 1
     4     3     4 2
     5     4     5 1
     6     5     6 2
     7     6     7 1
     8     6     8 1
     9     8     9 1
    10     8    10 1
    11    10    11 1
    12    11    16 ar
    13    11    12 ar
    14    12    13 ar
    15    13    14 ar
    16    14    15 ar
    17    14    18 1
    18    15    16 ar
    19    16    17 1
    20    18    19 1

@<TRIPOS>MOLECULE
ZINC14248151_replica-1.pdb
 27 28 0 0 0
SMALL
GASTEIGER

@<TRIPOS>ATOM
       1  C1          2.2250   31.7100   57.9320  C.3       1 <0>        -0.1639
       2  C2          1.4080   32.2530   56.7580  C.3       1 <0>         0.1449
       3  C3          2.0460   33.5180   56.2450  C.2       1 <0>         0.5144
       4  O1          1.5750   34.5970   56.5380  O.2       1 <0>        -0.5265
       5  N1          3.1400   33.4500   55.4620  N.am      1 <0>        -0.7207
       6  C4          3.7620   34.6800   54.9640  C.3       1 <0>         0.1577
       7  C5          4.9950   34.9840   55.7730  C.ar      1 <0>        -0.0809
       8  C6          5.1600   36.2340   56.3410  C.ar      1 <0>        -0.0997
       9  C7          6.2920   36.5120   57.0840  C.ar      1 <0>        -0.0706
      10  C8          7.2590   35.5410   57.2590  C.ar      1 <0>        -0.1728
      11  C9          7.0950   34.2910   56.6910  C.ar      1 <0>        -0.0704
      12  C10         5.9630   34.0130   55.9480  C.ar      1 <0>        -0.0998
      13  C11         8.4940   35.8440   58.0690  C.3       1 <0>         0.5069
      14  F1          8.9610   37.1220   57.7450  F         1 <0>        -0.1745
      15  F2          8.1830   35.7930   59.4320  F         1 <0>        -0.1754
      16  F3          9.4830   34.8990   57.7810  F         1 <0>        -0.1755
      17  N2          1.3710   31.2540   55.6860  N.am      1 <0>        -0.6949
      18  C12         0.1890   30.7820   55.2460  C.2       1 <0>         0.6545
      19  O2         -0.8480   31.1830   55.7380  O.2       1 <0>        -0.5711
      20  O3          0.1560   29.8630   54.2610  O.3       1 <0>        -0.3610
      21  C13        -1.1500   29.5090   53.7340  C.3       1 <0>         0.1307
      22  C14        -1.0540   28.2020   52.9900  C.ar      1 <0>        -0.1030
      23  C15        -0.3210   27.1570   53.5200  C.ar      1 <0>        -0.0926
      24  C16        -0.2380   25.9570   52.8410  C.ar      1 <0>        -0.1233
      25  C17        -0.8790   25.8040   51.6260  C.ar      1 <0>        -0.1065
      26  C18        -1.6090   26.8500   51.0930  C.ar      1 <0>        -0.1236
      27  C19        -1.6970   28.0500   51.7750  C.ar      1 <0>        -0.0928
@<TRIPOS>BOND
     1     1     2 1
     2     2     3 1
     3     2    17 1
     4     3     4 2
     5     3     5 am
     6     5     6 1
     7     6     7 1
     8     7    12 ar
     9     7     8 ar
    10     8     9 ar
    11     9    10 ar
    12    10    11 ar
    13    10    13 1
    14    11    12 ar
    15    13    14 1
    16    13    15 1
    17    13    16 1
    18    17    18 am
    19    18    19 2
    20    18    20 1
    21    20    21 1
    22    21    22 1
    23    22    27 ar
    24    22    23 ar
    25    23    24 ar
    26    24    25 ar
    27    25    26 ar
    28    26    27 ar

@<TRIPOS>MOLECULE
ZINC41571356_replica-1.pdb
 21 23 0 0 0
SMALL
GASTEIGER

@<TRIPOS>ATOM
       1  C1         -1.2180   25.9380   51.1250  C.ar      1 <0>        -0.1018
       2  C2         -1.6630   27.2580   51.1080  C.ar      1 <0>        -0.1279
       3  C3         -1.4170   28.0940   52.1530  C.ar      1 <0>        -0.0844
       4  C4         -0.7040   27.6220   53.2670  C.ar      1 <0>        -0.0704
       5  C5         -0.2510   26.2800   53.2860  C.ar      1 <0>        -0.0194
       6  C6         -0.5240   25.4460   52.1880  C.ar      1 <0>        -0.1169
       7  C7          0.4630   25.8090   54.4010  C.ar      1 <0>        -0.1439
       8  C8          0.7100   26.6430   55.4480  C.ar      1 <0>        -0.0759
       9  C9          0.2670   27.9630   55.4350  C.ar      1 <0>        -0.2229
      10  C10        -0.4300   28.4580   54.3680  C.ar      1 <0>         0.1463
      11  O1         -0.8570   29.7480   54.3710  O.3       1 <0>        -0.3070
      12  C11         0.0770   30.7390   54.8030  C.3       1 <0>         0.0458
      13  C12        -0.5470   31.5740   55.9240  C.3       1 <0>         0.1279
      14  N1          0.0740   32.9010   55.9480  N.pl3     1 <0>        -0.7411
      15  C13         0.4470   33.4740   57.1660  C.ar      1 <0>         0.2440
      16  C14         0.1820   32.8110   58.3580  C.ar      1 <0>        -0.2096
      17  C15         0.5510   33.3800   59.5620  C.ar      1 <0>        -0.0421
      18  C16         1.1830   34.6090   59.5810  C.ar      1 <0>        -0.2134
      19  C17         1.4490   35.2730   58.3970  C.ar      1 <0>         0.1466
      20  C18         1.0870   34.7060   57.1870  C.ar      1 <0>        -0.2335
      21  F1          2.0680   36.4740   58.4200  F         1 <0>        -0.1390
@<TRIPOS>BOND
     1     1     6 ar
     2     1     2 ar
     3     2     3 ar
     4     3     4 ar
     5     4    10 ar
     6     4     5 ar
     7     5     6 ar
     8     5     7 ar
     9     7     8 ar
    10     8     9 ar
    11     9    10 ar
    12    10    11 1
    13    11    12 1
    14    12    13 1
    15    13    14 1
    16    14    15 1
    17    15    20 ar
    18    15    16 ar
    19    16    17 ar
    20    17    18 ar
    21    18    19 ar
    22    19    20 ar
    23    19    21 1

@<TRIPOS>MOLECULE
ZINC00387856_replica-1.pdb
 23 25 0 0 0
SMALL
GASTEIGER

@<TRIPOS>ATOM
       1  C1          0.4480   32.9870   58.6930  C.3       1 <0>        -0.0769
       2  C2          0.3830   32.1830   57.4200  C.2       1 <0>         0.0157
       3  C3         -0.7730   31.6220   56.8300  C.2       1 <0>        -0.2178
       4  C4         -0.3070   31.0060   55.7180  C.2       1 <0>        -0.0266
       5  O1          1.0160   31.2200   55.6910  O.3       1 <0>         0.0991
       6  N1          1.3790   31.8740   56.6410  N.2       1 <0>        -0.3664
       7  C5         -1.1160   30.2370   54.7060  C.3       1 <0>        -0.0332
       8  C6         -0.5600   28.8170   54.5810  C.3       1 <0>        -0.0389
       9  C7         -1.0910   27.9590   55.7320  C.3       1 <0>        -0.1509
      10  C8          0.0630   27.2710   56.4180  C.2       1 <0>         0.3945
      11  O2          0.9240   27.9280   56.9620  O.2       1 <0>        -0.4366
      12  C9          0.1420   25.8020   56.4260  C.ar      1 <0>        -0.1701
      13  C10        -0.2350   25.0840   57.5660  C.ar      1 <0>        -0.0616
      14  C11        -0.1580   23.7080   57.5670  C.ar      1 <0>        -0.1321
      15  C12         0.2910   23.0350   56.4430  C.ar      1 <0>        -0.0882
      16  C13         0.6650   23.7390   55.3110  C.ar      1 <0>        -0.1328
      17  C14         0.5940   25.1150   55.2950  C.ar      1 <0>        -0.0752
      18  C15        -0.9950   28.2200   53.2670  C.ar      1 <0>        -0.0725
      19  C16        -0.5150   26.9840   52.8770  C.ar      1 <0>        -0.1221
      20  C17        -0.9170   26.4340   51.6740  C.ar      1 <0>        -0.1214
      21  C18        -1.7930   27.1250   50.8570  C.ar      1 <0>        -0.1210
      22  C19        -2.2700   28.3620   51.2450  C.ar      1 <0>        -0.1193
      23  C20        -1.8710   28.9100   52.4500  C.ar      1 <0>        -0.0859
@<TRIPOS>BOND
     1     1     2 1
     2     2     6 2
     3     2     3 1
     4     3     4 2
     5     4     5 1
     6     4     7 1
     7     5     6 1
     8     7     8 1
     9     8     9 1
    10     8    18 1
    11     9    10 1
    12    10    11 2
    13    10    12 1
    14    12    17 ar
    15    12    13 ar
    16    13    14 ar
    17    14    15 ar
    18    15    16 ar
    19    16    17 ar
    20    18    23 ar
    21    18    19 ar
    22    19    20 ar
    23    20    21 ar
    24    21    22 ar
    25    22    23 ar

@<TRIPOS>MOLECULE
ZINC08323874_replica-1.pdb
 25 27 0 0 0
SMALL
GASTEIGER

@<TRIPOS>ATOM
       1  C1         15.8360   33.9670   64.9480  C.3       1 <0>        -0.1538
       2  C2         15.3480   33.3930   63.6160  C.3       1 <0>         0.0528
       3  O1         14.1030   32.7190   63.8140  O.3       1 <0>        -0.3143
       4  C3         13.0590   33.1140   63.0420  C.ar      1 <0>         0.1424
       5  C4         11.9330   32.3070   62.9330  C.ar      1 <0>        -0.2115
       6  C5         10.8710   32.7030   62.1520  C.ar      1 <0>        -0.0522
       7  C6         10.9250   33.9220   61.4660  C.ar      1 <0>        -0.1091
       8  C7         12.0610   34.7310   61.5790  C.ar      1 <0>        -0.0630
       9  C8         13.1160   34.3280   62.3670  C.ar      1 <0>        -0.1537
      10  C9          9.7930   34.3500   60.6300  C.2       1 <0>        -0.0321
      11  C10        10.0160   35.0700   59.5120  C.2       1 <0>        -0.0979
      12  C11         8.8880   35.4960   58.6790  C.2       1 <0>         0.2165
      13  N1          8.8820   36.5480   57.8940  N.2       1 <0>        -0.4103
      14  C12         7.6720   36.6230   57.2830  C.2       1 <0>        -0.0520
      15  C13         6.9200   35.5490   57.7390  C.2       1 <0>         0.3394
      16  O2          7.6990   34.8660   58.5980  O.3       1 <0>        -0.2044
      17  N2          5.6280   35.2390   57.3790  N.pl3     1 <0>        -0.6762
      18  C14         4.5490   35.3360   58.3660  C.3       1 <0>         0.1422
      19  C15         4.2830   33.9550   58.9670  C.3       1 <0>        -0.1350
      20  C16         3.1560   34.0560   59.9980  C.3       1 <0>        -0.1171
      21  C17         1.8860   34.5690   59.3160  C.3       1 <0>        -0.1247
      22  C18         2.1520   35.9500   58.7150  C.3       1 <0>        -0.1156
      23  C19         3.2790   35.8490   57.6840  C.3       1 <0>        -0.1281
      24  C20         7.2500   37.6210   56.3470  C.1       1 <0>         0.3015
      25  N3          6.9160   38.4130   55.6050  N.1       1 <0>        -0.4085
@<TRIPOS>BOND
     1     1     2 1
     2     2     3 1
     3     3     4 1
     4     4     9 ar
     5     4     5 ar
     6     5     6 ar
     7     6     7 ar
     8     7     8 ar
     9     7    10 1
    10     8     9 ar
    11    10    11 2
    12    11    12 1
    13    12    16 1
    14    12    13 2
    15    13    14 1
    16    14    15 2
    17    14    24 1
    18    15    16 1
    19    15    17 1
    20    17    18 1
    21    18    23 1
    22    18    19 1
    23    19    20 1
    24    20    21 1
    25    21    22 1
    26    22    23 1
    27    24    25 3

@<TRIPOS>MOLECULE
ZINC06889761_replica-1.pdb
 24 25 0 0 0
SMALL
GASTEIGER

@<TRIPOS>ATOM
      1  C9        -1.2800   30.4870   56.2670 C.2     0  <0>0        0.1505
      2  S1        -2.7020   29.5920   55.9440 S.2     0  <0>0       -0.0172
      3  N2        -1.3680   31.7660   56.6820 N.am    0  <0>0       -0.2178
      4  H11       -2.2370   32.1800   56.7970 H       0  <0>0        0.1762
      5  N1        -0.0710   29.9130   56.1070 N.am    0  <0>0       -0.3145
      6  H10        0.5380   29.8450   56.8590 H       0  <0>0        0.1485
      7  C8         0.3240   29.3910   54.7960 C.3     0  <0>0        0.0931
      8  C7         0.3460   27.8620   54.8410 C.3     0  <0>0        0.0475
      9  C4        -0.2460   27.3120   53.5690 C.ar    0  <0>0       -0.0205
     10  C3        -0.0160   25.9970   53.2110 C.ar    0  <0>0       -0.0042
     11  C2        -0.5610   25.4940   52.0440 C.ar    0  <0>0       -0.0003
     12  C1        -1.3330   26.3060   51.2340 C.ar    0  <0>0       -0.0000
     13  C6        -1.5610   27.6210   51.5930 C.ar    0  <0>0       -0.0003
     14  C5        -1.0220   28.1230   52.7620 C.ar    0  <0>0       -0.0042
     15  N3        -0.2030   32.4990   56.9470 N.2     0  <0>0       -0.1783
     16  C10       -0.1560   33.2930   57.9730 C.2     0  <0>0        0.1206
     17  C11        1.0690   34.0640   58.2510 C.ar    0  <0>0        0.0587
     18  C16        2.0900   33.5050   59.0250 C.ar    0  <0>0        0.0614
     19  C15        3.2380   34.2320   59.2760 C.ar    0  <0>0        0.0116
     20 Cl          1.9190   31.9000   59.6640 Cl      0  <0>0       -0.0821
     21  C14        3.3740   35.5130   58.7740 C.ar    0  <0>0        0.0032
     22  C13        2.3670   36.0760   58.0110 C.ar    0  <0>0        0.0297
     23  C12        1.2150   35.3600   57.7460 C.ar    0  <0>0        0.1424
     24  F1         0.2320   35.9110   57.0000 F       0  <0>0       -0.2041
@<TRIPOS>BOND
     1    12    13   ar
     2    12    11   ar
     3    13    14   ar
     4    11    10   ar
     5    14     9   ar
     6    10     9   ar
     7     9     8    1
     8     7     8    1
     9     7     5    1
    10     2     1    2
    11     5     1    1
    12     5     6    1
    13     1     3    1
    14     3     4    1
    15     3    15    1
    16    15    16    2
    17    24    23    1
    18    23    22   ar
    19    23    17   ar
    20    16    17    1
    21    22    21   ar
    22    17    18   ar
    23    21    19   ar
    24    18    19   ar
    25    18    20    1


@<TRIPOS>MOLECULE
ZINC04249089_replica-1.pdb
 27 31 0 0 0
SMALL
GASTEIGER

@<TRIPOS>ATOM
       1  C1         -1.7970   27.3470   50.7810  C.ar      1 <0>        -0.1019
       2  C2         -1.2130   26.1080   51.0410  C.ar      1 <0>        -0.1178
       3  C3         -0.6130   25.8530   52.2350  C.ar      1 <0>        -0.0949
       4  C4         -0.5800   26.8520   53.2250  C.ar      1 <0>        -0.0649
       5  C5          0.0290   26.6230   54.4670  C.ar      1 <0>        -0.0258
       6  C6          0.0410   27.6310   55.4170  C.ar      1 <0>        -0.1411
       7  C7         -0.5520   28.8770   55.1420  C.ar      1 <0>        -0.0934
       8  C8         -1.1450   29.1170   53.9460  C.ar      1 <0>        -0.1061
       9  C9         -1.1740   28.1130   52.9610  C.ar      1 <0>        -0.0320
      10  C10        -1.7840   28.3380   51.7150  C.ar      1 <0>        -0.1133
      11  C11         0.6760   27.3950   56.7290  C.2       1 <0>         0.5611
      12  O1          0.5870   26.3040   57.2610  O.2       1 <0>        -0.5148
      13  N1          1.3540   28.3880   57.3390  N.am      1 <0>        -0.6691
      14  C12         1.8600   28.2000   58.6280  C.ar      1 <0>         0.1481
      15  C13         1.0390   28.3930   59.7330  C.ar      1 <0>        -0.1172
      16  C14         1.5340   28.2040   61.0040  C.ar      1 <0>        -0.0877
      17  C15         2.8650   27.8290   61.1840  C.ar      1 <0>        -0.0179
      18  C16         3.6890   27.6400   60.0750  C.ar      1 <0>        -0.0702
      19  C17         3.1870   27.8250   58.8050  C.ar      1 <0>        -0.1425
      20  C18         3.4020   27.6290   62.5520  C.2       1 <0>         0.0616
      21  C19         4.7030   27.6920   62.9110  C.2       1 <0>        -0.0092
      22  N2          4.7740   27.4450   64.2820  N.pl3     1 <0>        -0.5002
      23  C20         3.4900   27.2450   64.6800  C.2       1 <0>         0.2139
      24  N3          2.6760   27.3570   63.6640  N.2       1 <0>        -0.4384
      25  S1          3.5360   26.9260   66.4290  S.3       1 <0>        -0.0204
      26  C21         5.3430   27.0540   66.7040  C.3       1 <0>        -0.1041
      27  C22         5.8370   27.3660   65.2820  C.3       1 <0>         0.0898
@<TRIPOS>BOND
     1     1    10 ar
     2     1     2 ar
     3     2     3 ar
     4     3     4 ar
     5     4     9 ar
     6     4     5 ar
     7     5     6 ar
     8     6     7 ar
     9     6    11 1
    10     7     8 ar
    11     8     9 ar
    12     9    10 ar
    13    11    12 2
    14    11    13 am
    15    13    14 1
    16    14    19 ar
    17    14    15 ar
    18    15    16 ar
    19    16    17 ar
    20    17    18 ar
    21    17    20 1
    22    18    19 ar
    23    20    24 1
    24    20    21 2
    25    21    22 1
    26    22    27 1
    27    22    23 1
    28    23    24 2
    29    23    25 1
    30    25    26 1
    31    26    27 1

@<TRIPOS>MOLECULE
ZINC29011298_replica-1.pdb
 25 26 0 0 0
SMALL
GASTEIGER

@<TRIPOS>ATOM
       1  C1          4.3000   35.6210   56.8330  C.3       1 <0>        -0.1597
       2  C2          4.2450   36.0370   58.3040  C.3       1 <0>         0.1893
       3  C3          3.1680   35.2530   59.0070  C.ar      1 <0>        -0.0879
       4  C4          1.8380   35.5790   58.8150  C.ar      1 <0>        -0.0821
       5  C5          0.8480   34.8620   59.4580  C.ar      1 <0>        -0.1758
       6  C6          1.1870   33.8090   60.2930  C.ar      1 <0>         0.0906
       7  C7          2.5230   33.4840   60.4900  C.ar      1 <0>         0.0718
       8  C8          3.5110   34.2060   59.8440  C.ar      1 <0>        -0.1058
       9  F1          2.8580   32.4620   61.3070  F         1 <0>        -0.1330
      10  O1          0.2140   33.0980   60.9230  O.3       1 <0>        -0.3114
      11  C9         -0.2200   33.5800   62.1960  C.3       1 <0>         0.0226
      12  N1          5.5380   35.7660   58.9370  N.am      1 <0>        -0.7454
      13  C10         6.0290   36.6180   59.8590  C.2       1 <0>         0.5247
      14  O2          5.4000   37.6090   60.1640  O.2       1 <0>        -0.5362
      15  C11         7.3590   36.3400   60.5100  C.3       1 <0>        -0.1439
      16  C12         8.4740   36.9940   59.6920  C.3       1 <0>        -0.0088
      17  C13         8.9050   36.0490   58.5680  C.3       1 <0>        -0.1209
      18  C14         9.4150   34.7390   59.1710  C.3       1 <0>        -0.1174
      19  C15        10.6110   35.0280   60.0800  C.3       1 <0>        -0.1180
      20  C16        10.1810   35.9730   61.2040  C.3       1 <0>        -0.1168
      21  C17         9.6710   37.2830   60.6020  C.3       1 <0>        -0.1234
      22  C18         7.9640   38.3040   59.0900  C.3       1 <0>        -0.1640
      23  C19         8.0850   38.2490   57.5890  C.2       1 <0>         0.4649
      24  O3          9.0470   38.7370   57.0420  O.co2     1 <0>        -0.6388
      25  O4          7.1270   37.6570   56.8580  O.co2     1 <0>        -0.7779
@<TRIPOS>BOND
     1     1     2 1
     2     2     3 1
     3     2    12 1
     4     3     8 ar
     5     3     4 ar
     6     4     5 ar
     7     5     6 ar
     8     6     7 ar
     9     6    10 1
    10     7     8 ar
    11     7     9 1
    12    10    11 1
    13    12    13 am
    14    13    14 2
    15    13    15 1
    16    15    16 1
    17    16    21 1
    18    16    17 1
    19    16    22 1
    20    17    18 1
    21    18    19 1
    22    19    20 1
    23    20    21 1
    24    22    23 1
    25    23    24 2
    26    23    25 1

@<TRIPOS>MOLECULE
CHEMBL426702_replica-1.pdb
 32 37 0 0 0
SMALL
GASTEIGER

@<TRIPOS>ATOM
       1  C1          6.9150   33.1390   61.0720  C.3       1 <0>         0.0544
       2  N1          7.4450   32.9200   59.7240  N.am      1 <0>        -0.6043
       3  C2          8.8880   32.9820   59.4850  C.3       1 <0>         0.1510
       4  C3          9.4380   34.2630   60.0590  C.ar      1 <0>        -0.0889
       5  C4         10.3660   34.2240   61.0970  C.ar      1 <0>        -0.0331
       6  C5         10.8100   32.9960   61.6330  C.ar      1 <0>        -0.1233
       7  C6         11.7150   32.9940   62.6450  C.ar      1 <0>        -0.1072
       8  C7         12.2240   34.1800   63.1760  C.ar      1 <0>        -0.1206
       9  C8         11.8390   35.3940   62.7080  C.ar      1 <0>        -0.0990
      10  C9         10.9010   35.4710   61.6560  C.ar      1 <0>        -0.0546
      11  C10        10.4830   36.7010   61.1510  C.ar      1 <0>        -0.0843
      12  C11         9.5550   36.7400   60.1140  C.ar      1 <0>        -0.0508
      13  C12         9.0260   35.4930   59.5500  C.ar      1 <0>        -0.0293
      14  C13         8.0910   35.5690   58.4940  C.ar      1 <0>        -0.1012
      15  C14         7.7120   36.7840   58.0230  C.ar      1 <0>        -0.1171
      16  C15         8.2200   37.9700   58.5540  C.ar      1 <0>        -0.1097
      17  C16         9.1110   37.9680   59.5790  C.ar      1 <0>        -0.1153
      18  C17         6.6020   32.6630   58.7030  C.2       1 <0>         0.5295
      19  O1          7.0440   32.3890   57.6070  O.2       1 <0>        -0.5216
      20  C18         5.1120   32.7150   58.9240  C.3       1 <0>        -0.1233
      21  C19         4.4590   31.3470   58.6160  C.3       1 <0>        -0.1421
      22  C20         3.1370   31.7040   57.9740  C.2       1 <0>         0.5212
      23  O2          2.2040   30.9420   57.8350  O.2       1 <0>        -0.5229
      24  N2          3.1470   32.9890   57.5780  N.am      1 <0>        -0.6058
      25  C21         4.4310   33.6310   57.8840  C.3       1 <0>         0.1123
      26  C22         2.0210   33.6620   56.9250  C.3       1 <0>         0.1555
      27  C23         2.4680   35.0260   56.3520  C.3       1 <0>        -0.1325
      28  C24         1.5940   36.0750   57.1040  C.3       1 <0>        -0.1024
      29  C25         2.1420   36.0640   58.5640  C.3       1 <0>        -0.1210
      30  C26         1.6960   34.7010   59.1390  C.3       1 <0>        -0.1207
      31  C27         0.9200   34.0160   57.9710  C.3       1 <0>        -0.1109
      32  C28         0.2630   35.2670   57.2880  C.3       1 <0>        -0.1231
@<TRIPOS>BOND
     1     1     2 1
     2     2     3 1
     3     2    18 am
     4     3     4 1
     5     4    13 ar
     6     4     5 ar
     7     5    10 ar
     8     5     6 ar
     9     6     7 ar
    10     7     8 ar
    11     8     9 ar
    12     9    10 ar
    13    10    11 ar
    14    11    12 ar
    15    12    17 ar
    16    12    13 ar
    17    13    14 ar
    18    14    15 ar
    19    15    16 ar
    20    16    17 ar
    21    18    19 2
    22    18    20 1
    23    20    25 1
    24    20    21 1
    25    21    22 1
    26    22    23 2
    27    22    24 am
    28    24    25 1
    29    24    26 1
    30    26    31 1
    31    26    27 1
    32    27    28 1
    33    28    32 1
    34    28    29 1
    35    29    30 1
    36    30    31 1
    37    31    32 1

@<TRIPOS>MOLECULE
ZINC06471174_replica-1.pdb
 27 30 0 0 0
SMALL
GASTEIGER

@<TRIPOS>ATOM
       1  C1          8.1420   38.2680   59.5540  C.3       1 <0>        -0.1183
       2  C2          7.3930   37.4410   58.5410  C.ar      1 <0>        -0.0560
       3  C3          7.8440   37.3710   57.2360  C.ar      1 <0>        -0.1189
       4  C4          7.1610   36.6100   56.3050  C.ar      1 <0>        -0.0540
       5  C5          6.0200   35.9270   56.6740  C.ar      1 <0>        -0.1463
       6  C6          5.5610   36.0000   57.9820  C.ar      1 <0>         0.1579
       7  C7          6.2510   36.7610   58.9160  C.ar      1 <0>        -0.1106
       8  N1          4.4020   35.3070   58.3590  N.pl3     1 <0>        -0.3200
       9  C8          4.1960   33.9720   58.2480  C.2       1 <0>         0.3332
      10  C9          2.9350   33.7030   58.7310  C.2       1 <0>        -0.2367
      11  C10         2.3740   34.9020   59.1390  C.2       1 <0>         0.0734
      12  N2          3.2550   35.8680   58.9230  N.2       1 <0>        -0.2586
      13  C11         0.9600   34.8370   59.7150  C.3       1 <0>         0.0192
      14  S1          0.7740   33.0390   60.0550  S.3       1 <0>        -0.2835
      15  C12         2.0790   32.4500   58.9000  C.3       1 <0>         0.0562
      16  N3          5.0970   33.0400   57.7380  N.am      1 <0>        -0.6497
      17  C13         5.7340   32.1930   58.5700  C.2       1 <0>         0.5466
      18  O1          5.5750   32.2870   59.7730  O.2       1 <0>        -0.4836
      19  C14         6.6170   31.1580   58.0280  C.2       1 <0>        -0.2276
      20  C15         7.9470   31.3690   57.9710  C.2       1 <0>         0.0080
      21  C16         8.5450   32.5010   58.6980  C.ar      1 <0>        -0.0861
      22  C17         8.8400   32.3840   60.0600  C.ar      1 <0>        -0.0927
      23  C18         9.4040   33.4470   60.7340  C.ar      1 <0>        -0.1309
      24  C19         9.6670   34.6310   60.0680  C.ar      1 <0>        -0.1008
      25  C20         9.3730   34.7560   58.7220  C.ar      1 <0>        -0.1291
      26  C21         8.8130   33.7010   58.0330  C.ar      1 <0>        -0.0427
      27  C22         7.6610   36.5320   54.8850  C.3       1 <0>        -0.1184
@<TRIPOS>BOND
     1     1     2 1
     2     2     7 ar
     3     2     3 ar
     4     3     4 ar
     5     4     5 ar
     6     4    27 1
     7     5     6 ar
     8     6     7 ar
     9     6     8 1
    10     8    12 1
    11     8     9 1
    12     9    10 2
    13     9    16 1
    14    10    15 1
    15    10    11 1
    16    11    12 2
    17    11    13 1
    18    13    14 1
    19    14    15 1
    20    16    17 am
    21    17    18 2
    22    17    19 1
    23    19    20 2
    24    20    21 1
    25    21    26 ar
    26    21    22 ar
    27    22    23 ar
    28    23    24 ar
    29    24    25 ar
    30    25    26 ar

@<TRIPOS>MOLECULE
ZINC65331145_replica-1.pdb
 26 29 0 0 0
SMALL
GASTEIGER

@<TRIPOS>ATOM
       1  C1          1.6930   33.9200   59.2250  C.ar      1 <0>        -0.1158
       2  C2          2.7570   33.5250   60.0150  C.ar      1 <0>        -0.0963
       3  C3          3.9030   34.2940   60.0680  C.ar      1 <0>        -0.1035
       4  C4          3.9850   35.4650   59.3270  C.ar      1 <0>         0.1426
       5  C5          2.9160   35.8600   58.5350  C.ar      1 <0>        -0.1400
       6  C6          1.7730   35.0860   58.4860  C.ar      1 <0>        -0.0934
       7  N1          5.1470   36.2490   59.3790  N.pl3     1 <0>        -0.3188
       8  C7          6.3290   35.9610   58.7970  C.2       1 <0>         0.3252
       9  C8          7.1940   36.9830   59.0890  C.2       1 <0>        -0.2664
      10  C9          6.5160   37.9080   59.8680  C.2       1 <0>         0.0988
      11  N2          5.2870   37.4800   60.0420  N.2       1 <0>        -0.2777
      12  C10         8.6170   36.9960   58.5930  C.3       1 <0>         0.0359
      13  C11         8.6750   36.2240   57.2710  C.3       1 <0>        -0.1339
      14  C12         7.8790   34.9530   57.3430  C.2       1 <0>         0.5344
      15  O1          8.2940   33.9700   56.7650  O.2       1 <0>        -0.5056
      16  N3          6.7190   34.8650   58.0280  N.am      1 <0>        -0.6511
      17  C13         9.5150   36.3350   59.6070  C.ar      1 <0>        -0.0465
      18  C14        10.0420   35.0830   59.3520  C.ar      1 <0>        -0.1143
      19  C15        10.8650   34.4780   60.2810  C.ar      1 <0>        -0.0647
      20  C16        11.1630   35.1240   61.4670  C.ar      1 <0>        -0.1829
      21  C17        10.6370   36.3770   61.7220  C.ar      1 <0>        -0.0657
      22  C18         9.8160   36.9850   60.7900  C.ar      1 <0>        -0.1096
      23  C19        12.0600   34.4630   62.4810  C.3       1 <0>         0.5076
      24  F1         13.2830   34.1420   61.8820  F         1 <0>        -0.1755
      25  F2         12.2800   35.3380   63.5510  F         1 <0>        -0.1762
      26  F3         11.4500   33.2960   62.9520  F         1 <0>        -0.1771
@<TRIPOS>BOND
     1     1     6 ar
     2     1     2 ar
     3     2     3 ar
     4     3     4 ar
     5     4     5 ar
     6     4     7 1
     7     5     6 ar
     8     7    11 1
     9     7     8 1
    10     8    16 1
    11     8     9 2
    12     9    10 1
    13     9    12 1
    14    10    11 2
    15    12    13 1
    16    12    17 1
    17    13    14 1
    18    14    15 2
    19    14    16 am
    20    17    22 ar
    21    17    18 ar
    22    18    19 ar
    23    19    20 ar
    24    20    21 ar
    25    20    23 1
    26    21    22 ar
    27    23    24 1
    28    23    25 1
    29    23    26 1

@<TRIPOS>MOLECULE
ZINC13691028_replica-1.pdb
 26 29 0 0 0
SMALL
GASTEIGER

@<TRIPOS>ATOM
       1  C1         -2.7050   30.8680   55.9550  C.3       1 <0>        -0.1509
       2  C2         -2.3780   29.4870   55.3820  C.3       1 <0>         0.1497
       3  C3         -1.3310   28.8260   56.2410  C.2       1 <0>        -0.1998
       4  C4         -0.4830   27.9160   55.6880  C.2       1 <0>         0.0074
       5  C5         -0.6170   27.6390   54.2500  C.ar      1 <0>        -0.1464
       6  C6         -0.0390   26.5100   53.6700  C.ar      1 <0>        -0.0602
       7  C7         -0.1900   26.2890   52.3160  C.ar      1 <0>        -0.1510
       8  C8         -0.9110   27.1800   51.5370  C.ar      1 <0>        -0.0705
       9  C9         -1.4880   28.3030   52.1030  C.ar      1 <0>        -0.1478
      10  C10        -1.3470   28.5420   53.4580  C.ar      1 <0>         0.1466
      11  O1         -1.9000   29.6340   54.0410  O.3       1 <0>        -0.3026
      12  C11        -1.2360   29.1430   57.6090  C.2       1 <0>         0.1089
      13  C12        -0.2820   30.0200   58.0400  C.2       1 <0>        -0.2453
      14  C13         0.6650   30.8370   57.2610  C.2       1 <0>         0.5346
      15  O2          0.6910   30.7970   56.0440  O.2       1 <0>        -0.4335
      16  N1          1.4860   31.6140   57.9480  N.am      1 <0>        -0.4781
      17  C14         1.4530   31.6550   59.2950  C.2       1 <0>         0.2712
      18  S1          2.4230   32.5860   60.3550  S.2       1 <0>        -0.3031
      19  S2          0.1530   30.5010   59.7060  S.3       1 <0>         0.0783
      20  C15         2.4090   32.4120   57.2600  C.ar      1 <0>         0.1085
      21  C16         3.7350   32.0110   57.1580  C.ar      1 <0>        -0.0902
      22  C17         4.6440   32.7950   56.4760  C.ar      1 <0>        -0.0887
      23  C18         4.2400   33.9860   55.9020  C.ar      1 <0>        -0.1217
      24  C19         2.9180   34.3940   56.0040  C.ar      1 <0>         0.1184
      25  C20         2.0010   33.6060   56.6840  C.ar      1 <0>        -0.1126
      26  O3          2.5220   35.5640   55.4380  O.3       1 <0>        -0.4926
@<TRIPOS>BOND
     1     1     2 1
     2     2    11 1
     3     2     3 1
     4     3     4 2
     5     3    12 1
     6     4     5 1
     7     5    10 ar
     8     5     6 ar
     9     6     7 ar
    10     7     8 ar
    11     8     9 ar
    12     9    10 ar
    13    10    11 1
    14    12    13 2
    15    13    19 1
    16    13    14 1
    17    14    15 2
    18    14    16 am
    19    16    17 1
    20    16    20 1
    21    17    18 2
    22    17    19 1
    23    20    25 ar
    24    20    21 ar
    25    21    22 ar
    26    22    23 ar
    27    23    24 ar
    28    24    25 ar
    29    24    26 1

@<TRIPOS>MOLECULE
ZINC36145787_replica-1.pdb
 31 34 0 0 0
SMALL
GASTEIGER

@<TRIPOS>ATOM
       1  C1         10.3730   32.3100   62.4350  C.3       1 <0>        -0.1355
       2  C2         11.7990   32.7840   62.5350  C.ar      1 <0>        -0.0336
       3  C3         12.7380   32.0180   63.1960  C.ar      1 <0>        -0.1249
       4  C4         14.0480   32.4520   63.2900  C.ar      1 <0>        -0.0796
       5  C5         14.4270   33.6560   62.7220  C.ar      1 <0>        -0.1284
       6  C6         13.4980   34.4320   62.0600  C.ar      1 <0>        -0.0775
       7  C7         12.1750   33.9970   61.9570  C.ar      1 <0>        -0.0741
       8  C8         11.1790   34.8190   61.2430  C.2       1 <0>         0.1584
       9  N1         10.6660   34.5520   60.0880  N.2       1 <0>        -0.2698
      10  O1          9.7300   35.5230   59.6640  O.3       1 <0>        -0.2148
      11  C9          9.9430   36.7090   60.4570  C.3       1 <0>         0.0160
      12  C10        10.5730   36.1170   61.7420  C.3       1 <0>        -0.1418
      13  C11         8.6160   37.4020   60.7710  C.3       1 <0>        -0.0136
      14  N2          7.7130   37.2780   59.6190  N.4       1 <0>        -0.3727
      15  C12         6.3210   37.2560   60.0860  C.3       1 <0>         0.0265
      16  C13         5.6450   36.0020   59.5930  C.ar      1 <0>        -0.1476
      17  C14         6.2180   34.7670   59.8340  C.ar      1 <0>        -0.0984
      18  C15         5.5980   33.6180   59.3820  C.ar      1 <0>        -0.1145
      19  C16         4.4050   33.7030   58.6880  C.ar      1 <0>        -0.0856
      20  C17         3.8310   34.9380   58.4480  C.ar      1 <0>        -0.1130
      21  C18         4.4490   36.0870   58.9040  C.ar      1 <0>        -0.1022
      22  C19         7.9090   38.4210   58.7170  C.3       1 <0>        -0.0551
      23  C20         8.3840   37.9190   57.3520  C.3       1 <0>         0.0899
      24  C21         7.1710   37.6300   56.4640  C.3       1 <0>        -0.1052
      25  C22         7.0610   36.1460   56.2320  C.ar      1 <0>        -0.0954
      26  C23         5.9840   35.6350   55.5290  C.ar      1 <0>        -0.1014
      27  C24         5.8830   34.2730   55.3150  C.ar      1 <0>        -0.1159
      28  C25         6.8580   33.4220   55.8030  C.ar      1 <0>        -0.1115
      29  C26         7.9340   33.9330   56.5040  C.ar      1 <0>        -0.1161
      30  C27         8.0380   35.2960   56.7150  C.ar      1 <0>        -0.1175
      31  O2          9.1980   38.9170   56.7340  O.3       1 <0>        -0.5469
@<TRIPOS>BOND
     1     1     2 1
     2     2     7 ar
     3     2     3 ar
     4     3     4 ar
     5     4     5 ar
     6     5     6 ar
     7     6     7 ar
     8     7     8 1
     9     8    12 1
    10     8     9 2
    11     9    10 1
    12    10    11 1
    13    11    12 1
    14    11    13 1
    15    13    14 1
    16    14    15 1
    17    14    22 1
    18    15    16 1
    19    16    21 ar
    20    16    17 ar
    21    17    18 ar
    22    18    19 ar
    23    19    20 ar
    24    20    21 ar
    25    22    23 1
    26    23    24 1
    27    23    31 1
    28    24    25 1
    29    25    30 ar
    30    25    26 ar
    31    26    27 ar
    32    27    28 ar
    33    28    29 ar
    34    29    30 ar

@<TRIPOS>MOLECULE
ZINC02963650_replica-1.pdb
 27 30 0 0 0
SMALL
GASTEIGER

@<TRIPOS>ATOM
       1  C1          5.4330   34.6400   59.7430  C.3       1 <0>        -0.1436
       2  C2          6.7910   35.3440   59.8050  C.3       1 <0>         0.3164
       3  C3          6.6710   36.6020   60.7070  C.3       1 <0>        -0.1672
       4  C4          8.0330   37.3120   60.6250  C.3       1 <0>         0.1651
       5  C5          9.1240   36.3250   60.9750  C.ar      1 <0>        -0.1564
       6  C6         10.3330   36.8040   61.4500  C.ar      1 <0>        -0.1014
       7  C7         11.3510   35.9270   61.7710  C.ar      1 <0>        -0.1047
       8  C8         11.1650   34.5660   61.6160  C.ar      1 <0>        -0.1677
       9  C9          9.9580   34.0820   61.1450  C.ar      1 <0>         0.1087
      10  C10         8.9260   34.9670   60.8230  C.ar      1 <0>         0.1106
      11  O1          7.7520   34.4550   60.3690  O.3       1 <0>        -0.2907
      12  O2          9.7750   32.7420   60.9930  O.3       1 <0>        -0.3039
      13  C11        10.0510   31.9180   62.1280  C.3       1 <0>         0.0247
      14  N1          8.2390   37.7160   59.2240  N.pl3     1 <0>        -0.6647
      15  C12         7.8380   36.9050   58.2310  C.2       1 <0>         0.5750
      16  S1          8.1700   37.3550   56.6120  S.2       1 <0>        -0.6151
      17  N2          7.1860   35.7540   58.4610  N.pl3     1 <0>        -0.5268
      18  C13         6.8750   34.9230   57.3790  C.ar      1 <0>         0.1426
      19  C14         7.6830   33.8320   57.0870  C.ar      1 <0>        -0.0579
      20  C15         7.3710   33.0090   56.0220  C.ar      1 <0>        -0.1089
      21  C16         6.2620   33.2790   55.2410  C.ar      1 <0>        -0.0562
      22  C17         5.4600   34.3680   55.5260  C.ar      1 <0>        -0.1748
      23  C18         5.7630   35.1900   56.5930  C.ar      1 <0>        -0.0370
      24  C19         4.2530   34.6570   54.6710  C.3       1 <0>         0.5109
      25  F1          4.5980   34.5380   53.3210  F         1 <0>        -0.1712
      26  F2          3.2360   33.7450   54.9750  F         1 <0>        -0.1755
      27  F3          3.8030   35.9570   54.9250  F         1 <0>        -0.1777
@<TRIPOS>BOND
     1     1     2 1
     2     2    11 1
     3     2    17 1
     4     2     3 1
     5     3     4 1
     6     4     5 1
     7     4    14 1
     8     5    10 ar
     9     5     6 ar
    10     6     7 ar
    11     7     8 ar
    12     8     9 ar
    13     9    10 ar
    14     9    12 1
    15    10    11 1
    16    12    13 1
    17    14    15 1
    18    15    16 2
    19    15    17 1
    20    17    18 1
    21    18    23 ar
    22    18    19 ar
    23    19    20 ar
    24    20    21 ar
    25    21    22 ar
    26    22    23 ar
    27    22    24 1
    28    24    25 1
    29    24    26 1
    30    24    27 1

@<TRIPOS>MOLECULE
ZINC04663307_replica-1.pdb
 25 28 0 0 0
SMALL
GASTEIGER

@<TRIPOS>ATOM
       1  C1          5.2510   31.1320   59.6250  C.3       1 <0>         0.0534
       2  N1          4.3410   32.2810   59.6430  N.am      1 <0>        -0.5251
       3  C2          4.7790   33.4640   59.2490  C.2       1 <0>         0.5427
       4  O1          5.9260   33.6140   58.8700  O.2       1 <0>        -0.4715
       5  C3          3.8650   34.5610   59.2790  C.2       1 <0>        -0.2917
       6  C4          4.0640   35.8630   58.9350  C.2       1 <0>         0.1745
       7  C5          5.4090   36.3360   58.6080  C.2       1 <0>        -0.2183
       8  C6          6.3070   36.9080   59.4650  C.2       1 <0>         0.1772
       9  N2          7.4460   37.2160   58.7950  N.pl3     1 <0>        -0.4602
      10  C7          7.3370   36.8560   57.4680  C.ar      1 <0>         0.0909
      11  C8          6.0670   36.2860   57.2880  C.ar      1 <0>        -0.0686
      12  C9          5.6810   35.8220   56.0330  C.ar      1 <0>        -0.0816
      13  C10         6.5530   35.9210   54.9710  C.ar      1 <0>        -0.1306
      14  C11         7.8100   36.4820   55.1480  C.ar      1 <0>        -0.1021
      15  C12         8.2010   36.9520   56.3820  C.ar      1 <0>        -0.1169
      16  C13         8.6270   37.8430   59.3970  C.3       1 <0>         0.1463
      17  C14         9.4920   36.7820   60.0270  C.ar      1 <0>        -0.1209
      18  C15         9.7270   35.5950   59.3590  C.ar      1 <0>        -0.0968
      19  C16        10.5240   34.6230   59.9340  C.ar      1 <0>        -0.1186
      20  C17        11.0800   34.8360   61.1830  C.ar      1 <0>        -0.1074
      21  C18        10.8410   36.0220   61.8530  C.ar      1 <0>        -0.1192
      22  C19        10.0470   36.9940   61.2740  C.ar      1 <0>        -0.1001
      23  S1          2.3920   33.7610   59.9000  S.3       1 <0>         0.0654
      24  C20         3.0680   32.1150   60.0640  C.2       1 <0>         0.2816
      25  S2          2.2960   30.6880   60.6120  S.2       1 <0>        -0.3470
@<TRIPOS>BOND
     1     1     2 1
     2     2    24 1
     3     2     3 am
     4     3     4 2
     5     3     5 1
     6     5     6 2
     7     5    23 1
     8     6     7 1
     9     7    11 1
    10     7     8 2
    11     8     9 1
    12     9    10 1
    13     9    16 1
    14    10    15 ar
    15    10    11 ar
    16    11    12 ar
    17    12    13 ar
    18    13    14 ar
    19    14    15 ar
    20    16    17 1
    21    17    22 ar
    22    17    18 ar
    23    18    19 ar
    24    19    20 ar
    25    20    21 ar
    26    21    22 ar
    27    23    24 1
    28    24    25 2

@<TRIPOS>MOLECULE
ZINC21811334_replica-1.pdb
 21 23 0 0 0
SMALL
GASTEIGER

@<TRIPOS>ATOM
       1  C1          7.0120   37.0380   60.7970  C.3       1 <0>        -0.1374
       2  C2          8.1050   37.7870   60.0340  C.3       1 <0>        -0.0462
       3  C3          9.4550   37.1090   60.2790  C.3       1 <0>         0.0576
       4  N1          9.2940   36.0430   61.2770  N.3       1 <0>        -0.6642
       5  C4          9.5720   34.7260   60.6880  C.3       1 <0>         0.1502
       6  C5          9.9740   34.8980   59.2210  C.3       1 <0>        -0.1826
       7  C6         10.6980   34.0660   61.4430  C.2       1 <0>         0.0623
       8  C7         11.8930   34.6240   61.6790  C.2       1 <0>        -0.2125
       9  C8         12.6640   33.6330   62.4390  C.ar      1 <0>        -0.1281
      10  C9         13.9500   33.6020   62.9770  C.ar      1 <0>        -0.0737
      11  C10        14.3770   32.4920   63.6510  C.ar      1 <0>        -0.1359
      12  C11        13.5380   31.3960   63.8010  C.ar      1 <0>        -0.0958
      13  C12        12.2640   31.4080   63.2760  C.ar      1 <0>        -0.1064
      14  C13        11.8110   32.5270   62.5880  C.ar      1 <0>         0.0508
      15  O1         10.6490   32.8330   61.9760  O.3       1 <0>        -0.1810
      16  C14         7.7930   37.7660   58.5610  C.ar      1 <0>        -0.0781
      17  C15         8.3530   38.7110   57.7220  C.ar      1 <0>        -0.1148
      18  C16         8.0710   38.6890   56.3690  C.ar      1 <0>        -0.1183
      19  C17         7.2180   37.7280   55.8560  C.ar      1 <0>        -0.1242
      20  C18         6.6540   36.7860   56.6960  C.ar      1 <0>        -0.1181
      21  C19         6.9410   36.8060   58.0480  C.ar      1 <0>        -0.1173
@<TRIPOS>BOND
     1     1     2 1
     2     2     3 1
     3     2    16 1
     4     3     4 1
     5     4     5 1
     6     5     6 1
     7     5     7 1
     8     7    15 1
     9     7     8 2
    10     8     9 1
    11     9    14 ar
    12     9    10 ar
    13    10    11 ar
    14    11    12 ar
    15    12    13 ar
    16    13    14 ar
    17    14    15 1
    18    16    21 ar
    19    16    17 ar
    20    17    18 ar
    21    18    19 ar
    22    19    20 ar
    23    20    21 ar

@<TRIPOS>MOLECULE
ZINC43548657_replica-1.pdb
 33 36 0 0 0
SMALL
GASTEIGER

@<TRIPOS>ATOM
       1  C1          8.8770   33.2200   59.4890  C.3       1 <0>        -0.1349
       2  C2          9.1020   34.7310   59.4280  C.3       1 <0>        -0.0039
       3  C3         10.0500   35.1490   60.5410  C.2       1 <0>         0.1118
       4  C4          9.8290   36.2860   61.2470  C.2       1 <0>        -0.2423
       5  S1         11.1860   36.3060   62.3850  S.3       1 <0>         0.1110
       6  C5         11.9210   34.8770   61.8760  C.2       1 <0>         0.2949
       7  N1         11.1340   34.4660   60.9050  N.2       1 <0>        -0.5666
       8  N2         13.0730   34.2800   62.3630  N.pl3     1 <0>        -0.6199
       9  C6         13.0060   33.0250   62.9770  C.ar      1 <0>         0.1554
      10  C7         11.8130   32.3150   62.9780  C.ar      1 <0>        -0.1318
      11  C8         11.7480   31.0750   63.5830  C.ar      1 <0>        -0.1144
      12  C9         12.8730   30.5400   64.1890  C.ar      1 <0>         0.0801
      13  C10        14.0640   31.2470   64.1890  C.ar      1 <0>        -0.1193
      14  C11        14.1340   32.4840   63.5800  C.ar      1 <0>        -0.1160
      15  F1         12.8070   29.3270   64.7810  F         1 <0>        -0.1364
      16  C12         8.7090   37.2540   61.0810  C.3       1 <0>        -0.0156
      17  C13         7.9950   36.9630   59.7590  C.3       1 <0>        -0.0437
      18  C14         7.7630   35.4560   59.6050  C.3       1 <0>        -0.0576
      19  C15         6.9340   35.2370   58.3280  C.3       1 <0>         0.1056
      20  C16         7.7420   35.7330   57.1270  C.3       1 <0>        -0.0998
      21  C17         8.0450   37.2250   57.2810  C.3       1 <0>        -0.1417
      22  C18         8.8250   37.4640   58.5770  C.3       1 <0>        -0.1094
      23  C19         6.9350   35.5110   55.8460  C.3       1 <0>        -0.1115
      24  C20         7.5460   36.3330   54.7100  C.3       1 <0>        -0.1441
      25  C21         5.5080   35.9450   56.0690  C.2       1 <0>         0.5180
      26  O1          5.2700   37.0710   56.4530  O.2       1 <0>        -0.5235
      27  N3          4.4980   35.0830   55.8420  N.am      1 <0>        -0.6134
      28  C22         4.7890   33.6980   55.4600  C.3       1 <0>         0.0712
      29  C23         3.1100   35.5290   55.9780  C.3       1 <0>         0.1390
      30  C24         2.5640   35.0810   57.3080  C.2       1 <0>        -0.1709
      31  C25         2.4700   35.9320   58.2990  C.2       1 <0>        -0.1782
      32  O2          6.6490   33.8450   58.1750  O.3       1 <0>        -0.5545
      33  C26         6.6370   37.6650   59.7540  C.3       1 <0>        -0.1599
@<TRIPOS>BOND
     1     1     2 1
     2     2    18 1
     3     2     3 1
     4     3     7 1
     5     3     4 2
     6     4     5 1
     7     4    16 1
     8     5     6 1
     9     6     7 2
    10     6     8 1
    11     8     9 1
    12     9    14 ar
    13     9    10 ar
    14    10    11 ar
    15    11    12 ar
    16    12    13 ar
    17    12    15 1
    18    13    14 ar
    19    16    17 1
    20    17    22 1
    21    17    18 1
    22    17    33 1
    23    18    19 1
    24    19    20 1
    25    19    32 1
    26    20    21 1
    27    20    23 1
    28    21    22 1
    29    23    24 1
    30    23    25 1
    31    25    26 2
    32    25    27 am
    33    27    28 1
    34    27    29 1
    35    29    30 1
    36    30    31 2

@<TRIPOS>MOLECULE
ZINC14197133_replica-1.pdb
 24 26 0 0 0
SMALL
GASTEIGER

@<TRIPOS>ATOM
       1  C1          8.2140   36.0120   56.1890  C.3       1 <0>        -0.0799
       2  C2          7.0100   36.1130   57.0890  C.2       1 <0>         0.0542
       3  C3          6.9870   36.6100   58.3580  C.2       1 <0>        -0.0776
       4  N1          5.7090   36.5170   58.8050  N.2       1 <0>        -0.4484
       5  C4          4.9770   35.9870   57.8580  C.2       1 <0>         0.2426
       6  O1          5.7580   35.7310   56.7920  O.3       1 <0>        -0.1881
       7  C5          3.5270   35.7090   57.9460  C.ar      1 <0>        -0.0239
       8  C6          2.6760   36.0910   56.9080  C.ar      1 <0>        -0.0874
       9  C7          1.3250   35.8240   56.9940  C.ar      1 <0>        -0.1199
      10  C8          0.8130   35.1890   58.1110  C.ar      1 <0>        -0.0967
      11  C9          1.6500   34.8120   59.1470  C.ar      1 <0>        -0.1205
      12  C10         3.0040   35.0690   59.0700  C.ar      1 <0>        -0.0694
      13  C11         8.1370   37.1510   59.1060  C.2       1 <0>         0.6108
      14  O2          8.4800   38.3060   58.9420  O.2       1 <0>        -0.5286
      15  N2          8.8090   36.3650   59.9700  N.am      1 <0>        -0.7132
      16  C12         9.9510   36.9030   60.7130  C.3       1 <0>         0.2389
      17  C13        10.7300   35.7920   61.2870  C.1       1 <0>        -0.1808
      18  C14        11.3520   34.9070   61.7440  C.1       1 <0>        -0.1024
      19  C15        12.1100   33.8280   62.3010  C.ar      1 <0>         0.0048
      20  C16        13.4890   33.9570   62.4750  C.ar      1 <0>        -0.0922
      21  C17        14.2130   32.9140   63.0160  C.ar      1 <0>        -0.1194
      22  C18        13.5760   31.7400   63.3770  C.ar      1 <0>        -0.1066
      23  C19        12.2110   31.6050   63.2020  C.ar      1 <0>        -0.1194
      24  C20        11.4750   32.6410   62.6670  C.ar      1 <0>        -0.0924
@<TRIPOS>BOND
     1     1     2 1
     2     2     6 1
     3     2     3 2
     4     3     4 1
     5     3    13 1
     6     4     5 2
     7     5     6 1
     8     5     7 1
     9     7    12 ar
    10     7     8 ar
    11     8     9 ar
    12     9    10 ar
    13    10    11 ar
    14    11    12 ar
    15    13    14 2
    16    13    15 am
    17    15    16 1
    18    16    17 1
    19    17    18 3
    20    18    19 1
    21    19    24 ar
    22    19    20 ar
    23    20    21 ar
    24    21    22 ar
    25    22    23 ar
    26    23    24 ar

@<TRIPOS>MOLECULE
ZINC38899177_replica-1.pdb
 28 30 0 0 0
SMALL
GASTEIGER

@<TRIPOS>ATOM
       1  C1          0.6380   30.6470   59.6510  C.3       1 <0>        -0.1112
       2  C2          0.4320   31.5230   58.4410  C.2       1 <0>         0.2041
       3  C3          0.4890   32.8800   58.5650  C.2       1 <0>        -0.2476
       4  C4          0.2940   33.6770   57.4220  C.2       1 <0>         0.5420
       5  O1          0.3390   34.8940   57.4970  O.2       1 <0>        -0.5308
       6  N1          0.0570   33.0680   56.2400  N.am      1 <0>        -0.6141
       7  C5          0.0110   31.7080   56.1780  C.2       1 <0>         0.3733
       8  N2          0.2010   30.9690   57.2530  N.2       1 <0>        -0.5369
       9  S1         -0.2990   30.9230   54.6310  S.3       1 <0>        -0.0042
      10  C6         -1.0270   29.3260   55.0870  C.3       1 <0>        -0.0179
      11  C7         -2.4920   29.5270   55.4820  C.3       1 <0>        -0.1479
      12  C8         -0.9470   28.3830   53.9140  C.ar      1 <0>        -0.0812
      13  C9         -0.2680   27.1850   54.0370  C.ar      1 <0>        -0.1031
      14  C10        -0.1950   26.3200   52.9610  C.ar      1 <0>        -0.1173
      15  C11        -0.7990   26.6530   51.7630  C.ar      1 <0>        -0.1098
      16  C12        -1.4780   27.8510   51.6420  C.ar      1 <0>        -0.1175
      17  C13        -1.5560   28.7140   52.7190  C.ar      1 <0>        -0.0974
      18  C14         0.7560   33.5180   59.9040  C.3       1 <0>        -0.0723
      19  C15         2.2310   33.7950   60.0440  C.2       1 <0>         0.5189
      20  O2          2.9130   33.0960   60.7620  O.2       1 <0>        -0.5324
      21  N3          2.7900   34.8200   59.3710  N.am      1 <0>        -0.7286
      22  C16         4.2230   35.0890   59.5060  C.3       1 <0>         0.1620
      23  C17         4.7550   35.6440   58.2100  C.ar      1 <0>        -0.1106
      24  C18         6.0460   36.1330   58.1440  C.ar      1 <0>        -0.1005
      25  C19         6.5330   36.6420   56.9550  C.ar      1 <0>        -0.1210
      26  C20         5.7300   36.6610   55.8300  C.ar      1 <0>        -0.1115
      27  C21         4.4380   36.1700   55.8950  C.ar      1 <0>        -0.1217
      28  C22         3.9530   35.6580   57.0840  C.ar      1 <0>        -0.1010
@<TRIPOS>BOND
     1     1     2 1
     2     2     8 1
     3     2     3 2
     4     3     4 1
     5     3    18 1
     6     4     5 2
     7     4     6 am
     8     6     7 1
     9     7     8 2
    10     7     9 1
    11     9    10 1
    12    10    11 1
    13    10    12 1
    14    12    17 ar
    15    12    13 ar
    16    13    14 ar
    17    14    15 ar
    18    15    16 ar
    19    16    17 ar
    20    18    19 1
    21    19    20 2
    22    19    21 am
    23    21    22 1
    24    22    23 1
    25    23    28 ar
    26    23    24 ar
    27    24    25 ar
    28    25    26 ar
    29    26    27 ar
    30    27    28 ar

@<TRIPOS>MOLECULE
ZINC37077839_replica-1.pdb
 20 21 0 0 0
SMALL
GASTEIGER

@<TRIPOS>ATOM
       1  C1          2.2680   32.6860   59.7440  C.3       1 <0>        -0.1462
       2  C2          0.8140   32.9560   59.3490  C.3       1 <0>        -0.0964
       3  C3          0.6010   34.4620   59.1860  C.3       1 <0>        -0.1450
       4  C4          0.5050   32.2510   58.0270  C.3       1 <0>         0.0834
       5  O1          0.4410   30.8400   58.2430  O.3       1 <0>        -0.3083
       6  C5         -0.4780   30.1470   57.5230  C.ar      1 <0>         0.2734
       7  C6         -1.3230   29.2460   58.1670  C.ar      1 <0>         0.1579
       8  C7         -2.2610   28.5430   57.4190  C.ar      1 <0>        -0.1191
       9  C8         -2.3190   28.7660   56.0520  C.ar      1 <0>        -0.1285
      10  C9         -1.4460   29.6790   55.4760  C.ar      1 <0>         0.0802
      11  N1         -0.5660   30.3370   56.2170  N.ar      1 <0>        -0.4962
      12  S1         -1.5130   29.9690   53.7400  S.3       1 <0>         0.0303
      13  C10        -1.1580   28.3950   53.0300  C.ar      1 <0>        -0.1343
      14  C11        -1.7050   28.0470   51.8000  C.ar      1 <0>        -0.0289
      15  C12        -1.4260   26.8140   51.2460  C.ar      1 <0>        -0.1644
      16  C13        -0.6030   25.9230   51.9150  C.ar      1 <0>         0.1289
      17  C14        -0.0570   26.2680   53.1400  C.ar      1 <0>        -0.1646
      18  C15        -0.3280   27.5040   53.6950  C.ar      1 <0>        -0.0301
      19  F1         -0.3320   24.7170   51.3710  F         1 <0>        -0.1344
      20  N2         -1.2290   29.0510   59.5540  N.pl3     1 <0>        -0.8653
@<TRIPOS>BOND
     1     1     2 1
     2     2     3 1
     3     2     4 1
     4     4     5 1
     5     5     6 1
     6     6    11 ar
     7     6     7 ar
     8     7     8 ar
     9     7    20 1
    10     8     9 ar
    11     9    10 ar
    12    10    11 ar
    13    10    12 1
    14    12    13 1
    15    13    18 ar
    16    13    14 ar
    17    14    15 ar
    18    15    16 ar
    19    16    17 ar
    20    16    19 1
    21    17    18 ar

@<TRIPOS>MOLECULE
ZINC63597777_replica-1.pdb
 27 30 0 0 0
SMALL
GASTEIGER

@<TRIPOS>ATOM
       1  C1          3.6750   35.5880   55.2850  C.3       1 <0>        -0.1219
       2  C2          2.9170   34.5920   56.1260  C.ar      1 <0>        -0.0558
       3  C3          1.6970   34.9410   56.6760  C.ar      1 <0>        -0.1077
       4  C4          1.0000   34.0310   57.4460  C.ar      1 <0>        -0.0806
       5  C5          1.5250   32.7640   57.6670  C.ar      1 <0>         0.0655
       6  C6          2.7500   32.4180   57.1130  C.ar      1 <0>        -0.0729
       7  C7          3.4400   33.3300   56.3390  C.ar      1 <0>        -0.1084
       8  N1          0.8200   31.8400   58.4480  N.pl3     1 <0>        -0.4450
       9  C8          0.0290   30.9210   57.8530  C.2       1 <0>         0.4982
      10  N2         -0.7640   30.9040   56.8120  N.2       1 <0>        -0.5216
      11  C9         -1.7110   29.9760   56.6590  C.2       1 <0>         0.4175
      12  N3         -1.9590   28.9900   57.5060  N.2       1 <0>        -0.6134
      13  C10        -1.1510   28.7380   58.5400  C.2       1 <0>         0.5437
      14  O1         -1.4000   27.8670   59.3510  O.2       1 <0>        -0.4211
      15  C11         0.0870   29.5910   58.6430  C.3       1 <0>        -0.2205
      16  S1          0.1080   30.3610   60.3200  S.3       1 <0>         0.0151
      17  C12         0.9360   31.8670   59.8040  C.2       1 <0>         0.2788
      18  S2          1.6880   33.0540   60.7820  S.2       1 <0>        -0.2527
      19  S3         -2.7120   30.0720   55.2120  S.3       1 <0>         0.0926
      20  C13        -1.5140   30.2020   53.8570  C.3       1 <0>        -0.0764
      21  C14        -1.1910   28.8250   53.3380  C.ar      1 <0>        -0.0842
      22  C15        -1.6220   28.4400   52.0820  C.ar      1 <0>        -0.1021
      23  C16        -1.3260   27.1770   51.6060  C.ar      1 <0>        -0.1140
      24  C17        -0.5970   26.2980   52.3850  C.ar      1 <0>        -0.1072
      25  C18        -0.1660   26.6820   53.6410  C.ar      1 <0>        -0.0844
      26  C19        -0.4590   27.9470   54.1150  C.ar      1 <0>        -0.0984
      27  C20         0.6280   25.7230   54.4910  C.3       1 <0>        -0.1178
@<TRIPOS>BOND
     1     1     2 1
     2     2     7 ar
     3     2     3 ar
     4     3     4 ar
     5     4     5 ar
     6     5     6 ar
     7     5     8 1
     8     6     7 ar
     9     8    17 1
    10     8     9 1
    11     9    15 1
    12     9    10 2
    13    10    11 1
    14    11    12 2
    15    11    19 1
    16    12    13 1
    17    13    14 2
    18    13    15 1
    19    15    16 1
    20    16    17 1
    21    17    18 2
    22    19    20 1
    23    20    21 1
    24    21    26 ar
    25    21    22 ar
    26    22    23 ar
    27    23    24 ar
    28    24    25 ar
    29    25    26 ar
    30    25    27 1

@<TRIPOS>MOLECULE
ZINC37231516_replica-1.pdb
 20 21 0 0 0
SMALL
GASTEIGER

@<TRIPOS>ATOM
       1  C1          0.4070   26.5610   58.7870  C.3       1 <0>        -0.1351
       2  C2         -0.2110   26.3350   57.4050  C.3       1 <0>        -0.0485
       3  C3          0.4590   27.2640   56.3900  C.3       1 <0>         0.0667
       4  N1         -0.5680   28.0460   55.6890  N.3       1 <0>        -0.6806
       5  C4         -0.0360   28.6200   54.4470  C.3       1 <0>         0.1252
       6  C5         -0.4510   30.0890   54.3440  C.3       1 <0>        -0.1370
       7  C6         -0.5850   27.8600   53.2660  C.ar      1 <0>        -0.0934
       8  C7         -1.3620   28.5120   52.3250  C.ar      1 <0>        -0.0704
       9  C8         -1.8690   27.8220   51.2390  C.ar      1 <0>        -0.1192
      10  C9         -1.6020   26.4770   51.0870  C.ar      1 <0>        -0.0695
      11  C10        -0.8190   25.8130   52.0320  C.ar      1 <0>        -0.0276
      12  C11        -0.3060   26.5170   53.1240  C.ar      1 <0>        -0.0649
      13  C12        -0.5380   24.4160   51.8800  C.1       1 <0>         0.2502
      14  N2         -0.3160   23.3090   51.7600  N.1       1 <0>        -0.4122
      15  C13        -0.0010   24.9020   56.9890  C.ar      1 <0>        -0.0778
      16  C14         0.5390   24.6140   55.7500  C.ar      1 <0>        -0.1141
      17  C15         0.7310   23.2990   55.3690  C.ar      1 <0>        -0.1184
      18  C16         0.3820   22.2720   56.2270  C.ar      1 <0>        -0.1242
      19  C17        -0.1580   22.5610   57.4660  C.ar      1 <0>        -0.1183
      20  C18        -0.3450   23.8750   57.8490  C.ar      1 <0>        -0.1176
@<TRIPOS>BOND
     1     1     2 1
     2     2     3 1
     3     2    15 1
     4     3     4 1
     5     4     5 1
     6     5     6 1
     7     5     7 1
     8     7    12 ar
     9     7     8 ar
    10     8     9 ar
    11     9    10 ar
    12    10    11 ar
    13    11    12 ar
    14    11    13 1
    15    13    14 3
    16    15    20 ar
    17    15    16 ar
    18    16    17 ar
    19    17    18 ar
    20    18    19 ar
    21    19    20 ar

@<TRIPOS>MOLECULE
ZINC27696741_replica-1.pdb
 31 34 0 0 0
SMALL
GASTEIGER

@<TRIPOS>ATOM
       1  C1         -0.2890   33.9100   61.4930  C.2       1 <0>        -0.1071
       2  C2          0.6240   34.1330   60.5790  C.2       1 <0>        -0.2374
       3  C3          0.2540   34.0840   59.1180  C.3       1 <0>         0.0142
       4  N1          1.3590   34.6270   58.3160  N.4       1 <0>        -0.3930
       5  C4          2.4770   35.0440   59.1720  C.3       1 <0>         0.0282
       6  C5          3.5450   35.6870   58.3250  C.2       1 <0>        -0.2373
       7  C6          4.6360   36.1470   58.8850  C.2       1 <0>        -0.1076
       8  C7          1.8020   33.6570   57.3050  C.3       1 <0>         0.0010
       9  C8          0.6720   32.6660   57.0190  C.3       1 <0>         0.0606
      10  C9          1.2380   31.2450   56.9740  C.3       1 <0>         0.0819
      11  N2          0.2240   30.3000   57.4490  N.pl3     1 <0>        -0.4923
      12  C10        -0.0750   30.0130   58.7650  C.ar      1 <0>         0.0410
      13  C11         0.4100   30.4600   59.9870  C.ar      1 <0>        -0.1201
      14  C12        -0.1180   29.9560   61.1570  C.ar      1 <0>        -0.0898
      15  C13        -1.1350   29.0130   61.1210  C.ar      1 <0>        -0.1218
      16  C14        -1.6270   28.5640   59.9280  C.ar      1 <0>        -0.0578
      17  C15        -1.1050   29.0580   58.7300  C.ar      1 <0>         0.0511
      18  N3         -1.3750   28.8160   57.4210  N.2       1 <0>        -0.4693
      19  C16        -0.5980   29.5430   56.6720  C.2       1 <0>         0.2875
      20  C17        -0.6070   29.5470   55.1660  C.3       1 <0>        -0.0143
      21  C18        -0.3060   28.1590   54.6580  C.ar      1 <0>        -0.0573
      22  C19         0.4200   27.2950   55.4200  C.ar      1 <0>        -0.1367
      23  C20         0.7030   26.0070   54.9710  C.ar      1 <0>        -0.1433
      24  C21         0.2710   25.5780   53.7540  C.ar      1 <0>        -0.0849
      25  C22        -0.4770   26.4440   52.9370  C.ar      1 <0>        -0.0484
      26  C23        -0.7690   27.7520   53.3960  C.ar      1 <0>        -0.0376
      27  C24        -1.5170   28.6180   52.5800  C.ar      1 <0>        -0.0975
      28  C25        -1.9490   28.1900   51.3620  C.ar      1 <0>        -0.1048
      29  C26        -1.6610   26.9030   50.9100  C.ar      1 <0>        -0.1015
      30  C27        -0.9400   26.0370   51.6740  C.ar      1 <0>        -0.1128
      31  O1          0.0720   32.9790   55.7600  O.3       1 <0>        -0.6018
@<TRIPOS>BOND
     1     1     2 2
     2     2     3 1
     3     3     4 1
     4     4     5 1
     5     4     8 1
     6     5     6 1
     7     6     7 2
     8     8     9 1
     9     9    10 1
    10     9    31 1
    11    10    11 1
    12    11    19 1
    13    11    12 1
    14    12    17 ar
    15    12    13 ar
    16    13    14 ar
    17    14    15 ar
    18    15    16 ar
    19    16    17 ar
    20    17    18 1
    21    18    19 2
    22    19    20 1
    23    20    21 1
    24    21    26 ar
    25    21    22 ar
    26    22    23 ar
    27    23    24 ar
    28    24    25 ar
    29    25    30 ar
    30    25    26 ar
    31    26    27 ar
    32    27    28 ar
    33    28    29 ar
    34    29    30 ar

@<TRIPOS>MOLECULE
ZINC11790339_replica-1.pdb
 30 34 0 0 0
SMALL
GASTEIGER

@<TRIPOS>ATOM
       1  C1         14.6750   33.0650   63.4640  C.ar      1 <0>        -0.1126
       2  C2         13.9920   31.9470   63.9420  C.ar      1 <0>        -0.0977
       3  C3         12.7090   31.6950   63.5670  C.ar      1 <0>        -0.0930
       4  C4         12.0540   32.5700   62.6830  C.ar      1 <0>         0.1265
       5  C5         12.7490   33.7070   62.1990  C.ar      1 <0>        -0.0978
       6  C6         14.0740   33.9350   62.6070  C.ar      1 <0>        -0.0968
       7  C7         12.0990   34.5800   61.3110  C.ar      1 <0>        -0.0470
       8  C8         10.7900   34.2910   60.9560  C.ar      1 <0>        -0.0972
       9  C9         10.1680   33.1460   61.4790  C.ar      1 <0>         0.1442
      10  N1         10.7930   32.3420   62.3000  N.ar      1 <0>        -0.4675
      11  C10        10.0530   35.1820   60.0260  C.ar      1 <0>        -0.0366
      12  C11         9.7280   34.7430   58.7430  C.ar      1 <0>        -0.0671
      13  C12         9.0450   35.5750   57.8860  C.ar      1 <0>        -0.1378
      14  C13         8.6650   36.8520   58.2820  C.ar      1 <0>         0.0773
      15  C14         8.9950   37.2900   59.5660  C.ar      1 <0>         0.0924
      16  C15         9.6820   36.4640   60.4280  C.ar      1 <0>        -0.1119
      17  F1          8.6400   38.5310   59.9630  F         1 <0>        -0.1308
      18  O1          7.9830   37.4920   57.2920  O.3       1 <0>        -0.2870
      19  C16         8.2550   36.8460   56.0360  C.3       1 <0>         0.0676
      20  C17         8.5650   35.3910   56.4590  C.3       1 <0>        -0.1018
      21  C18         7.0270   36.8960   55.1250  C.3       1 <0>         0.1251
      22  N2          5.8140   36.9600   55.9420  N.am      1 <0>        -0.7331
      23  C19         4.9890   35.8960   56.0120  C.2       1 <0>         0.5156
      24  O2          5.2530   34.8850   55.3970  O.2       1 <0>        -0.5261
      25  C20         3.7410   35.9630   56.8530  C.3       1 <0>        -0.0850
      26  C21         3.9960   35.3010   58.1830  C.2       1 <0>        -0.1078
      27  C22         5.0660   35.6920   58.9670  C.2       1 <0>        -0.1459
      28  C23         5.2630   35.0810   60.1610  C.2       1 <0>        -0.1721
      29  S1          3.9220   33.9040   60.1990  S.3       1 <0>         0.0390
      30  C24         3.1840   34.3110   58.6260  C.2       1 <0>        -0.1608
@<TRIPOS>BOND
     1     1     6 ar
     2     1     2 ar
     3     2     3 ar
     4     3     4 ar
     5     4    10 ar
     6     4     5 ar
     7     5     6 ar
     8     5     7 ar
     9     7     8 ar
    10     8     9 ar
    11     8    11 1
    12     9    10 ar
    13    11    16 ar
    14    11    12 ar
    15    12    13 ar
    16    13    20 1
    17    13    14 ar
    18    14    15 ar
    19    14    18 1
    20    15    16 ar
    21    15    17 1
    22    18    19 1
    23    19    20 1
    24    19    21 1
    25    21    22 1
    26    22    23 am
    27    23    24 2
    28    23    25 1
    29    25    26 1
    30    26    30 2
    31    26    27 1
    32    27    28 2
    33    28    29 1
    34    29    30 1

@<TRIPOS>MOLECULE
ZINC16423820_replica-1.pdb
 25 26 0 0 0
SMALL
GASTEIGER

@<TRIPOS>ATOM
       1  C1         -0.6820   31.1860   63.2350  C.3       1 <0>        -0.1454
       2  C2         -0.8430   30.2640   62.0260  C.3       1 <0>        -0.1344
       3  C3          0.3150   30.4950   61.0520  C.3       1 <0>        -0.1058
       4  C4          0.1210   29.6180   59.8120  C.3       1 <0>        -0.0224
       5  C5         -1.1980   28.8480   59.9250  C.3       1 <0>        -0.1130
       6  C6         -1.4250   28.0220   58.6580  C.3       1 <0>        -0.1200
       7  C7         -1.6400   28.9540   57.4620  C.3       1 <0>        -0.0868
       8  C8         -0.4280   29.8560   57.3360  C.2       1 <0>        -0.1220
       9  C9          0.1760   30.0670   56.1480  C.2       1 <0>        -0.0740
      10  C10        -0.4370   29.5580   54.9120  C.ar      1 <0>        -0.0961
      11  C11        -0.0890   28.2930   54.4250  C.ar      1 <0>        -0.0626
      12  C12        -0.6690   27.8190   53.2700  C.ar      1 <0>        -0.2091
      13  C13        -1.5910   28.5990   52.5820  C.ar      1 <0>         0.1334
      14  C14        -1.9360   29.8580   53.0580  C.ar      1 <0>        -0.1541
      15  C15        -1.3650   30.3390   54.2150  C.ar      1 <0>        -0.0672
      16  O1         -2.1570   28.1280   51.4400  O.3       1 <0>        -0.3163
      17  C16        -1.7470   26.8330   50.9990  C.3       1 <0>         0.0258
      18  C17         0.0590   30.4910   58.5740  C.2       1 <0>         0.1450
      19  N1          0.4190   31.7390   58.6040  N.2       1 <0>        -0.3188
      20  O2          0.3590   32.4140   57.5910  O.3       1 <0>        -0.1292
      21  C18         0.5560   33.7380   57.7260  C.2       1 <0>         0.6462
      22  O3          0.3310   34.2800   58.7900  O.2       1 <0>        -0.5252
      23  N2          1.0030   34.4640   56.6810  N.am      1 <0>        -0.7042
      24  C19         1.2170   35.9050   56.8300  C.3       1 <0>         0.1324
      25  C20         2.7190   36.1990   56.8330  C.3       1 <0>        -0.1670
@<TRIPOS>BOND
     1     1     2 1
     2     2     3 1
     3     3     4 1
     4     4    18 1
     5     4     5 1
     6     5     6 1
     7     6     7 1
     8     7     8 1
     9     8     9 2
    10     8    18 1
    11     9    10 1
    12    10    15 ar
    13    10    11 ar
    14    11    12 ar
    15    12    13 ar
    16    13    14 ar
    17    13    16 1
    18    14    15 ar
    19    16    17 1
    20    18    19 2
    21    19    20 1
    22    20    21 1
    23    21    22 2
    24    21    23 am
    25    23    24 1
    26    24    25 1

@<TRIPOS>MOLECULE
ZINC40231311_replica-1.pdb
 25 27 0 0 0
SMALL
GASTEIGER

@<TRIPOS>ATOM
       1  C1         12.5960   34.6870   62.7290  C.3       1 <0>        -0.1457
       2  C2         11.7590   34.0960   61.5930  C.3       1 <0>        -0.0539
       3  C3         10.9480   32.9100   62.1210  C.3       1 <0>        -0.1456
       4  C4         10.8210   35.1480   61.0600  C.ar      1 <0>        -0.1116
       5  C5         10.3960   35.0910   59.7460  C.ar      1 <0>        -0.0744
       6  C6          9.5360   36.0550   59.2540  C.ar      1 <0>        -0.1477
       7  C7          9.0990   37.0790   60.0810  C.ar      1 <0>         0.1239
       8  C8          9.5250   37.1330   61.4010  C.ar      1 <0>        -0.2058
       9  C9         10.3810   36.1640   61.8880  C.ar      1 <0>        -0.0779
      10  O1          8.2530   38.0280   59.6010  O.3       1 <0>        -0.3135
      11  C10         7.2130   37.5870   58.7240  C.3       1 <0>         0.0650
      12  C11         6.1210   36.8910   59.5400  C.3       1 <0>        -0.1380
      13  C12         5.3540   35.9210   58.6410  C.3       1 <0>         0.1143
      14  N1          6.2830   34.9360   58.0800  N.pl3     1 <0>        -0.4885
      15  C13         6.9150   33.9220   58.7720  C.ar      1 <0>         0.0463
      16  C14         6.9110   33.5050   60.0950  C.ar      1 <0>        -0.1113
      17  C15         7.6770   32.4230   60.4740  C.ar      1 <0>        -0.1015
      18  C16         8.4520   31.7500   59.5400  C.ar      1 <0>        -0.1275
      19  C17         8.4690   32.1460   58.2330  C.ar      1 <0>        -0.0642
      20  C18         7.7000   33.2400   57.8260  C.ar      1 <0>         0.0477
      21  N2          7.5100   33.8600   56.6340  N.2       1 <0>        -0.4856
      22  C19         6.6770   34.8480   56.7810  C.2       1 <0>         0.2917
      23  C20         6.2170   35.7630   55.6760  C.3       1 <0>        -0.0168
      24  C21         7.4340   36.4050   55.0070  C.3       1 <0>        -0.1421
      25  C22         5.4320   34.9560   54.6390  C.3       1 <0>        -0.1418
@<TRIPOS>BOND
     1     1     2 1
     2     2     3 1
     3     2     4 1
     4     4     9 ar
     5     4     5 ar
     6     5     6 ar
     7     6     7 ar
     8     7     8 ar
     9     7    10 1
    10     8     9 ar
    11    10    11 1
    12    11    12 1
    13    12    13 1
    14    13    14 1
    15    14    22 1
    16    14    15 1
    17    15    20 ar
    18    15    16 ar
    19    16    17 ar
    20    17    18 ar
    21    18    19 ar
    22    19    20 ar
    23    20    21 1
    24    21    22 2
    25    22    23 1
    26    23    24 1
    27    23    25 1

@<TRIPOS>MOLECULE
ZINC06819566_replica-1.pdb
 28 31 0 0 0
SMALL
GASTEIGER

@<TRIPOS>ATOM
       1  C1          1.1850   35.2190   58.9090  C.3       1 <0>        -0.1466
       2  C2          1.4550   35.9910   57.6160  C.3       1 <0>        -0.0870
       3  C3          2.9100   35.8610   57.2490  C.ar      1 <0>        -0.0806
       4  C4          3.3100   36.0390   55.9380  C.ar      1 <0>        -0.1151
       5  C5          4.6460   35.9220   55.6000  C.ar      1 <0>        -0.1002
       6  C6          5.5810   35.6270   56.5750  C.ar      1 <0>        -0.0825
       7  C7          5.1810   35.4440   57.8850  C.ar      1 <0>        -0.1214
       8  C8          3.8460   35.5650   58.2220  C.ar      1 <0>        -0.1150
       9  C9          7.0370   35.4980   56.2080  C.3       1 <0>         0.0085
      10  C10         7.4630   36.7120   55.3790  C.3       1 <0>        -0.1357
      11  C11         7.5290   37.9220   56.2750  C.2       1 <0>         0.5265
      12  O1          7.2430   39.0150   55.8350  O.2       1 <0>        -0.5034
      13  N1          7.9050   37.7930   57.5590  N.am      1 <0>        -0.6609
      14  C12         8.2580   36.5720   58.0760  C.2       1 <0>         0.2206
      15  C13         7.8710   35.4320   57.4660  C.2       1 <0>        -0.2685
      16  C14         8.2280   34.1730   57.9750  C.2       1 <0>         0.4065
      17  O2          7.8490   33.1680   57.4040  O.2       1 <0>        -0.4624
      18  C15         9.0720   34.0480   59.2130  C.3       1 <0>        -0.1522
      19  C16         9.9710   35.2840   59.3300  C.3       1 <0>        -0.0292
      20  C17         9.0850   36.5310   59.3370  C.3       1 <0>        -0.0959
      21  C18        10.7590   35.2160   60.6130  C.ar      1 <0>        -0.1223
      22  C19        10.8010   36.3100   61.4560  C.ar      1 <0>        -0.0717
      23  C20        11.5180   36.2490   62.6350  C.ar      1 <0>        -0.2055
      24  C21        12.2080   35.0910   62.9660  C.ar      1 <0>         0.1301
      25  C22        12.1690   33.9960   62.1160  C.ar      1 <0>        -0.1493
      26  C23        11.4450   34.0610   60.9410  C.ar      1 <0>        -0.0686
      27  O3         12.9190   35.0300   64.1230  O.3       1 <0>        -0.3171
      28  C24        14.0550   34.1630   64.1390  C.3       1 <0>         0.0261
@<TRIPOS>BOND
     1     1     2 1
     2     2     3 1
     3     3     8 ar
     4     3     4 ar
     5     4     5 ar
     6     5     6 ar
     7     6     7 ar
     8     6     9 1
     9     7     8 ar
    10     9    15 1
    11     9    10 1
    12    10    11 1
    13    11    12 2
    14    11    13 am
    15    13    14 1
    16    14    20 1
    17    14    15 2
    18    15    16 1
    19    16    17 2
    20    16    18 1
    21    18    19 1
    22    19    20 1
    23    19    21 1
    24    21    26 ar
    25    21    22 ar
    26    22    23 ar
    27    23    24 ar
    28    24    25 ar
    29    24    27 1
    30    25    26 ar
    31    27    28 1

@<TRIPOS>MOLECULE
ZINC06819679_replica-1.pdb
 27 30 0 0 0
SMALL
GASTEIGER

@<TRIPOS>ATOM
       1  C1          2.9330   35.9400   57.8320  C.3       1 <0>        -0.1163
       2  C2          4.1580   35.6560   58.6630  C.ar      1 <0>        -0.0824
       3  C3          4.1190   34.6760   59.6380  C.ar      1 <0>        -0.1208
       4  C4          5.2420   34.4150   60.4000  C.ar      1 <0>        -0.1125
       5  C5          6.4040   35.1340   60.1880  C.ar      1 <0>        -0.1309
       6  C6          6.4440   36.1120   59.2120  C.ar      1 <0>        -0.0734
       7  C7          5.3180   36.3770   58.4530  C.ar      1 <0>        -0.1051
       8  C8          7.7090   36.8950   58.9800  C.3       1 <0>         0.0078
       9  C9          8.0140   36.9500   57.4790  C.3       1 <0>        -0.1355
      10  C10         8.4590   35.5860   57.0200  C.2       1 <0>         0.5260
      11  O1          8.1770   35.2010   55.9050  O.2       1 <0>        -0.5032
      12  N1          9.1730   34.7980   57.8420  N.am      1 <0>        -0.6604
      13  C11         9.5280   35.2180   59.0980  C.2       1 <0>         0.2207
      14  C12         8.8570   36.2240   59.6970  C.2       1 <0>        -0.2688
      15  C13         9.2000   36.6660   60.9860  C.2       1 <0>         0.4062
      16  O2          8.5800   37.5830   61.4880  O.2       1 <0>        -0.4627
      17  C14        10.3230   36.0230   61.7530  C.3       1 <0>        -0.1505
      18  C15        10.4610   34.5650   61.3040  C.3       1 <0>        -0.0308
      19  C16        10.6830   34.5390   59.7910  C.3       1 <0>        -0.0935
      20  C17        11.6370   33.9280   61.9990  C.ar      1 <0>        -0.1218
      21  C18        11.4830   32.7130   62.6420  C.ar      1 <0>        -0.0721
      22  C19        12.5600   32.1240   63.2750  C.ar      1 <0>        -0.2055
      23  C20        13.7940   32.7570   63.2760  C.ar      1 <0>         0.1299
      24  C21        13.9450   33.9790   62.6370  C.ar      1 <0>        -0.1490
      25  C22        12.8660   34.5610   61.9990  C.ar      1 <0>        -0.0688
      26  O3         14.8540   32.1830   63.9040  O.3       1 <0>        -0.3173
      27  C23        15.5200   32.9640   64.8980  C.3       1 <0>         0.0262
@<TRIPOS>BOND
     1     1     2 1
     2     2     7 ar
     3     2     3 ar
     4     3     4 ar
     5     4     5 ar
     6     5     6 ar
     7     6     7 ar
     8     6     8 1
     9     8    14 1
    10     8     9 1
    11     9    10 1
    12    10    11 2
    13    10    12 am
    14    12    13 1
    15    13    19 1
    16    13    14 2
    17    14    15 1
    18    15    16 2
    19    15    17 1
    20    17    18 1
    21    18    19 1
    22    18    20 1
    23    20    25 ar
    24    20    21 ar
    25    21    22 ar
    26    22    23 ar
    27    23    24 ar
    28    23    26 1
    29    24    25 ar
    30    26    27 1

@<TRIPOS>MOLECULE
ZINC00882446_replica-1.pdb
 30 34 0 0 0
SMALL
GASTEIGER

@<TRIPOS>ATOM
       1  C1         12.7170   30.1730   64.3760  C.ar      1 <0>        -0.1365
       2  C2         11.4380   30.3540   63.8840  C.ar      1 <0>        -0.1032
       3  C3         11.1300   31.4940   63.1700  C.ar      1 <0>        -0.1556
       4  C4         12.1050   32.4580   62.9440  C.ar      1 <0>         0.1493
       5  C5         13.3900   32.2760   63.4350  C.ar      1 <0>        -0.1143
       6  C6         13.6930   31.1270   64.1460  C.ar      1 <0>        -0.1017
       7  C7         14.4690   33.3060   63.2190  C.3       1 <0>        -0.0795
       8  C8         14.1180   34.2070   62.0360  C.3       1 <0>        -0.1356
       9  C9         12.6960   34.7500   62.2300  C.3       1 <0>         0.0961
      10  N1         11.7730   33.6070   62.2130  N.am      1 <0>        -0.5457
      11  C10        10.6250   33.6630   61.5100  C.2       1 <0>         0.5338
      12  O1          9.8410   32.7390   61.5540  O.2       1 <0>        -0.4998
      13  C11        10.3150   34.8750   60.6690  C.3       1 <0>        -0.1808
      14  S1          8.5420   34.9220   60.3090  S.3       1 <0>         0.0913
      15  C12         8.5000   36.2480   59.1490  C.ar      1 <0>         0.1910
      16  C13         8.0540   36.0260   57.8180  C.ar      1 <0>        -0.1709
      17  C14         7.5810   34.7980   57.1880  C.2       1 <0>        -0.0518
      18  C15         7.2060   34.8370   55.8880  C.2       1 <0>        -0.1384
      19  S2          7.4660   36.5400   55.4300  S.3       1 <0>         0.1322
      20  C16         8.0690   37.1580   56.9790  C.ar      1 <0>         0.1309
      21  N2          8.4720   38.3340   57.4170  N.ar      1 <0>        -0.4856
      22  C17         8.8760   38.4800   58.6640  C.ar      1 <0>         0.3356
      23  N3          8.8880   37.4620   59.5070  N.ar      1 <0>        -0.5376
      24  C18         7.5140   33.5320   57.9550  C.ar      1 <0>        -0.0599
      25  C19         6.3650   33.2100   58.6750  C.ar      1 <0>        -0.0669
      26  C20         6.3060   32.0290   59.3850  C.ar      1 <0>        -0.1505
      27  C21         7.3900   31.1660   59.3900  C.ar      1 <0>         0.1137
      28  C22         8.5360   31.4830   58.6780  C.ar      1 <0>        -0.1384
      29  C23         8.6030   32.6610   57.9620  C.ar      1 <0>        -0.0585
      30  F1          7.3300   30.0120   60.0890  F         1 <0>        -0.1357
@<TRIPOS>BOND
     1     1     6 ar
     2     1     2 ar
     3     2     3 ar
     4     3     4 ar
     5     4    10 1
     6     4     5 ar
     7     5     6 ar
     8     5     7 1
     9     7     8 1
    10     8     9 1
    11     9    10 1
    12    10    11 am
    13    11    12 2
    14    11    13 1
    15    13    14 1
    16    14    15 1
    17    15    23 ar
    18    15    16 ar
    19    16    20 ar
    20    16    17 1
    21    17    18 2
    22    17    24 1
    23    18    19 1
    24    19    20 1
    25    20    21 ar
    26    21    22 ar
    27    22    23 ar
    28    24    29 ar
    29    24    25 ar
    30    25    26 ar
    31    26    27 ar
    32    27    28 ar
    33    27    30 1
    34    28    29 ar

@<TRIPOS>MOLECULE
ZINC40621698_replica-1.pdb
 20 21 0 0 0
SMALL
GASTEIGER

@<TRIPOS>ATOM
       1  C1         12.4300   29.3220   64.5720  C.3       1 <0>        -0.1207
       2  C2         12.4440   30.6860   63.9310  C.ar      1 <0>        -0.0751
       3  C3         11.2650   31.2520   63.4830  C.ar      1 <0>        -0.1254
       4  C4         11.2770   32.5030   62.8960  C.ar      1 <0>        -0.1046
       5  C5         12.4700   33.1880   62.7560  C.ar      1 <0>        -0.1069
       6  C6         13.6490   32.6230   63.2040  C.ar      1 <0>        -0.0730
       7  C7         13.6350   31.3750   63.7960  C.ar      1 <0>        -0.1185
       8  C8         14.9490   33.3710   63.0520  C.3       1 <0>        -0.1206
       9  C9         12.4850   34.5520   62.1140  C.3       1 <0>         0.1306
      10  C10        12.1670   35.6150   63.1680  C.3       1 <0>        -0.1383
      11  N1         11.4740   34.6020   61.0490  N.3       1 <0>        -0.6828
      12  C11        10.5870   35.7610   61.2200  C.3       1 <0>         0.0589
      13  C12         9.3490   35.5900   60.3360  C.3       1 <0>        -0.1065
      14  C13         9.7390   34.9480   58.9860  C.3       1 <0>        -0.1460
      15  C14         8.8530   35.7110   57.9700  C.3       1 <0>        -0.0033
      16  N2          8.8440   37.0980   58.5010  N.4       1 <0>        -0.3933
      17  C15         8.7580   36.9650   59.9740  C.3       1 <0>        -0.0037
      18  C16         7.6760   37.8290   57.9900  C.3       1 <0>         0.0275
      19  C17         7.1970   38.8260   59.0460  C.3       1 <0>        -0.1832
      20  C18         8.0640   38.5820   56.7160  C.3       1 <0>        -0.1829
@<TRIPOS>BOND
     1     1     2 1
     2     2     7 ar
     3     2     3 ar
     4     3     4 ar
     5     4     5 ar
     6     5     6 ar
     7     5     9 1
     8     6     7 ar
     9     6     8 1
    10     9    10 1
    11     9    11 1
    12    11    12 1
    13    12    13 1
    14    13    17 1
    15    13    14 1
    16    14    15 1
    17    15    16 1
    18    16    17 1
    19    16    18 1
    20    18    19 1
    21    18    20 1

@<TRIPOS>MOLECULE
ZINC11496388_replica-1.pdb
 28 31 0 0 0
SMALL
GASTEIGER

@<TRIPOS>ATOM
       1  C1          0.9920   31.6060   57.4690  C.3       1 <0>        -0.1481
       2  C2          2.2210   31.2520   58.3080  C.3       1 <0>        -0.0931
       3  C3          2.0370   31.7810   59.7320  C.3       1 <0>        -0.1303
       4  C4          3.2550   31.3950   60.5770  C.3       1 <0>         0.1108
       5  N1          4.4690   31.8790   59.9060  N.am      1 <0>        -0.6039
       6  C5          4.6960   31.5070   58.5030  C.3       1 <0>         0.1014
       7  C6          3.4650   31.8870   57.6820  C.3       1 <0>        -0.1324
       8  C7          5.3560   32.6520   60.5640  C.2       1 <0>         0.5368
       9  O1          5.1550   32.9550   61.7210  O.2       1 <0>        -0.5246
      10  C8          6.5970   33.1400   59.8610  C.3       1 <0>        -0.1444
      11  C9          7.8260   32.4660   60.4720  C.3       1 <0>        -0.1404
      12  S1          6.7330   34.9340   60.0560  S.3       1 <0>         0.0834
      13  C10         6.0060   35.4620   58.5400  C.ar      1 <0>         0.1943
      14  C11         6.7580   36.2330   57.6120  C.ar      1 <0>        -0.1720
      15  C12         8.1360   36.7040   57.6940  C.2       1 <0>        -0.0508
      16  C13         8.6380   37.4320   56.6690  C.2       1 <0>        -0.1393
      17  S2          7.2770   37.5290   55.5220  S.3       1 <0>         0.1299
      18  C14         6.0740   36.5980   56.4340  C.ar      1 <0>         0.1316
      19  N2          4.8210   36.2380   56.2270  N.ar      1 <0>        -0.4865
      20  C15         4.1740   35.5220   57.1260  C.ar      1 <0>         0.3338
      21  N3          4.7540   35.1420   58.2490  N.ar      1 <0>        -0.5335
      22  C16         8.9720   36.3910   58.8780  C.ar      1 <0>        -0.0608
      23  C17         9.0050   37.2670   59.9610  C.ar      1 <0>        -0.0679
      24  C18         9.7810   36.9700   61.0630  C.ar      1 <0>        -0.1521
      25  C19        10.5330   35.8060   61.0900  C.ar      1 <0>         0.1122
      26  C20        10.5070   34.9350   60.0130  C.ar      1 <0>        -0.1374
      27  C21         9.7310   35.2210   58.9090  C.ar      1 <0>        -0.0557
      28  F1         11.2950   35.5220   62.1680  F         1 <0>        -0.1362
@<TRIPOS>BOND
     1     1     2 1
     2     2     7 1
     3     2     3 1
     4     3     4 1
     5     4     5 1
     6     5     6 1
     7     5     8 am
     8     6     7 1
     9     8     9 2
    10     8    10 1
    11    10    11 1
    12    10    12 1
    13    12    13 1
    14    13    21 ar
    15    13    14 ar
    16    14    18 ar
    17    14    15 1
    18    15    16 2
    19    15    22 1
    20    16    17 1
    21    17    18 1
    22    18    19 ar
    23    19    20 ar
    24    20    21 ar
    25    22    27 ar
    26    22    23 ar
    27    23    24 ar
    28    24    25 ar
    29    25    26 ar
    30    25    28 1
    31    26    27 ar

@<TRIPOS>MOLECULE
ZINC35031367_replica-1.pdb
 26 27 0 0 0
SMALL
GASTEIGER

@<TRIPOS>ATOM
       1  C1          0.9870   31.6750   57.2270  C.3       1 <0>        -0.1862
       2  C2          0.5770   32.1400   58.6270  C.3       1 <0>         0.0260
       3  C3          1.3370   31.3290   59.6760  C.3       1 <0>        -0.1401
       4  C4          0.9240   31.7980   61.0740  C.3       1 <0>        -0.1397
       5  C5          1.1910   33.3010   61.1970  C.3       1 <0>        -0.1458
       6  C6          0.4350   34.0400   60.0900  C.3       1 <0>        -0.0238
       7  N1          0.8950   33.5660   58.7800  N.4       1 <0>        -0.3749
       8  C7          0.2250   34.3310   57.7210  C.3       1 <0>        -0.0458
       9  C8          1.0260   35.6010   57.4260  C.3       1 <0>         0.0908
      10  C9          2.3320   35.2270   56.7210  C.3       1 <0>         0.0317
      11  O1          3.2270   34.6290   57.6630  O.3       1 <0>        -0.3034
      12  C10         4.4320   35.2340   57.8380  C.ar      1 <0>         0.1107
      13  C11         5.4710   34.9830   56.9550  C.ar      1 <0>        -0.2048
      14  C12         6.6940   35.5990   57.1350  C.ar      1 <0>        -0.0763
      15  C13         6.8820   36.4650   58.1970  C.ar      1 <0>        -0.0902
      16  C14         5.8490   36.7160   59.0790  C.ar      1 <0>        -0.0807
      17  C15         4.6220   36.1070   58.8990  C.ar      1 <0>        -0.1403
      18  C16         8.2190   37.1350   58.3920  C.3       1 <0>        -0.0178
      19  C17         8.5520   37.9770   57.1600  C.3       1 <0>        -0.1641
      20  C18         8.1610   38.0370   59.6260  C.3       1 <0>        -0.1619
      21  C19         9.2990   36.0690   58.5890  C.3       1 <0>        -0.1039
      22  C20         9.3700   35.6830   60.0670  C.3       1 <0>        -0.0648
      23  C21         8.2130   34.7390   60.4030  C.3       1 <0>        -0.1692
      24  C22        10.7000   34.9790   60.3470  C.3       1 <0>        -0.1434
      25  C23         9.2680   36.9420   60.9290  C.3       1 <0>        -0.1682
      26  O2          0.2600   36.4630   56.5820  O.3       1 <0>        -0.5388
@<TRIPOS>BOND
     1     1     2 1
     2     2     7 1
     3     2     3 1
     4     3     4 1
     5     4     5 1
     6     5     6 1
     7     6     7 1
     8     7     8 1
     9     8     9 1
    10     9    10 1
    11     9    26 1
    12    10    11 1
    13    11    12 1
    14    12    17 ar
    15    12    13 ar
    16    13    14 ar
    17    14    15 ar
    18    15    16 ar
    19    15    18 1
    20    16    17 ar
    21    18    19 1
    22    18    20 1
    23    18    21 1
    24    21    22 1
    25    22    23 1
    26    22    24 1
    27    22    25 1

@<TRIPOS>MOLECULE
ZINC23298639_replica-1.pdb
 27 29 0 0 0
SMALL
GASTEIGER

@<TRIPOS>ATOM
       1  C1          2.4250   31.9680   57.1950  C.3       1 <0>        -0.1650
       2  C2          0.9070   31.7800   57.1610  C.3       1 <0>         0.1601
       3  C3          0.3720   32.1910   55.7880  C.3       1 <0>        -0.1511
       4  C4         -0.8170   31.3340   55.4340  C.2       1 <0>         0.5106
       5  O1         -1.7710   31.2840   56.1810  O.2       1 <0>        -0.5262
       6  N1         -0.8180   30.6240   54.2890  N.am      1 <0>        -0.7412
       7  C5         -1.9720   29.7910   53.9450  C.3       1 <0>         0.1851
       8  C6         -2.9460   30.5990   53.0850  C.3       1 <0>        -0.1585
       9  C7         -1.5080   28.5810   53.1760  C.ar      1 <0>        -0.0744
      10  C8         -1.7890   28.4640   51.8500  C.ar      1 <0>        -0.1128
      11  C9         -1.3670   27.3530   51.1220  C.ar      1 <0>        -0.1128
      12  C10        -0.6600   26.3540   51.7170  C.ar      1 <0>        -0.1041
      13  C11        -0.3500   26.4390   53.0840  C.ar      1 <0>        -0.0483
      14  C12        -0.7800   27.5690   53.8240  C.ar      1 <0>        -0.0419
      15  C13        -0.4700   27.6540   55.1930  C.ar      1 <0>        -0.1099
      16  C14         0.2360   26.6550   55.7870  C.ar      1 <0>        -0.1118
      17  C15         0.6590   25.5440   55.0590  C.ar      1 <0>        -0.1132
      18  C16         0.3730   25.4250   53.7340  C.ar      1 <0>        -0.1068
      19  N2          0.5830   30.3720   57.4090  N.am      1 <0>        -0.7232
      20  C17         0.2200   29.9730   58.6440  C.2       1 <0>         0.5669
      21  O2          0.1590   30.7790   59.5510  O.2       1 <0>        -0.5403
      22  C18        -0.1060   28.5530   58.8950  C.ar      1 <0>        -0.1301
      23  C19        -1.4220   28.1040   58.7740  C.ar      1 <0>        -0.0862
      24  C20        -1.7200   26.7760   59.0050  C.ar      1 <0>        -0.1282
      25  C21        -0.7180   25.8930   59.3650  C.ar      1 <0>        -0.0963
      26  C22         0.5890   26.3320   59.4920  C.ar      1 <0>        -0.1269
      27  C23         0.9000   27.6570   59.2590  C.ar      1 <0>        -0.0622
@<TRIPOS>BOND
     1     1     2 1
     2     2     3 1
     3     2    19 1
     4     3     4 1
     5     4     5 2
     6     4     6 am
     7     6     7 1
     8     7     8 1
     9     7     9 1
    10     9    14 ar
    11     9    10 ar
    12    10    11 ar
    13    11    12 ar
    14    12    13 ar
    15    13    18 ar
    16    13    14 ar
    17    14    15 ar
    18    15    16 ar
    19    16    17 ar
    20    17    18 ar
    21    19    20 am
    22    20    21 2
    23    20    22 1
    24    22    27 ar
    25    22    23 ar
    26    23    24 ar
    27    24    25 ar
    28    25    26 ar
    29    26    27 ar

@<TRIPOS>MOLECULE
ZINC16729827_replica-1.pdb
 30 33 0 0 0
SMALL
GASTEIGER

@<TRIPOS>ATOM
       1  C1         -3.0940   23.1990   59.4930  C.3       1 <0>        -0.1467
       2  C2         -1.6750   23.7320   59.7020  C.3       1 <0>        -0.1359
       3  C3         -1.7290   25.0040   60.5510  C.3       1 <0>         0.0817
       4  N1         -1.1130   26.1090   59.8130  N.am      1 <0>        -0.5191
       5  C4         -1.8720   26.8840   59.0560  C.2       1 <0>         0.5486
       6  O1         -3.0720   26.7030   58.9570  O.2       1 <0>        -0.4579
       7  C5         -1.1920   27.9750   58.3340  C.2       1 <0>        -0.2660
       8  C6         -1.7070   28.9100   57.4940  C.2       1 <0>         0.1442
       9  C7         -0.8280   29.9160   56.8890  C.2       1 <0>        -0.2348
      10  C8         -0.4420   31.1210   57.4440  C.2       1 <0>         0.1172
      11  N2          0.3700   31.7380   56.5640  N.pl3     1 <0>        -0.2952
      12  N3          0.5230   30.9420   55.4270  N.2       1 <0>        -0.2608
      13  C9         -0.1760   29.8380   55.5750  C.2       1 <0>         0.1686
      14  C10        -0.2870   28.7270   54.6010  C.ar      1 <0>        -0.0056
      15  C11         0.4190   27.5420   54.8080  C.ar      1 <0>        -0.1005
      16  C12         0.3100   26.5090   53.9000  C.ar      1 <0>        -0.0887
      17  C13        -0.4880   26.6480   52.7800  C.ar      1 <0>        -0.0995
      18  C14        -1.1880   27.8250   52.5650  C.ar      1 <0>         0.0998
      19  C15        -1.0900   28.8650   53.4710  C.ar      1 <0>        -0.1136
      20  F1         -1.9660   27.9560   51.4690  F         1 <0>        -0.1317
      21  C16        -0.5980   25.5180   51.7890  C.3       1 <0>        -0.1207
      22  C17         0.9700   32.9890   56.7610  C.ar      1 <0>         0.1364
      23  C18         2.2460   33.2340   56.2700  C.ar      1 <0>        -0.1334
      24  C19         2.8310   34.4700   56.4620  C.ar      1 <0>        -0.0902
      25  C20         2.1540   35.4590   57.1510  C.ar      1 <0>        -0.1165
      26  C21         0.8850   35.2150   57.6460  C.ar      1 <0>        -0.0955
      27  C22         0.2910   33.9840   57.4530  C.ar      1 <0>        -0.1086
      28  S1          0.4950   27.7340   58.8730  S.3       1 <0>         0.0367
      29  C23         0.2150   26.3170   59.9250  C.2       1 <0>         0.2825
      30  S2          1.3550   25.4390   60.8510  S.2       1 <0>        -0.3334
@<TRIPOS>BOND
     1     1     2 1
     2     2     3 1
     3     3     4 1
     4     4    29 1
     5     4     5 am
     6     5     6 2
     7     5     7 1
     8     7     8 2
     9     7    28 1
    10     8     9 1
    11     9    13 1
    12     9    10 2
    13    10    11 1
    14    11    12 1
    15    11    22 1
    16    12    13 2
    17    13    14 1
    18    14    19 ar
    19    14    15 ar
    20    15    16 ar
    21    16    17 ar
    22    17    18 ar
    23    17    21 1
    24    18    19 ar
    25    18    20 1
    26    22    27 ar
    27    22    23 ar
    28    23    24 ar
    29    24    25 ar
    30    25    26 ar
    31    26    27 ar
    32    28    29 1
    33    29    30 2

@<TRIPOS>MOLECULE
ZINC58986709_replica-1.pdb
 24 26 0 0 0
SMALL
GASTEIGER

@<TRIPOS>ATOM
       1  C1         -1.5680   29.8770   63.5970  C.3       1 <0>         0.0220
       2  O1         -0.3050   29.9500   62.9330  O.3       1 <0>        -0.3030
       3  C2         -0.0460   31.0760   62.2230  C.ar      1 <0>         0.1863
       4  C3         -0.2400   32.3230   62.8060  C.ar      1 <0>        -0.2226
       5  C4          0.0190   33.4620   62.0970  C.ar      1 <0>        -0.0056
       6  C5          0.4780   33.3770   60.7770  C.ar      1 <0>        -0.2325
       7  C6          0.6730   32.1210   60.1890  C.ar      1 <0>        -0.0056
       8  C7          0.4150   30.9790   60.9140  C.ar      1 <0>        -0.1339
       9  C8          0.6280   29.6250   60.2890  C.3       1 <0>        -0.0582
      10  S1         -0.9370   29.0240   59.5990  S.3       1 <0>         0.0521
      11  C9         -0.7530   29.2510   57.8610  C.2       1 <0>         0.0475
      12  N1          0.2640   29.7530   57.1870  N.2       1 <0>        -0.2778
      13  N2          0.1990   29.8400   55.8160  N.2       1 <0>        -0.3519
      14  C10        -0.8790   29.4230   55.1820  C.2       1 <0>         0.3350
      15  S2         -1.8900   28.8590   56.5410  S.3       1 <0>         0.0096
      16  N3         -1.1530   29.4180   53.8180  N.pl3     1 <0>        -0.6060
      17  C11        -1.0450   28.2320   53.0870  C.ar      1 <0>         0.1548
      18  C12        -1.6700   28.1170   51.8520  C.ar      1 <0>        -0.1476
      19  C13        -1.5610   26.9430   51.1320  C.ar      1 <0>        -0.0936
      20  C14        -0.8310   25.8840   51.6390  C.ar      1 <0>        -0.1363
      21  C15        -0.2070   25.9960   52.8680  C.ar      1 <0>        -0.0910
      22  C16        -0.3080   27.1680   53.5920  C.ar      1 <0>        -0.1321
      23  C17         0.7560   34.5990   60.0120  C.2       1 <0>         0.3854
      24  O2          0.5560   34.6240   58.8160  O.2       1 <0>        -0.4623
@<TRIPOS>BOND
     1     1     2 1
     2     2     3 1
     3     3     8 ar
     4     3     4 ar
     5     4     5 ar
     6     5     6 ar
     7     6     7 ar
     8     6    23 1
     9     7     8 ar
    10     8     9 1
    11     9    10 1
    12    10    11 1
    13    11    15 1
    14    11    12 2
    15    12    13 1
    16    13    14 2
    17    14    15 1
    18    14    16 1
    19    16    17 1
    20    17    22 ar
    21    17    18 ar
    22    18    19 ar
    23    19    20 ar
    24    20    21 ar
    25    21    22 ar
    26    23    24 2

@<TRIPOS>MOLECULE
ZINC55503489_replica-1.pdb
 24 27 0 0 0
SMALL
GASTEIGER

@<TRIPOS>ATOM
       1  C1         11.0020   36.5000   62.2300  C.3       1 <0>        -0.1172
       2  C2         10.1610   36.4350   60.9800  C.ar      1 <0>        -0.0792
       3  C3          9.5810   37.5880   60.4810  C.ar      1 <0>        -0.1209
       4  C4          8.8100   37.5340   59.3370  C.ar      1 <0>        -0.0589
       5  C5          8.6190   36.3170   58.6850  C.ar      1 <0>        -0.0466
       6  C6          9.2060   35.1600   59.1930  C.ar      1 <0>        -0.0985
       7  C7          9.9790   35.2250   60.3340  C.ar      1 <0>        -0.0948
       8  C8         10.6200   33.9770   60.8820  C.3       1 <0>        -0.1143
       9  C9          7.7910   36.2540   57.4550  C.2       1 <0>        -0.0117
      10  C10         8.3710   36.2820   56.2310  C.2       1 <0>        -0.1861
      11  S1          6.9840   36.1830   55.1160  S.3       1 <0>         0.1541
      12  C11         5.6720   36.1090   56.3070  C.2       1 <0>         0.1143
      13  C12         6.3390   36.1550   57.5420  C.2       1 <0>        -0.2509
      14  C13         5.5020   36.1050   58.7020  C.2       1 <0>         0.5536
      15  O1          5.9890   36.1440   59.8190  O.2       1 <0>        -0.5104
      16  N1          4.1690   36.0130   58.5410  N.am      1 <0>        -0.6375
      17  C14         3.6090   35.9690   57.3050  C.2       1 <0>         0.4143
      18  N2          4.3470   36.0240   56.2270  N.2       1 <0>        -0.4690
      19  C15         2.1110   35.8670   57.1730  C.3       1 <0>        -0.0896
      20  C16         1.6920   34.3970   57.2350  C.3       1 <0>         0.0982
      21  C17         0.3200   34.2720   57.9300  C.3       1 <0>        -0.1546
      22  C18         0.4980   32.9890   58.7850  C.3       1 <0>        -0.1559
      23  C19         1.9960   33.0970   59.1680  C.3       1 <0>         0.0439
      24  O2          2.6410   33.6530   58.0090  O.3       1 <0>        -0.3577
@<TRIPOS>BOND
     1     1     2 1
     2     2     7 ar
     3     2     3 ar
     4     3     4 ar
     5     4     5 ar
     6     5     6 ar
     7     5     9 1
     8     6     7 ar
     9     7     8 1
    10     9    13 1
    11     9    10 2
    12    10    11 1
    13    11    12 1
    14    12    18 1
    15    12    13 2
    16    13    14 1
    17    14    15 2
    18    14    16 am
    19    16    17 1
    20    17    18 2
    21    17    19 1
    22    19    20 1
    23    20    24 1
    24    20    21 1
    25    21    22 1
    26    22    23 1
    27    23    24 1

@<TRIPOS>MOLECULE
CHEMBL240533_replica-1.pdb
 27 31 0 0 0
SMALL
GASTEIGER

@<TRIPOS>ATOM
       1  C1          0.8750   34.7510   59.9130  C.ar      1 <0>        -0.0975
       2  C2          1.4960   35.5280   58.9520  C.ar      1 <0>        -0.1241
       3  C3          2.4370   34.9700   58.1120  C.ar      1 <0>        -0.0949
       4  C4          2.7630   33.6180   58.2350  C.ar      1 <0>        -0.1290
       5  C5          2.1340   32.8400   59.2070  C.ar      1 <0>        -0.0682
       6  C6          1.1930   33.4100   60.0410  C.ar      1 <0>        -0.1224
       7  C7          3.7710   33.0130   57.3370  C.2       1 <0>         0.5623
       8  O1          3.4210   32.4800   56.3030  O.2       1 <0>        -0.5324
       9  N1          5.0770   33.0530   57.6670  N.am      1 <0>        -0.6075
      10  C8          5.5130   33.6080   58.9570  C.3       1 <0>         0.0990
      11  C9          6.6110   34.6440   58.6960  C.3       1 <0>         0.0425
      12  N2          7.6760   34.0320   57.8910  N.3       1 <0>        -0.5124
      13  C10         7.1790   33.6230   56.5710  C.3       1 <0>         0.0337
      14  C11         6.1040   32.5390   56.7480  C.3       1 <0>         0.1186
      15  C12         8.8260   34.9370   57.7640  C.3       1 <0>         0.1651
      16  C13         8.3720   36.2880   57.2680  C.ar      1 <0>        -0.1231
      17  C14         7.7410   36.6840   56.1070  C.ar      1 <0>        -0.0967
      18  C15         7.4330   38.0180   55.9070  C.ar      1 <0>        -0.1128
      19  C16         7.7570   38.9570   56.8700  C.ar      1 <0>        -0.1130
      20  C17         8.3880   38.5690   58.0340  C.ar      1 <0>        -0.0965
      21  C18         8.7020   37.2250   58.2430  C.ar      1 <0>        -0.0483
      22  C19         9.3660   36.5420   59.3800  C.ar      1 <0>        -0.0578
      23  C20         9.4510   35.1780   59.1160  C.ar      1 <0>        -0.0774
      24  C21        10.0340   34.3260   60.0310  C.ar      1 <0>        -0.0800
      25  C22        10.5370   34.8260   61.2190  C.ar      1 <0>        -0.1143
      26  C23        10.4570   36.1810   61.4910  C.ar      1 <0>        -0.1146
      27  C24         9.8760   37.0400   60.5810  C.ar      1 <0>        -0.0977
@<TRIPOS>BOND
     1     1     6 ar
     2     1     2 ar
     3     2     3 ar
     4     3     4 ar
     5     4     5 ar
     6     4     7 1
     7     5     6 ar
     8     7     8 2
     9     7     9 am
    10     9    14 1
    11     9    10 1
    12    10    11 1
    13    11    12 1
    14    12    13 1
    15    12    15 1
    16    13    14 1
    17    15    23 1
    18    15    16 1
    19    16    21 ar
    20    16    17 ar
    21    17    18 ar
    22    18    19 ar
    23    19    20 ar
    24    20    21 ar
    25    21    22 1
    26    22    27 ar
    27    22    23 ar
    28    23    24 ar
    29    24    25 ar
    30    25    26 ar
    31    26    27 ar

@<TRIPOS>MOLECULE
ZINC02679473_replica-1.pdb
 29 32 0 0 0
SMALL
GASTEIGER

@<TRIPOS>ATOM
       1  C1         11.5110   35.6700   62.0270  C.3       1 <0>        -0.1203
       2  C2         10.3890   35.8440   61.0370  C.ar      1 <0>        -0.0706
       3  C3          9.4820   36.8770   61.1940  C.ar      1 <0>        -0.1085
       4  C4          8.4530   37.0390   60.2880  C.ar      1 <0>        -0.1000
       5  C5          8.3280   36.1640   59.2180  C.ar      1 <0>         0.0958
       6  C6          9.2370   35.1250   59.0640  C.ar      1 <0>        -0.1010
       7  C7         10.2670   34.9710   59.9710  C.ar      1 <0>        -0.1080
       8  N1          7.2840   36.3260   58.2960  N.pl3     1 <0>        -0.3898
       9  C8          7.3820   37.0140   57.1190  C.2       1 <0>         0.0169
      10  C9          6.1990   36.9700   56.4840  C.2       1 <0>        -0.1462
      11  C10         5.2960   36.1890   57.3400  C.2       1 <0>        -0.2618
      12  C11         6.0410   35.8290   58.4470  C.2       1 <0>         0.1268
      13  C12         5.5480   35.0190   59.6200  C.3       1 <0>        -0.0980
      14  C13         3.8930   35.8630   57.0780  C.2       1 <0>         0.4457
      15  O1          3.0590   36.0310   57.9420  O.2       1 <0>        -0.4582
      16  C14         3.4850   35.3180   55.7330  C.3       1 <0>        -0.1675
      17  S1          4.4850   33.8600   55.3430  S.3       1 <0>         0.0478
      18  C15         3.9340   32.7630   56.6060  C.ar      1 <0>         0.1964
      19  C16         4.8730   32.1060   57.4510  C.ar      1 <0>        -0.1697
      20  C17         6.3230   32.1800   57.4610  C.2       1 <0>        -0.0976
      21  C18         7.0090   31.4610   58.3610  C.2       1 <0>        -0.1275
      22  S2          5.7340   30.6150   59.2770  S.3       1 <0>         0.1102
      23  C19         4.3150   31.2520   58.4260  C.ar      1 <0>         0.1301
      24  N2          3.0100   31.0890   58.5320  N.ar      1 <0>        -0.4879
      25  C20         2.1890   31.7260   57.7200  C.ar      1 <0>         0.3323
      26  N3          2.6410   32.5410   56.7830  N.ar      1 <0>        -0.5367
      27  C21         8.5020   31.3850   58.5530  C.3       1 <0>        -0.0717
      28  C22         7.0490   33.0550   56.4710  C.3       1 <0>        -0.1085
      29  C23         8.6180   37.7110   56.6150  C.3       1 <0>        -0.0865
@<TRIPOS>BOND
     1     1     2 1
     2     2     7 ar
     3     2     3 ar
     4     3     4 ar
     5     4     5 ar
     6     5     6 ar
     7     5     8 1
     8     6     7 ar
     9     8    12 1
    10     8     9 1
    11     9    10 2
    12     9    29 1
    13    10    11 1
    14    11    12 2
    15    11    14 1
    16    12    13 1
    17    14    15 2
    18    14    16 1
    19    16    17 1
    20    17    18 1
    21    18    26 ar
    22    18    19 ar
    23    19    23 ar
    24    19    20 1
    25    20    21 2
    26    20    28 1
    27    21    22 1
    28    21    27 1
    29    22    23 1
    30    23    24 ar
    31    24    25 ar
    32    25    26 ar

@<TRIPOS>MOLECULE
ZINC63855658_replica-1.pdb
 23 23 0 0 0
SMALL
GASTEIGER

@<TRIPOS>ATOM
       1  C1         15.8240   32.8330   65.5230  C.3       1 <0>        -0.1440
       2  C2         15.7670   34.0330   64.5750  C.3       1 <0>        -0.0921
       3  C3         17.1730   34.6090   64.3950  C.3       1 <0>        -0.1444
       4  C4         15.2210   33.5850   63.2170  C.3       1 <0>        -0.1195
       5  C5         13.7770   33.1070   63.3800  C.3       1 <0>         0.1621
       6  C6         13.7230   31.5860   63.2280  C.3       1 <0>        -0.1929
       7  C7         12.4220   31.0710   63.7870  C.2       1 <0>         0.4968
       8  O1         12.4270   30.2310   64.6710  O.co2     1 <0>        -0.6905
       9  O2         11.3630   31.4940   63.3550  O.co2     1 <0>        -0.7054
      10  N1         12.9380   33.7310   62.3530  N.am      1 <0>        -0.7180
      11  C8         12.1520   34.7780   62.6710  C.2       1 <0>         0.5539
      12  O3         12.2080   35.2660   63.7830  O.2       1 <0>        -0.5377
      13  C9         11.2220   35.3330   61.6680  C.ar      1 <0>        -0.1635
      14  C10        10.9250   34.6090   60.5110  C.ar      1 <0>        -0.0468
      15  C11        10.0560   35.1300   59.5780  C.ar      1 <0>        -0.1587
      16  C12         9.4760   36.3760   59.7860  C.ar      1 <0>         0.1488
      17  C13         9.7690   37.1000   60.9360  C.ar      1 <0>        -0.2177
      18  C14        10.6320   36.5840   61.8760  C.ar      1 <0>        -0.0198
      19  O4          8.6220   36.8860   58.8630  O.3       1 <0>        -0.3102
      20  C15         8.5160   36.1870   57.6210  C.3       1 <0>         0.0939
      21  C16         8.1890   37.1640   56.5210  C.2       1 <0>        -0.1466
      22  C17         8.3380   38.4500   56.7220  C.2       1 <0>        -0.1679
      23  C18         7.6930   36.6620   55.1900  C.3       1 <0>        -0.1136
@<TRIPOS>BOND
     1     1     2 1
     2     2     3 1
     3     2     4 1
     4     4     5 1
     5     5     6 1
     6     5    10 1
     7     6     7 1
     8     7     8 2
     9     7     9 1
    10    10    11 am
    11    11    12 2
    12    11    13 1
    13    13    18 ar
    14    13    14 ar
    15    14    15 ar
    16    15    16 ar
    17    16    17 ar
    18    16    19 1
    19    17    18 ar
    20    19    20 1
    21    20    21 1
    22    21    22 2
    23    21    23 1

@<TRIPOS>MOLECULE
ZINC57685740_replica-1.pdb
 21 22 0 0 0
SMALL
GASTEIGER

@<TRIPOS>ATOM
       1  C1          6.8470   35.7980   55.0410  C.3       1 <0>         0.0268
       2  O1          8.0710   36.4940   55.2850  O.3       1 <0>        -0.3140
       3  C2          8.2650   36.9820   56.5390  C.ar      1 <0>         0.1663
       4  C3          8.1710   38.3450   56.7760  C.ar      1 <0>        -0.2440
       5  C4          8.3680   38.8410   58.0510  C.ar      1 <0>        -0.0396
       6  C5          8.6610   37.9800   59.0920  C.ar      1 <0>        -0.2450
       7  C6          8.7550   36.6160   58.8600  C.ar      1 <0>         0.1688
       8  C7          8.5520   36.1150   57.5820  C.ar      1 <0>        -0.1876
       9  O2          9.0420   35.7690   59.8840  O.3       1 <0>        -0.3078
      10  C8         10.3740   35.8040   60.3990  C.3       1 <0>         0.0550
      11  C9         10.7110   34.4510   61.0310  C.3       1 <0>        -0.1110
      12  C10        12.0310   34.5610   61.7960  C.3       1 <0>         0.0608
      13  C11        11.9500   35.6720   62.7580  C.1       1 <0>         0.2001
      14  N1         11.8870   36.5290   63.5010  N.1       1 <0>        -0.4119
      15  C12        12.2920   33.2750   62.5350  C.ar      1 <0>        -0.1024
      16  C13        11.2480   32.4090   62.8060  C.ar      1 <0>        -0.0740
      17  C14        11.4870   31.2290   63.4830  C.ar      1 <0>        -0.1504
      18  C15        12.7730   30.9120   63.8910  C.ar      1 <0>         0.1089
      19  C16        13.8170   31.7790   63.6200  C.ar      1 <0>        -0.1517
      20  C17        13.5760   32.9570   62.9370  C.ar      1 <0>        -0.0708
      21  F1         13.0060   29.7580   64.5540  F         1 <0>        -0.1358
@<TRIPOS>BOND
     1     1     2 1
     2     2     3 1
     3     3     8 ar
     4     3     4 ar
     5     4     5 ar
     6     5     6 ar
     7     6     7 ar
     8     7     8 ar
     9     7     9 1
    10     9    10 1
    11    10    11 1
    12    11    12 1
    13    12    13 1
    14    12    15 1
    15    13    14 3
    16    15    20 ar
    17    15    16 ar
    18    16    17 ar
    19    17    18 ar
    20    18    19 ar
    21    18    21 1
    22    19    20 ar

@<TRIPOS>MOLECULE
ZINC01446284_replica-1.pdb
 24 27 0 0 0
SMALL
GASTEIGER

@<TRIPOS>ATOM
       1  C1          1.9610   35.5830   56.8310  C.3       1 <0>        -0.1170
       2  C2          3.3960   35.7820   57.2440  C.ar      1 <0>        -0.0769
       3  C3          3.7080   36.0460   58.5650  C.ar      1 <0>        -0.1241
       4  C4          5.0230   36.2260   58.9420  C.ar      1 <0>        -0.1045
       5  C5          6.0450   36.1440   58.0040  C.ar      1 <0>        -0.1026
       6  C6          5.7340   35.8820   56.6840  C.ar      1 <0>         0.1035
       7  C7          4.4040   35.6990   56.3070  C.ar      1 <0>        -0.0800
       8  C8          4.0650   35.4110   54.8660  C.3       1 <0>        -0.1064
       9  N1          6.7130   35.7920   55.6950  N.pl3     1 <0>        -0.6240
      10  C9          7.9960   35.3500   56.2430  C.3       1 <0>         0.1298
      11  C10         8.4610   36.3150   57.3210  C.3       1 <0>        -0.1224
      12  C11         7.4560   36.3460   58.4900  C.3       1 <0>        -0.0212
      13  C12         7.5740   37.7690   59.0120  C.2       1 <0>        -0.1550
      14  C13         8.0700   38.5570   58.0910  C.2       1 <0>        -0.1610
      15  C14         8.3550   37.7760   56.8220  C.3       1 <0>        -0.0985
      16  C15         7.8400   33.9740   56.8360  C.ar      1 <0>        -0.0221
      17  C16         6.9880   33.0590   56.2440  C.ar      1 <0>        -0.0898
      18  C17         6.8450   31.7960   56.7890  C.ar      1 <0>        -0.0559
      19  C18         7.5540   31.4480   57.9220  C.ar      1 <0>        -0.0452
      20  C19         8.4030   32.3640   58.5160  C.ar      1 <0>        -0.0550
      21  C20         8.5490   33.6250   57.9700  C.ar      1 <0>        -0.1163
      22  N2          7.4010   30.0960   58.5050  N.pl3     1 <0>         0.0277
      23  O1          7.4190   29.9480   59.7140  O.2       1 <0>        -0.1599
      24  O2          7.2570   29.1310   57.7760  O.3       1 <0>        -0.1609
@<TRIPOS>BOND
     1     1     2 1
     2     2     7 ar
     3     2     3 ar
     4     3     4 ar
     5     4     5 ar
     6     5    12 1
     7     5     6 ar
     8     6     7 ar
     9     6     9 1
    10     7     8 1
    11     9    10 1
    12    10    11 1
    13    10    16 1
    14    11    15 1
    15    11    12 1
    16    12    13 1
    17    13    14 2
    18    14    15 1
    19    16    21 ar
    20    16    17 ar
    21    17    18 ar
    22    18    19 ar
    23    19    20 ar
    24    19    22 1
    25    20    21 ar
    26    22    23 2
    27    22    24 1

@<TRIPOS>MOLECULE
ZINC20828236_replica-1.pdb
 22 24 0 0 0
SMALL
GASTEIGER

@<TRIPOS>ATOM
       1  C1          7.0320   38.3290   55.4630  C.3       1 <0>        -0.1630
       2  C2          7.7010   36.9800   55.7410  C.3       1 <0>         0.1350
       3  C3          8.2740   36.9810   57.1350  C.ar      1 <0>        -0.3660
       4  C4          8.1970   38.1350   57.9090  C.ar      1 <0>        -0.0511
       5  C5          8.7040   38.1690   59.1710  C.ar      1 <0>        -0.2387
       6  C6          9.3150   37.0230   59.7090  C.ar      1 <0>         0.0081
       7  C7          9.8500   37.0240   61.0090  C.ar      1 <0>        -0.1489
       8  C8         10.4350   35.8950   61.4960  C.ar      1 <0>        -0.0975
       9  C9         10.5180   34.7390   60.7230  C.ar      1 <0>        -0.1704
      10  C10        10.0070   34.7010   59.4620  C.ar      1 <0>        -0.0516
      11  C11         9.3960   35.8450   58.9260  C.ar      1 <0>        -0.1396
      12  C12         8.8600   35.8460   57.6210  C.ar      1 <0>         0.3236
      13  O1          8.9260   34.7280   56.8550  O.3       1 <0>        -0.6852
      14  N1          6.7050   35.9060   55.6210  N.4       1 <0>        -0.5367
      15  C13         5.3670   36.3840   55.9950  C.3       1 <0>        -0.0015
      16  C14         4.6490   35.3050   56.8060  C.3       1 <0>        -0.1016
      17  C15         5.2250   35.2550   58.1980  C.ar      1 <0>        -0.0984
      18  C16         5.8100   34.0920   58.6610  C.ar      1 <0>        -0.1112
      19  C17         6.3440   34.0470   59.9350  C.ar      1 <0>        -0.1166
      20  C18         6.2830   35.1620   60.7500  C.ar      1 <0>        -0.1109
      21  C19         5.6930   36.3230   60.2880  C.ar      1 <0>        -0.1157
      22  C20         5.1640   36.3700   59.0120  C.ar      1 <0>        -0.1104
@<TRIPOS>BOND
     1     1     2 1
     2     2     3 1
     3     2    14 1
     4     3    12 ar
     5     3     4 ar
     6     4     5 ar
     7     5     6 ar
     8     6    11 ar
     9     6     7 ar
    10     7     8 ar
    11     8     9 ar
    12     9    10 ar
    13    10    11 ar
    14    11    12 ar
    15    12    13 1
    16    14    15 1
    17    15    16 1
    18    16    17 1
    19    17    22 ar
    20    17    18 ar
    21    18    19 ar
    22    19    20 ar
    23    20    21 ar
    24    21    22 ar

@<TRIPOS>MOLECULE
ZINC64567916_replica-1.pdb
 27 30 0 0 0
SMALL
GASTEIGER

@<TRIPOS>ATOM
       1  C1          7.1960   37.9200   55.6470  C.3       1 <0>        -0.0828
       2  C2          7.4400   37.1070   56.8920  C.2       1 <0>         0.1519
       3  C3          6.5390   36.1380   57.4410  C.2       1 <0>        -0.2424
       4  C4          5.2770   35.5860   57.1690  C.2       1 <0>         0.0114
       5  C5          4.7630   34.6340   57.9980  C.2       1 <0>        -0.2459
       6  S1          6.0420   34.4570   59.2300  S.3       1 <0>         0.1636
       7  C6          7.1880   35.6480   58.5840  C.2       1 <0>         0.0501
       8  N1          8.3770   36.2730   58.7050  N.pl3     1 <0>        -0.2815
       9  N2          8.5030   37.1690   57.6360  N.2       1 <0>        -0.2610
      10  C7          9.3200   36.0610   59.7200  C.ar      1 <0>         0.1362
      11  C8         10.1080   34.9180   59.7100  C.ar      1 <0>        -0.0983
      12  C9         11.0360   34.7120   60.7100  C.ar      1 <0>        -0.1272
      13  C10        11.1830   35.6440   61.7230  C.ar      1 <0>         0.1052
      14  C11        10.3980   36.7850   61.7360  C.ar      1 <0>        -0.1308
      15  C12         9.4720   36.9980   60.7340  C.ar      1 <0>        -0.0753
      16  F1         12.0930   35.4400   62.7010  F         1 <0>        -0.1302
      17  C13         3.4800   33.9320   57.9030  C.2       1 <0>         0.6130
      18  O1          3.2740   33.1630   56.9810  O.2       1 <0>        -0.5210
      19  N3          2.5280   34.1370   58.8340  N.am      1 <0>        -0.7197
      20  C14         1.2460   33.4350   58.7390  C.3       1 <0>         0.1856
      21  C15         0.2370   34.3150   57.9980  C.3       1 <0>        -0.1599
      22  C16         0.7320   33.1380   60.1240  C.ar      1 <0>        -0.0951
      23  C17         0.1560   34.1430   60.8780  C.ar      1 <0>        -0.1161
      24  C18        -0.3160   33.8700   62.1490  C.ar      1 <0>        -0.1146
      25  C19        -0.2120   32.5920   62.6650  C.ar      1 <0>        -0.1172
      26  C20         0.3640   31.5870   61.9110  C.ar      1 <0>        -0.1142
      27  C21         0.8330   31.8590   60.6380  C.ar      1 <0>        -0.1058
@<TRIPOS>BOND
     1     1     2 1
     2     2     9 2
     3     2     3 1
     4     3     7 2
     5     3     4 1
     6     4     5 2
     7     5     6 1
     8     5    17 1
     9     6     7 1
    10     7     8 1
    11     8     9 1
    12     8    10 1
    13    10    15 ar
    14    10    11 ar
    15    11    12 ar
    16    12    13 ar
    17    13    14 ar
    18    13    16 1
    19    14    15 ar
    20    17    18 2
    21    17    19 am
    22    19    20 1
    23    20    21 1
    24    20    22 1
    25    22    27 ar
    26    22    23 ar
    27    23    24 ar
    28    24    25 ar
    29    25    26 ar
    30    26    27 ar

@<TRIPOS>MOLECULE
ZINC51635866_replica-1.pdb
 21 23 0 0 0
SMALL
GASTEIGER

@<TRIPOS>ATOM
       1  C1         -1.4420   26.8830   51.1760  C.ar      1 <0>        -0.0863
       2  C2         -1.6190   28.0960   51.8160  C.ar      1 <0>        -0.1262
       3  C3         -1.1080   28.2900   53.0850  C.ar      1 <0>        -0.0414
       4  C4         -0.4180   27.2710   53.7160  C.ar      1 <0>        -0.1532
       5  C5         -0.2410   26.0570   53.0760  C.ar      1 <0>         0.1016
       6  C6         -0.7530   25.8640   51.8040  C.ar      1 <0>        -0.1581
       7  F1          0.4340   25.0610   53.6910  F         1 <0>        -0.1391
       8  C7         -1.3020   29.6120   53.7820  C.3       1 <0>        -0.0729
       9  C8         -0.0370   30.1280   54.4880  C.3       1 <0>        -0.1403
      10  C9         -0.9570   30.5810   55.6340  C.3       1 <0>         0.1273
      11  C10        -1.9350   29.4860   55.1770  C.3       1 <0>        -0.1455
      12  N1         -0.3950   30.3480   56.9660  N.pl3     1 <0>        -0.7306
      13  C11         0.0120   31.4310   57.7530  C.ar      1 <0>         0.2093
      14  C12         0.3460   31.2320   59.0880  C.ar      1 <0>        -0.1411
      15  C13         0.7490   32.2960   59.8710  C.ar      1 <0>        -0.1008
      16  C14         0.8240   33.5680   59.3320  C.ar      1 <0>         0.0858
      17  C15         0.4910   33.7770   57.9900  C.ar      1 <0>        -0.0087
      18  C16         0.0890   32.6980   57.2000  C.ar      1 <0>        -0.1241
      19  C17         0.5670   35.0920   57.4270  C.1       1 <0>         0.2491
      20  N2          0.6280   36.1350   56.9810  N.1       1 <0>        -0.3978
      21  F2          1.2180   34.6060   60.1010  F         1 <0>        -0.1326
@<TRIPOS>BOND
     1     1     6 ar
     2     1     2 ar
     3     2     3 ar
     4     3     4 ar
     5     3     8 1
     6     4     5 ar
     7     5     6 ar
     8     5     7 1
     9     8    11 1
    10     8     9 1
    11     9    10 1
    12    10    11 1
    13    10    12 1
    14    12    13 1
    15    13    18 ar
    16    13    14 ar
    17    14    15 ar
    18    15    16 ar
    19    16    17 ar
    20    16    21 1
    21    17    18 ar
    22    17    19 1
    23    19    20 3

@<TRIPOS>MOLECULE
ZINC49452804_replica-1.pdb
 21 23 0 0 0
SMALL
GASTEIGER

@<TRIPOS>ATOM
       1  C1         -0.1190   25.2000   58.5130  C.3       1 <0>        -0.1119
       2  C2         -0.9470   26.3820   58.0830  C.ar      1 <0>        -0.0938
       3  C3         -2.3280   26.2910   58.0680  C.ar      1 <0>        -0.1115
       4  C4         -3.0940   27.3720   57.6750  C.ar      1 <0>        -0.1193
       5  C5         -2.4850   28.5510   57.2940  C.ar      1 <0>        -0.0866
       6  C6         -1.0950   28.6500   57.3070  C.ar      1 <0>        -0.0321
       7  C7         -0.3270   27.5570   57.7100  C.ar      1 <0>        -0.0777
       8  C8         -0.4350   29.9130   56.9000  C.ar      1 <0>         0.2008
       9  C9         -0.0250   30.1130   55.5670  C.ar      1 <0>        -0.0163
      10  N1          0.5630   31.2590   55.2390  N.ar      1 <0>        -0.1697
      11  N2          0.7540   32.1700   56.1280  N.ar      1 <0>        -0.3020
      12  C10         0.3770   32.0020   57.3900  C.ar      1 <0>         0.4053
      13  N3         -0.2210   30.8850   57.7830  N.ar      1 <0>        -0.4704
      14  S1          0.6670   33.2870   58.5610  S.3       1 <0>        -0.7547
      15  C11        -0.2470   29.0630   54.5440  C.ar      1 <0>        -0.0066
      16  C12         0.5960   27.9530   54.4890  C.ar      1 <0>        -0.0897
      17  C13         0.3840   26.9780   53.5350  C.ar      1 <0>        -0.1248
      18  C14        -0.6600   27.1000   52.6360  C.ar      1 <0>        -0.1172
      19  C15        -1.4980   28.1990   52.6860  C.ar      1 <0>        -0.1232
      20  C16        -1.3010   29.1780   53.6400  C.ar      1 <0>        -0.0599
      21  C17        -2.2190   30.3710   53.6980  C.3       1 <0>        -0.1101
@<TRIPOS>BOND
     1     1     2 1
     2     2     7 ar
     3     2     3 ar
     4     3     4 ar
     5     4     5 ar
     6     5     6 ar
     7     6     7 ar
     8     6     8 1
     9     8     9 ar
    10     8    13 ar
    11     9    10 ar
    12     9    15 1
    13    10    11 ar
    14    11    12 ar
    15    12    14 1
    16    12    13 ar
    17    15    20 ar
    18    15    16 ar
    19    16    17 ar
    20    17    18 ar
    21    18    19 ar
    22    19    20 ar
    23    20    21 1

@<TRIPOS>MOLECULE
ZINC05129072_replica-1.pdb
 21 22 0 0 0
SMALL
GASTEIGER

@<TRIPOS>ATOM
       1  C1         -0.4160   24.9400   51.4510  C.3       1 <0>        -0.1147
       2  C2         -0.7960   26.3010   51.9760  C.ar      1 <0>        -0.1224
       3  C3         -1.5960   27.1340   51.2160  C.ar      1 <0>        -0.0794
       4  C4         -1.9470   28.3820   51.6940  C.ar      1 <0>        -0.1669
       5  C5         -1.4950   28.7990   52.9400  C.ar      1 <0>         0.1693
       6  C6         -0.6860   27.9610   53.6980  C.ar      1 <0>        -0.1748
       7  C7         -0.3440   26.7130   53.2160  C.ar      1 <0>        -0.0793
       8  N1         -1.8480   30.0600   53.4270  N.pl3     1 <0>        -0.6659
       9  C8         -0.9490   30.7860   54.1660  C.2       1 <0>         0.1547
      10  C9         -1.2220   31.0870   55.4550  C.2       1 <0>        -0.2644
      11  C10        -0.3000   31.8320   56.2140  C.2       1 <0>        -0.0146
      12  C11         1.0330   31.7420   55.9470  C.2       1 <0>        -0.1867
      13  C12         1.9530   32.4860   56.7030  C.2       1 <0>         0.1974
      14  N2          2.1970   33.7380   56.3950  N.2       1 <0>        -0.5006
      15  C13         3.0920   34.4610   57.1300  C.ar      1 <0>         0.0850
      16  C14         4.4650   34.2900   56.9320  C.ar      1 <0>        -0.1523
      17  C15         5.3630   35.0190   57.6830  C.ar      1 <0>        -0.1051
      18  C16         4.9080   35.9190   58.6310  C.ar      1 <0>        -0.0989
      19  C17         3.5500   36.0950   58.8330  C.ar      1 <0>        -0.1061
      20  C18         2.6390   35.3720   58.0900  C.ar      1 <0>        -0.1068
      21  C19         5.8950   36.7120   59.4470  C.3       1 <0>        -0.1163
@<TRIPOS>BOND
     1     1     2 1
     2     2     7 ar
     3     2     3 ar
     4     3     4 ar
     5     4     5 ar
     6     5     6 ar
     7     5     8 1
     8     6     7 ar
     9     8     9 1
    10     9    10 2
    11    10    11 1
    12    11    12 2
    13    12    13 1
    14    13    14 2
    15    14    15 1
    16    15    20 ar
    17    15    16 ar
    18    16    17 ar
    19    17    18 ar
    20    18    19 ar
    21    18    21 1
    22    19    20 ar

@<TRIPOS>MOLECULE
ZINC40224733_replica-1.pdb
 23 25 0 0 0
SMALL
GASTEIGER

@<TRIPOS>ATOM
       1  C1         15.3970   33.6740   63.4180  C.3       1 <0>        -0.1179
       2  C2         14.0520   33.0110   63.2700  C.ar      1 <0>        -0.0421
       3  C3         13.8540   31.7340   63.7620  C.ar      1 <0>        -0.1596
       4  C4         12.6200   31.1240   63.6280  C.ar      1 <0>        -0.0421
       5  C5         11.5830   31.7880   63.0030  C.ar      1 <0>        -0.1603
       6  C6         11.7790   33.0700   62.5090  C.ar      1 <0>         0.1373
       7  C7         13.0160   33.6820   62.6500  C.ar      1 <0>        -0.2168
       8  O1         10.7610   33.7260   61.8940  O.3       1 <0>        -0.3150
       9  C8         11.1150   34.7830   61.0010  C.3       1 <0>         0.0610
      10  C9         10.4430   36.0800   61.4540  C.3       1 <0>        -0.1154
      11  C10         9.6730   36.6910   60.2810  C.3       1 <0>        -0.1338
      12  C11         8.3630   35.9260   60.0790  C.3       1 <0>         0.1117
      13  N1          8.2150   35.5790   58.6630  N.pl3     1 <0>        -0.4898
      14  C12         8.3330   34.3370   58.1210  C.2       1 <0>         0.2828
      15  N2          8.1410   34.3900   56.8350  N.2       1 <0>        -0.4940
      16  C13         7.8880   35.6720   56.4640  C.ar      1 <0>         0.0469
      17  C14         7.9270   36.4520   57.6320  C.ar      1 <0>         0.0463
      18  C15         7.6960   37.8180   57.5580  C.ar      1 <0>        -0.1114
      19  C16         7.4260   38.4010   56.3380  C.ar      1 <0>        -0.1021
      20  C17         7.3850   37.6300   55.1850  C.ar      1 <0>        -0.1277
      21  C18         7.6160   36.2840   55.2370  C.ar      1 <0>        -0.0650
      22  C19         8.6410   33.0820   58.8970  C.3       1 <0>        -0.0792
      23  C20        12.4080   29.7310   64.1650  C.3       1 <0>        -0.1167
@<TRIPOS>BOND
     1     1     2 1
     2     2     7 ar
     3     2     3 ar
     4     3     4 ar
     5     4     5 ar
     6     4    23 1
     7     5     6 ar
     8     6     7 ar
     9     6     8 1
    10     8     9 1
    11     9    10 1
    12    10    11 1
    13    11    12 1
    14    12    13 1
    15    13    17 1
    16    13    14 1
    17    14    15 2
    18    14    22 1
    19    15    16 1
    20    16    21 ar
    21    16    17 ar
    22    17    18 ar
    23    18    19 ar
    24    19    20 ar
    25    20    21 ar

@<TRIPOS>MOLECULE
ZINC05866029_replica-1.pdb
 27 28 0 0 0
SMALL
GASTEIGER

@<TRIPOS>ATOM
       1  C1          8.8520   38.5670   57.5780  C.3       1 <0>        -0.1637
       2  C2          8.2170   37.4920   58.4210  C.2       1 <0>         0.1767
       3  N1          6.9370   37.2880   58.3570  N.2       1 <0>        -0.2677
       4  N2          6.3800   36.6820   57.2230  N.pl3     1 <0>        -0.5402
       5  C3          5.2820   35.9090   57.3430  C.2       1 <0>         0.5935
       6  S1          4.7600   34.9550   56.0210  S.2       1 <0>        -0.6227
       7  N3          4.5960   35.8870   58.5020  N.pl3     1 <0>        -0.6602
       8  C4          3.4030   35.0480   58.6320  C.3       1 <0>         0.1376
       9  C5          2.1540   35.9300   58.6190  C.3       1 <0>        -0.1276
      10  C6          0.9070   35.0540   58.7540  C.3       1 <0>        -0.1148
      11  C7          0.9700   34.2780   60.0720  C.3       1 <0>        -0.1237
      12  C8          2.2190   33.3960   60.0850  C.3       1 <0>        -0.1143
      13  C9          3.4650   34.2720   59.9500  C.3       1 <0>        -0.1273
      14  C10         9.0500   36.6720   59.3190  C.ar      1 <0>        -0.0971
      15  C11         9.4470   37.1750   60.5610  C.ar      1 <0>        -0.0140
      16  C12        10.2300   36.4070   61.3950  C.ar      1 <0>        -0.2167
      17  C13        10.6230   35.1310   61.0080  C.ar      1 <0>         0.1694
      18  C14        10.2290   34.6210   59.7790  C.ar      1 <0>        -0.2170
      19  C15         9.4430   35.3830   58.9330  C.ar      1 <0>         0.1833
      20  O1          9.0570   34.8850   57.7280  O.3       1 <0>        -0.2899
      21  C16         8.1590   33.7740   57.7440  C.3       1 <0>         0.4046
      22  F1          7.3030   33.8820   58.8460  F         1 <0>        -0.1933
      23  F2          8.8890   32.5840   57.8360  F         1 <0>        -0.1932
      24  O2         11.3940   34.3800   61.8360  O.3       1 <0>        -0.3145
      25  C17        12.5680   34.9990   62.3670  C.3       1 <0>         0.4123
      26  F3         12.5600   34.8930   63.7630  F         1 <0>        -0.1941
      27  F4         13.7030   34.3590   61.8590  F         1 <0>        -0.1941
@<TRIPOS>BOND
     1     1     2 1
     2     2     3 2
     3     2    14 1
     4     3     4 1
     5     4     5 1
     6     5     6 2
     7     5     7 1
     8     7     8 1
     9     8    13 1
    10     8     9 1
    11     9    10 1
    12    10    11 1
    13    11    12 1
    14    12    13 1
    15    14    19 ar
    16    14    15 ar
    17    15    16 ar
    18    16    17 ar
    19    17    18 ar
    20    17    24 1
    21    18    19 ar
    22    19    20 1
    23    20    21 1
    24    21    22 1
    25    21    23 1
    26    24    25 1
    27    25    26 1
    28    25    27 1

@<TRIPOS>MOLECULE
ZINC05399647_replica-1.pdb
 24 26 0 0 0
SMALL
GASTEIGER

@<TRIPOS>ATOM
       1  C1         14.3180   33.0700   63.0760  C.3       1 <0>        -0.1547
       2  C2         13.7890   34.1450   62.1240  C.3       1 <0>        -0.1196
       3  C3         12.2880   33.9420   61.9100  C.3       1 <0>         0.0806
       4  C4         11.7960   32.7950   62.7950  C.3       1 <0>        -0.1827
       5  O1         11.5910   35.1410   62.2540  O.3       1 <0>        -0.3076
       6  C5         10.7200   35.6360   61.3340  C.ar      1 <0>         0.1003
       7  C6         10.5040   34.9520   60.1470  C.ar      1 <0>        -0.1705
       8  C7          9.6190   35.4540   59.2120  C.ar      1 <0>        -0.1076
       9  C8          8.9470   36.6410   59.4620  C.ar      1 <0>         0.0917
      10  C9          9.1670   37.3280   60.6460  C.ar      1 <0>        -0.1666
      11  C10        10.0490   36.8230   61.5830  C.ar      1 <0>        -0.1134
      12  O2          8.0750   37.1350   58.5420  O.3       1 <0>        -0.3078
      13  C11         8.5930   38.0770   57.5990  C.3       1 <0>         0.0752
      14  C12         7.6340   38.1870   56.4100  C.3       1 <0>        -0.1066
      15  S1          7.2980   36.5350   55.7530  S.3       1 <0>         0.0144
      16  C13         5.7140   36.2380   56.4650  C.2       1 <0>         0.2618
      17  N1          5.4860   35.9290   57.7760  N.pl3     1 <0>        -0.5861
      18  C14         4.1190   35.7740   57.9300  C.ar      1 <0>         0.0574
      19  C15         3.3020   35.4650   59.0070  C.ar      1 <0>        -0.1117
      20  C16         1.9360   35.3840   58.8320  C.ar      1 <0>        -0.0975
      21  C17         1.3730   35.6110   57.5850  C.ar      1 <0>        -0.1242
      22  C18         2.1680   35.9190   56.5050  C.ar      1 <0>        -0.0645
      23  C19         3.5540   36.0040   56.6640  C.ar      1 <0>         0.0543
      24  N2          4.5760   36.2870   55.8150  N.2       1 <0>        -0.4875
@<TRIPOS>BOND
     1     1     2 1
     2     2     3 1
     3     3     4 1
     4     3     5 1
     5     5     6 1
     6     6    11 ar
     7     6     7 ar
     8     7     8 ar
     9     8     9 ar
    10     9    10 ar
    11     9    12 1
    12    10    11 ar
    13    12    13 1
    14    13    14 1
    15    14    15 1
    16    15    16 1
    17    16    24 2
    18    16    17 1
    19    17    18 1
    20    18    23 ar
    21    18    19 ar
    22    19    20 ar
    23    20    21 ar
    24    21    22 ar
    25    22    23 ar
    26    23    24 1

@<TRIPOS>MOLECULE
ZINC34907283_replica-1.pdb
 27 30 0 0 0
SMALL
GASTEIGER

@<TRIPOS>ATOM
       1  C1          0.6670   32.9830   61.7410  C.3       1 <0>        -0.1477
       2  C2          0.4380   33.6910   60.4040  C.3       1 <0>        -0.0685
       3  C3          1.0040   32.8520   59.2880  C.2       1 <0>         0.1049
       4  C4          0.3690   31.8440   58.6470  C.2       1 <0>        -0.2486
       5  C5          1.2460   31.3280   57.6780  C.2       1 <0>         0.3109
       6  N1          2.3670   32.0070   57.7380  N.2       1 <0>        -0.3019
       7  N2          2.2400   32.9780   58.7400  N.pl3     1 <0>        -0.3235
       8  C6          3.2170   33.9110   59.1130  C.ar      1 <0>         0.1114
       9  C7          3.3200   35.1180   58.4360  C.ar      1 <0>        -0.0651
      10  C8          4.2840   36.0370   58.8050  C.ar      1 <0>        -0.1445
      11  C9          5.1480   35.7550   59.8500  C.ar      1 <0>         0.1382
      12  C10         5.0490   34.5520   60.5270  C.ar      1 <0>        -0.1788
      13  C11         4.0820   33.6320   60.1650  C.ar      1 <0>         0.1460
      14  F1          3.9810   32.4590   60.8300  F         1 <0>        -0.1127
      15  F2          6.0880   36.6560   60.2080  F         1 <0>        -0.1229
      16  N3          0.9690   30.2730   56.8010  N.am      1 <0>        -0.6271
      17  C12         0.2760   30.5010   55.6680  C.2       1 <0>         0.6185
      18  O1         -0.1100   31.6260   55.4070  O.2       1 <0>        -0.4930
      19  C13        -0.0150   29.3940   54.7480  C.2       1 <0>        -0.2047
      20  C14        -0.7910   29.4000   53.6310  C.2       1 <0>        -0.0389
      21  C15        -0.9460   28.2240   52.8770  C.ar      1 <0>        -0.1112
      22  C16        -1.7060   28.0330   51.6940  C.ar      1 <0>        -0.0565
      23  C17        -1.7480   26.8200   51.0840  C.ar      1 <0>        -0.1266
      24  C18        -1.0560   25.7260   51.5900  C.ar      1 <0>        -0.0743
      25  C19        -0.3040   25.8680   52.7380  C.ar      1 <0>        -0.0852
      26  C20        -0.2510   27.0930   53.3670  C.ar      1 <0>        -0.0938
      27  S1          0.5700   27.7090   54.8160  S.3       1 <0>         0.0696
@<TRIPOS>BOND
     1     1     2 1
     2     2     3 1
     3     3     7 1
     4     3     4 2
     5     4     5 1
     6     5     6 2
     7     5    16 1
     8     6     7 1
     9     7     8 1
    10     8    13 ar
    11     8     9 ar
    12     9    10 ar
    13    10    11 ar
    14    11    12 ar
    15    11    15 1
    16    12    13 ar
    17    13    14 1
    18    16    17 am
    19    17    18 2
    20    17    19 1
    21    19    27 1
    22    19    20 2
    23    20    21 1
    24    21    26 ar
    25    21    22 ar
    26    22    23 ar
    27    23    24 ar
    28    24    25 ar
    29    25    26 ar
    30    26    27 1

@<TRIPOS>MOLECULE
ZINC30882260_replica-1.pdb
 26 27 0 0 0
SMALL
GASTEIGER

@<TRIPOS>ATOM
       1  C1          6.8530   32.7820   59.5640  C.3       1 <0>        -0.1234
       2  C2          7.2400   34.2140   59.2930  C.2       1 <0>        -0.0928
       3  C3          8.0560   34.7890   60.1170  C.2       1 <0>        -0.1814
       4  C4          8.5270   36.2060   59.9810  C.3       1 <0>        -0.0577
       5  C5          8.2700   36.7140   58.5610  C.3       1 <0>        -0.0776
       6  C6          6.8150   36.4000   58.1900  C.3       1 <0>        -0.1057
       7  C7          6.6610   34.8810   58.0810  C.3       1 <0>        -0.0341
       8  C8          7.3930   34.3860   56.8310  C.3       1 <0>        -0.1465
       9  C9          6.7300   34.9540   55.6020  C.2       1 <0>         0.4627
      10  O1          7.2780   35.8260   54.9690  O.co2     1 <0>        -0.6375
      11  O2          5.5320   34.4950   55.2110  O.co2     1 <0>        -0.7771
      12  C10         8.5000   38.2260   58.5050  C.3       1 <0>        -0.0905
      13  C11         8.6550   38.6640   57.0480  C.3       1 <0>        -0.1519
      14  C12         7.3030   38.9470   59.1300  C.3       1 <0>        -0.1495
      15  C13        10.0270   36.2720   60.2790  C.3       1 <0>         0.1303
      16  N1         10.4780   34.9800   60.8020  N.am      1 <0>        -0.7308
      17  C14        11.3520   34.9370   61.8270  C.2       1 <0>         0.5582
      18  O3         11.7650   35.9690   62.3180  O.2       1 <0>        -0.5444
      19  C15        11.8080   33.6360   62.3530  C.ar      1 <0>        -0.1680
      20  C16        10.8990   32.5860   62.5080  C.ar      1 <0>        -0.0445
      21  C17        11.3290   31.3700   62.9940  C.ar      1 <0>        -0.2167
      22  C18        12.6630   31.1920   63.3410  C.ar      1 <0>         0.1493
      23  C19        13.5690   32.2350   63.1940  C.ar      1 <0>        -0.1602
      24  C20        13.1480   33.4510   62.7030  C.ar      1 <0>        -0.0212
      25  O4         13.0820   29.9950   63.8250  O.3       1 <0>        -0.3142
      26  C21        13.0050   29.8050   65.2390  C.3       1 <0>         0.0213
@<TRIPOS>BOND
     1     1     2 1
     2     2     7 1
     3     2     3 2
     4     3     4 1
     5     4     5 1
     6     4    15 1
     7     5     6 1
     8     5    12 1
     9     6     7 1
    10     7     8 1
    11     8     9 1
    12     9    10 2
    13     9    11 1
    14    12    13 1
    15    12    14 1
    16    15    16 1
    17    16    17 am
    18    17    18 2
    19    17    19 1
    20    19    24 ar
    21    19    20 ar
    22    20    21 ar
    23    21    22 ar
    24    22    23 ar
    25    22    25 1
    26    23    24 ar
    27    25    26 1

@<TRIPOS>MOLECULE
ZINC43535233_replica-1.pdb
 20 21 0 0 0
SMALL
GASTEIGER

@<TRIPOS>ATOM
       1  C1         10.8490   36.2700   61.9010  C.3       1 <0>        -0.1511
       2  C2         10.6610   34.8180   61.4560  C.3       1 <0>        -0.0475
       3  C3         10.7280   34.7410   59.9290  C.3       1 <0>        -0.1169
       4  C4          9.3530   34.3600   59.3770  C.3       1 <0>         0.2508
       5  C5          8.8390   33.1890   60.1040  C.1       1 <0>         0.1796
       6  N1          8.4420   32.2850   60.6660  N.1       1 <0>        -0.4075
       7  N2          8.4290   35.4850   59.5470  N.pl3     1 <0>        -0.7301
       8  C6          8.3700   36.4930   58.5830  C.ar      1 <0>         0.2375
       9  C7          8.4760   37.8260   58.9610  C.ar      1 <0>        -0.2059
      10  C8          8.4190   38.8210   58.0050  C.ar      1 <0>        -0.0417
      11  C9          8.2540   38.4930   56.6720  C.ar      1 <0>        -0.2057
      12  C10         8.1460   37.1650   56.2900  C.ar      1 <0>         0.1460
      13  C11         8.2100   36.1650   57.2430  C.ar      1 <0>        -0.2245
      14  F1          7.9850   36.8490   54.9870  F         1 <0>        -0.1373
      15  C12        11.7520   33.9660   62.0500  C.ar      1 <0>        -0.0803
      16  C13        11.4460   32.7370   62.6040  C.ar      1 <0>        -0.1148
      17  C14        12.4470   31.9550   63.1500  C.ar      1 <0>        -0.1179
      18  C15        13.7550   32.4020   63.1420  C.ar      1 <0>        -0.1222
      19  C16        14.0610   33.6300   62.5870  C.ar      1 <0>        -0.1178
      20  C17        13.0610   34.4100   62.0380  C.ar      1 <0>        -0.1155
@<TRIPOS>BOND
     1     1     2 1
     2     2     3 1
     3     2    15 1
     4     3     4 1
     5     4     5 1
     6     4     7 1
     7     5     6 3
     8     7     8 1
     9     8    13 ar
    10     8     9 ar
    11     9    10 ar
    12    10    11 ar
    13    11    12 ar
    14    12    13 ar
    15    12    14 1
    16    15    20 ar
    17    15    16 ar
    18    16    17 ar
    19    17    18 ar
    20    18    19 ar
    21    19    20 ar

@<TRIPOS>MOLECULE
ZINC38551336_replica-1.pdb
 24 26 0 0 0
SMALL
GASTEIGER

@<TRIPOS>ATOM
       1  C1          1.1320   32.0990   60.1670  C.3       1 <0>         0.0875
       2  N1          0.8440   33.5360   60.1890  N.pl3     1 <0>        -0.6355
       3  C2         -0.0350   34.0910   61.2210  C.3       1 <0>         0.0931
       4  C3          1.4090   34.3760   59.2260  C.ar      1 <0>         0.2090
       5  C4          0.6360   34.8340   58.1650  C.ar      1 <0>        -0.1619
       6  C5          1.1890   35.6650   57.2100  C.ar      1 <0>        -0.0743
       7  C6          2.5130   36.0470   57.3030  C.ar      1 <0>        -0.1423
       8  C7          3.2980   35.5920   58.3650  C.ar      1 <0>        -0.0900
       9  C8          2.7370   34.7570   59.3310  C.ar      1 <0>        -0.1305
      10  C9          4.7150   35.9990   58.4660  C.2       1 <0>         0.5659
      11  O1          5.4800   35.7700   57.5500  O.2       1 <0>        -0.4931
      12  N2          5.1590   36.6220   59.5760  N.am      1 <0>        -0.6049
      13  C10         6.4910   37.0040   59.6710  C.2       1 <0>         0.3196
      14  N3          7.5050   36.3630   60.2220  N.2       1 <0>        -0.5311
      15  C11         8.7250   36.8800   60.2230  C.2       1 <0>         0.1126
      16  C12         8.9380   38.0990   59.6420  C.2       1 <0>        -0.2354
      17  S1          7.2880   38.4880   59.0740  S.3       1 <0>         0.1280
      18  C13         9.8500   36.1420   60.8480  C.ar      1 <0>        -0.0026
      19  C14        10.1780   34.8620   60.4050  C.ar      1 <0>        -0.1008
      20  C15        11.2260   34.1800   60.9890  C.ar      1 <0>        -0.0844
      21  C16        11.9510   34.7650   62.0130  C.ar      1 <0>        -0.0963
      22  C17        11.6280   36.0350   62.4580  C.ar      1 <0>        -0.0871
      23  C18        10.5860   36.7280   61.8770  C.ar      1 <0>        -0.0832
      24  I1         13.5390   33.7230   62.8950  I         1 <0>        -0.0421
@<TRIPOS>BOND
     1     1     2 1
     2     2     3 1
     3     2     4 1
     4     4     9 ar
     5     4     5 ar
     6     5     6 ar
     7     6     7 ar
     8     7     8 ar
     9     8     9 ar
    10     8    10 1
    11    10    11 2
    12    10    12 am
    13    12    13 1
    14    13    17 1
    15    13    14 2
    16    14    15 1
    17    15    16 2
    18    15    18 1
    19    16    17 1
    20    18    23 ar
    21    18    19 ar
    22    19    20 ar
    23    20    21 ar
    24    21    22 ar
    25    21    24 1
    26    22    23 ar

@<TRIPOS>MOLECULE
ZINC64442244_replica-1.pdb
 23 23 0 0 0
SMALL
GASTEIGER

@<TRIPOS>ATOM
       1  C1         -0.5910   29.9510   57.9130  C.3       1 <0>        -0.1629
       2  C2         -1.8660   29.2980   57.3750  C.3       1 <0>         0.1750
       3  C3         -2.2140   29.9020   56.0390  C.2       1 <0>         0.4635
       4  O1         -2.4210   31.0890   55.9480  O.2       1 <0>        -0.4916
       5  O2         -2.2930   29.1220   54.9500  O.3       1 <0>        -0.3351
       6  C4         -1.3700   29.3880   53.8930  C.3       1 <0>         0.1323
       7  C5         -0.0610   29.9190   54.4820  C.3       1 <0>        -0.1674
       8  C6         -1.0980   28.1160   53.1310  C.ar      1 <0>        -0.1401
       9  C7         -0.3070   27.1310   53.6920  C.ar      1 <0>        -0.0372
      10  C8         -0.0570   25.9630   52.9950  C.ar      1 <0>        -0.1622
      11  C9         -0.5990   25.7810   51.7340  C.ar      1 <0>         0.1375
      12  C10        -1.3900   26.7670   51.1710  C.ar      1 <0>        -0.1905
      13  C11        -1.6440   27.9320   51.8720  C.ar      1 <0>         0.1440
      14  F1         -2.4220   28.8940   51.3270  F         1 <0>        -0.1251
      15  F2         -0.3540   24.6400   51.0520  F         1 <0>        -0.1272
      16  N1         -1.6490   27.8580   57.2190  N.am      1 <0>        -0.7023
      17  C12        -2.0220   27.0100   58.1980  C.2       1 <0>         0.6599
      18  O3         -2.5380   27.4400   59.2100  O.2       1 <0>        -0.5610
      19  O4         -1.8230   25.6870   58.0550  O.3       1 <0>        -0.3536
      20  C13        -0.4760   25.2170   58.1580  C.3       1 <0>         0.1340
      21  C14         0.2840   26.0710   59.1750  C.3       1 <0>        -0.1870
      22  C15        -0.4780   23.7580   58.6180  C.3       1 <0>        -0.1415
      23  C16         0.2050   25.3210   56.7920  C.3       1 <0>        -0.1866
@<TRIPOS>BOND
     1     1     2 1
     2     2     3 1
     3     2    16 1
     4     3     4 2
     5     3     5 1
     6     5     6 1
     7     6     7 1
     8     6     8 1
     9     8    13 ar
    10     8     9 ar
    11     9    10 ar
    12    10    11 ar
    13    11    12 ar
    14    11    15 1
    15    12    13 ar
    16    13    14 1
    17    16    17 am
    18    17    18 2
    19    17    19 1
    20    19    20 1
    21    20    21 1
    22    20    22 1
    23    20    23 1

@<TRIPOS>MOLECULE
ZINC05867917_replica-1.pdb
 23 24 0 0 0
SMALL
GASTEIGER

@<TRIPOS>ATOM
       1  C1          8.2150   38.3640   59.0620  C.3       1 <0>        -0.1659
       2  C2          8.6260   36.9310   58.8450  C.2       1 <0>         0.1808
       3  N1          8.1640   36.2700   57.8280  N.2       1 <0>        -0.2916
       4  N2          6.9580   36.6590   57.2300  N.pl3     1 <0>        -0.5394
       5  C3          5.8650   35.8790   57.3460  C.2       1 <0>         0.5916
       6  S1          5.4920   34.7390   56.1250  S.2       1 <0>        -0.6216
       7  N3          5.0640   35.9980   58.4240  N.pl3     1 <0>        -0.6595
       8  C4          3.8720   35.1550   58.5470  C.3       1 <0>         0.1386
       9  C5          2.6200   36.0320   58.4940  C.3       1 <0>        -0.1278
      10  C6          1.3750   35.1520   58.6230  C.3       1 <0>        -0.1145
      11  C7          1.4160   34.4030   59.9560  C.3       1 <0>        -0.1238
      12  C8          2.6690   33.5260   60.0100  C.3       1 <0>        -0.1141
      13  C9          3.9140   34.4060   59.8810  C.3       1 <0>        -0.1270
      14  C10         9.5550   36.2790   59.7860  C.ar      1 <0>        -0.0655
      15  C11        10.0490   35.0010   59.5150  C.ar      1 <0>        -0.0826
      16  C12        10.9210   34.4000   60.3960  C.ar      1 <0>        -0.1247
      17  C13        11.2990   35.0540   61.5560  C.ar      1 <0>        -0.0445
      18  C14        10.8100   36.3180   61.8350  C.ar      1 <0>        -0.1209
      19  C15         9.9400   36.9340   60.9590  C.ar      1 <0>        -0.0720
      20  C16        12.2480   34.3890   62.5180  C.3       1 <0>        -0.0344
      21  C17        11.7070   33.0080   62.8950  C.3       1 <0>        -0.1403
      22  C18        13.6190   34.2350   61.8570  C.3       1 <0>        -0.1470
      23  C19        12.3830   35.2460   63.7780  C.3       1 <0>        -0.1403
@<TRIPOS>BOND
     1     1     2 1
     2     2     3 2
     3     2    14 1
     4     3     4 1
     5     4     5 1
     6     5     6 2
     7     5     7 1
     8     7     8 1
     9     8    13 1
    10     8     9 1
    11     9    10 1
    12    10    11 1
    13    11    12 1
    14    12    13 1
    15    14    19 ar
    16    14    15 ar
    17    15    16 ar
    18    16    17 ar
    19    17    18 ar
    20    17    20 1
    21    18    19 ar
    22    20    21 1
    23    20    22 1
    24    20    23 1

@<TRIPOS>MOLECULE
ZINC54752779_replica-1.pdb
 25 28 0 0 0
SMALL
GASTEIGER

@<TRIPOS>ATOM
       1  C1         -2.0720   27.8720   50.7610  C.3       1 <0>        -0.1071
       2  C2         -1.2690   27.3550   51.9260  C.ar      1 <0>         0.1358
       3  C3         -0.7890   26.0550   51.9010  C.ar      1 <0>        -0.1381
       4  C4         -0.0500   25.5830   52.9750  C.ar      1 <0>        -0.0739
       5  C5          0.1850   26.4340   54.0420  C.ar      1 <0>        -0.0969
       6  C6         -0.3280   27.7300   54.0000  C.ar      1 <0>         0.1328
       7  N1         -1.0270   28.1450   52.9500  N.ar      1 <0>        -0.4738
       8  C7         -0.0870   28.6520   55.1320  C.2       1 <0>         0.5018
       9  N2          0.3360   29.8710   54.8880  N.2       1 <0>        -0.5675
      10  C8          0.5740   30.7550   55.8630  C.2       1 <0>         0.5436
      11  O1          0.9670   31.8800   55.5950  O.2       1 <0>        -0.4729
      12  C9          0.3570   30.3560   57.2710  C.2       1 <0>        -0.2312
      13  C10         0.5410   31.1270   58.4950  C.2       1 <0>        -0.0210
      14  C11         0.2730   30.5360   59.6830  C.2       1 <0>        -0.1407
      15  S1         -0.2480   28.8960   59.2170  S.3       1 <0>         0.1399
      16  C12        -0.0940   29.0450   57.4580  C.2       1 <0>         0.0791
      17  N3         -0.3140   28.2180   56.4030  N.pl3     1 <0>        -0.5608
      18  C13         0.3880   31.1230   61.0670  C.3       1 <0>        -0.0697
      19  C14         1.0160   32.5300   58.4380  C.ar      1 <0>        -0.0410
      20  C15         0.1020   33.5730   58.2890  C.ar      1 <0>        -0.0451
      21  C16         0.5500   34.8770   58.2370  C.ar      1 <0>        -0.1505
      22  C17         1.9040   35.1510   58.3310  C.ar      1 <0>         0.1039
      23  C18         2.8160   34.1190   58.4790  C.ar      1 <0>        -0.1551
      24  C19         2.3780   32.8120   58.5380  C.ar      1 <0>        -0.0721
      25  F1          2.3380   36.4300   58.2780  F         1 <0>        -0.1397
@<TRIPOS>BOND
     1     1     2 1
     2     2     7 ar
     3     2     3 ar
     4     3     4 ar
     5     4     5 ar
     6     5     6 ar
     7     6     7 ar
     8     6     8 1
     9     8    17 1
    10     8     9 2
    11     9    10 1
    12    10    11 2
    13    10    12 1
    14    12    16 2
    15    12    13 1
    16    13    14 2
    17    13    19 1
    18    14    15 1
    19    14    18 1
    20    15    16 1
    21    16    17 1
    22    19    24 ar
    23    19    20 ar
    24    20    21 ar
    25    21    22 ar
    26    22    23 ar
    27    22    25 1
    28    23    24 ar

@<TRIPOS>MOLECULE
ZINC00257192_replica-1.pdb
 24 26 0 0 0
SMALL
GASTEIGER

@<TRIPOS>ATOM
       1  C1          7.0410   36.1180   55.1000  C.ar      1 <0>        -0.1150
       2  C2          8.2540   36.3500   55.7190  C.ar      1 <0>        -0.1225
       3  C3          8.3110   36.5070   57.0920  C.ar      1 <0>        -0.0949
       4  C4          7.1540   36.4320   57.8440  C.ar      1 <0>        -0.1093
       5  C5          5.9410   36.1940   57.2240  C.ar      1 <0>        -0.1078
       6  C6          5.8840   36.0420   55.8520  C.ar      1 <0>        -0.1235
       7  C7          7.2150   36.6030   59.3400  C.3       1 <0>         0.1541
       8  N1          8.0480   35.5460   59.9190  N.am      1 <0>        -0.6007
       9  C8          7.4900   34.2090   60.1350  C.3       1 <0>         0.1900
      10  C9          7.5050   33.4430   58.8370  C.2       1 <0>        -0.0424
      11  C10         6.4440   32.8450   58.2650  C.2       1 <0>        -0.1892
      12  C11         6.9070   32.2490   57.0690  C.2       1 <0>        -0.2145
      13  C12         8.2220   32.5190   56.9810  C.2       1 <0>        -0.0315
      14  O1          8.5770   33.2480   58.0520  O.3       1 <0>        -0.1717
      15  C13         9.3300   35.8020   60.2480  C.2       1 <0>         0.5558
      16  O2          9.7940   36.9130   60.0690  O.2       1 <0>        -0.5335
      17  C14        10.1640   34.7440   60.8200  C.2       1 <0>        -0.2213
      18  C15        11.2240   35.0630   61.5900  C.2       1 <0>        -0.0097
      19  C16        12.0630   33.9990   62.1660  C.ar      1 <0>        -0.0796
      20  C17        11.4800   32.8060   62.6060  C.ar      1 <0>        -0.1011
      21  C18        12.2730   31.8120   63.1400  C.ar      1 <0>        -0.1217
      22  C19        13.6400   31.9970   63.2510  C.ar      1 <0>        -0.1064
      23  C20        14.2230   33.1780   62.8220  C.ar      1 <0>        -0.1217
      24  C21        13.4450   34.1780   62.2820  C.ar      1 <0>        -0.0929
@<TRIPOS>BOND
     1     1     6 ar
     2     1     2 ar
     3     2     3 ar
     4     3     4 ar
     5     4     5 ar
     6     4     7 1
     7     5     6 ar
     8     7     8 1
     9     8     9 1
    10     8    15 am
    11     9    10 1
    12    10    14 1
    13    10    11 2
    14    11    12 1
    15    12    13 2
    16    13    14 1
    17    15    16 2
    18    15    17 1
    19    17    18 2
    20    18    19 1
    21    19    24 ar
    22    19    20 ar
    23    20    21 ar
    24    21    22 ar
    25    22    23 ar
    26    23    24 ar

@<TRIPOS>MOLECULE
ZINC06678041_replica-1.pdb
 28 32 0 0 0
SMALL
GASTEIGER

@<TRIPOS>ATOM
       1  C1          1.1320   34.9080   59.4720  C.3       1 <0>         0.0262
       2  O1          2.0470   34.1900   60.3030  O.3       1 <0>        -0.3164
       3  C2          3.3370   34.1180   59.8830  C.ar      1 <0>         0.1371
       4  C3          4.2650   33.3880   60.6120  C.ar      1 <0>        -0.1542
       5  C4          5.5760   33.3180   60.1820  C.ar      1 <0>        -0.0498
       6  C5          5.9640   33.9720   59.0280  C.ar      1 <0>        -0.1581
       7  C6          5.0420   34.7060   58.3030  C.ar      1 <0>        -0.0492
       8  C7          3.7290   34.7750   58.7260  C.ar      1 <0>        -0.2109
       9  C8          7.3950   33.8930   58.5620  C.3       1 <0>         0.4818
      10  N1          7.6360   34.8750   57.4910  N.pl3     1 <0>        -0.7555
      11  C9          7.9670   36.1990   57.8020  C.ar      1 <0>         0.2310
      12  C10         7.9640   37.1340   56.7680  C.ar      1 <0>        -0.1900
      13  C11         8.3230   38.4430   57.0120  C.ar      1 <0>        -0.0738
      14  C12         8.6870   38.8350   58.2870  C.ar      1 <0>        -0.1690
      15  C13         8.6840   37.9160   59.3180  C.ar      1 <0>        -0.0711
      16  C14         8.3200   36.6030   59.0820  C.ar      1 <0>        -0.1608
      17  C15         8.3090   35.6250   60.2270  C.3       1 <0>         0.1643
      18  N2          8.3080   34.2640   59.6530  N.pl3     1 <0>        -0.5374
      19  N3          9.3030   33.5170   60.2610  N.2       1 <0>        -0.1976
      20  C16        10.0770   34.2150   61.0260  C.2       1 <0>         0.0769
      21  C17         9.6160   35.6780   61.0320  C.3       1 <0>        -0.1117
      22  C18        11.2320   33.6860   61.7760  C.ar      1 <0>        -0.0243
      23  C19        12.4200   34.4180   61.8410  C.ar      1 <0>        -0.0691
      24  C20        13.4950   33.9220   62.5470  C.ar      1 <0>        -0.1518
      25  C21        13.4020   32.6940   63.1830  C.ar      1 <0>         0.1057
      26  C22        12.2280   31.9600   63.1180  C.ar      1 <0>        -0.1529
      27  C23        11.1440   32.4490   62.4190  C.ar      1 <0>        -0.0623
      28  F1         14.4600   32.2100   63.8700  F         1 <0>        -0.1374
@<TRIPOS>BOND
     1     1     2 1
     2     2     3 1
     3     3     8 ar
     4     3     4 ar
     5     4     5 ar
     6     5     6 ar
     7     6     7 ar
     8     6     9 1
     9     7     8 ar
    10     9    18 1
    11     9    10 1
    12    10    11 1
    13    11    16 ar
    14    11    12 ar
    15    12    13 ar
    16    13    14 ar
    17    14    15 ar
    18    15    16 ar
    19    16    17 1
    20    17    21 1
    21    17    18 1
    22    18    19 1
    23    19    20 2
    24    20    21 1
    25    20    22 1
    26    22    27 ar
    27    22    23 ar
    28    23    24 ar
    29    24    25 ar
    30    25    26 ar
    31    25    28 1
    32    26    27 ar

@<TRIPOS>MOLECULE
ZINC04072116_replica-1.pdb
 26 29 0 0 0
SMALL
GASTEIGER

@<TRIPOS>ATOM
       1  C1          5.7840   37.2430   59.7940  C.3       1 <0>        -0.1178
       2  C2          5.2330   35.8420   59.8720  C.ar      1 <0>        -0.0829
       3  C3          5.6600   34.9870   60.8720  C.ar      1 <0>        -0.0993
       4  C4          5.1590   33.7000   60.9490  C.ar      1 <0>        -0.1121
       5  C5          4.2300   33.2610   60.0280  C.ar      1 <0>        -0.0986
       6  C6          3.7940   34.1190   59.0170  C.ar      1 <0>        -0.0093
       7  C7          4.3080   35.4150   58.9410  C.ar      1 <0>        -0.0715
       8  C8          2.8000   33.6560   58.0260  C.2       1 <0>         0.0841
       9  N1          1.6460   34.1990   57.6600  N.2       1 <0>        -0.2357
      10  N2          0.9300   33.6440   56.7800  N.2       1 <0>        -0.2842
      11  C9          1.2870   32.5110   56.1990  C.2       1 <0>         0.2608
      12  S1          2.8110   32.2050   56.9800  S.3       1 <0>         0.0433
      13  N3          0.6290   31.7700   55.2260  N.am      1 <0>        -0.6149
      14  C10        -0.4780   31.0710   55.5460  C.2       1 <0>         0.5051
      15  O1         -0.9000   31.0910   56.6820  O.2       1 <0>        -0.4465
      16  C11        -1.1930   30.2660   54.4900  C.3       1 <0>        -0.0937
      17  C12        -0.6370   28.8650   54.4660  C.ar      1 <0>        -0.0673
      18  C13         0.0770   28.3940   55.5240  C.ar      1 <0>        -0.0945
      19  C14         0.6030   27.1050   55.5180  C.ar      1 <0>        -0.1166
      20  C15         0.4070   26.2720   54.4590  C.ar      1 <0>        -0.0975
      21  C16        -0.3310   26.7210   53.3510  C.ar      1 <0>        -0.0523
      22  C17        -0.8610   28.0350   53.3550  C.ar      1 <0>        -0.0311
      23  C18        -1.6000   28.4840   52.2460  C.ar      1 <0>        -0.1114
      24  C19        -1.7970   27.6530   51.1870  C.ar      1 <0>        -0.1098
      25  C20        -1.2750   26.3590   51.1830  C.ar      1 <0>        -0.1180
      26  C21        -0.5550   25.8910   52.2390  C.ar      1 <0>        -0.1018
@<TRIPOS>BOND
     1     1     2 1
     2     2     7 ar
     3     2     3 ar
     4     3     4 ar
     5     4     5 ar
     6     5     6 ar
     7     6     7 ar
     8     6     8 1
     9     8    12 1
    10     8     9 2
    11     9    10 1
    12    10    11 2
    13    11    12 1
    14    11    13 1
    15    13    14 am
    16    14    15 2
    17    14    16 1
    18    16    17 1
    19    17    22 ar
    20    17    18 ar
    21    18    19 ar
    22    19    20 ar
    23    20    21 ar
    24    21    26 ar
    25    21    22 ar
    26    22    23 ar
    27    23    24 ar
    28    24    25 ar
    29    25    26 ar

@<TRIPOS>MOLECULE
ZINC01030057_replica-1.pdb
 28 31 0 0 0
SMALL
GASTEIGER

@<TRIPOS>ATOM
       1  C1          9.2750   34.7000   58.3130  C.ar      1 <0>        -0.0193
       2  C2          8.5520   34.9170   57.1640  C.ar      1 <0>        -0.1426
       3  C3          8.1640   36.2080   56.8070  C.ar      1 <0>         0.1452
       4  C4          8.5050   37.2710   57.6370  C.ar      1 <0>        -0.1796
       5  C5          9.2230   37.0650   58.7890  C.ar      1 <0>        -0.0225
       6  C6          9.6160   35.7710   59.1420  C.ar      1 <0>        -0.0734
       7  C7         10.3890   35.5390   60.3780  C.2       1 <0>         0.2524
       8  N1         11.0740   34.4520   60.6860  N.2       1 <0>        -0.4698
       9  C8         11.6090   34.6940   61.9010  C.2       1 <0>         0.2133
      10  N2         11.2250   35.8910   62.2640  N.2       1 <0>        -0.3665
      11  O1         10.5320   36.3920   61.4050  O.3       1 <0>         0.0940
      12  C9         12.4690   33.7710   62.6820  C.ar      1 <0>        -0.0171
      13  C10        13.6680   34.2240   63.2270  C.ar      1 <0>        -0.0042
      14  C11        14.4640   33.3620   63.9520  C.ar      1 <0>        -0.1840
      15  C12        14.0730   32.0480   64.1390  C.ar      1 <0>        -0.0028
      16  C13        12.8840   31.5920   63.6000  C.ar      1 <0>        -0.1850
      17  C14        12.0830   32.4450   62.8680  C.ar      1 <0>         0.0046
      18  C15        12.4650   30.1590   63.8060  C.3       1 <0>         0.5151
      19  F1         13.0250   29.3600   62.8040  F         1 <0>        -0.1689
      20  F2         11.0690   30.0690   63.7490  F         1 <0>        -0.1704
      21  F3         12.9110   29.7180   65.0570  F         1 <0>        -0.1693
      22  C16        15.7620   33.8510   64.5430  C.3       1 <0>         0.5148
      23  F4         16.6610   34.1470   63.5130  F         1 <0>        -0.1689
      24  F5         15.5240   35.0040   65.3000  F         1 <0>        -0.1700
      25  F6         16.3040   32.8580   65.3650  F         1 <0>        -0.1699
      26  C17         7.9380   38.5290   57.0050  C.3       1 <0>        -0.1106
      27  C18         6.9330   37.9460   55.9830  C.3       1 <0>         0.0491
      28  O2          7.4690   36.6380   55.7180  O.3       1 <0>        -0.2971
@<TRIPOS>BOND
     1     1     6 ar
     2     1     2 ar
     3     2     3 ar
     4     3    28 1
     5     3     4 ar
     6     4     5 ar
     7     4    26 1
     8     5     6 ar
     9     6     7 1
    10     7    11 1
    11     7     8 2
    12     8     9 1
    13     9    10 2
    14     9    12 1
    15    10    11 1
    16    12    17 ar
    17    12    13 ar
    18    13    14 ar
    19    14    15 ar
    20    14    22 1
    21    15    16 ar
    22    16    17 ar
    23    16    18 1
    24    18    19 1
    25    18    20 1
    26    18    21 1
    27    22    23 1
    28    22    24 1
    29    22    25 1
    30    26    27 1
    31    27    28 1

@<TRIPOS>MOLECULE
ZINC41588754_replica-1.pdb
 30 34 0 0 0
SMALL
GASTEIGER

@<TRIPOS>ATOM
       1  C1          0.5010   28.1350   56.9920  C.3       1 <0>        -0.1038
       2  C2          0.0370   29.2590   56.1020  C.2       1 <0>        -0.0669
       3  C3         -0.4340   29.0390   54.8310  C.2       1 <0>        -0.1800
       4  C4         -0.8360   30.0970   54.0840  C.2       1 <0>        -0.2397
       5  S1         -0.5890   31.4270   55.0810  S.3       1 <0>         0.2428
       6  C5          0.0530   30.5880   56.5160  C.2       1 <0>        -0.2103
       7  C6          0.4690   31.1310   57.7530  C.2       1 <0>         0.0497
       8  C7          1.4950   32.0290   57.7920  C.2       1 <0>        -0.0610
       9  C8          2.0150   32.6440   58.9630  C.2       1 <0>         0.4177
      10  O1          1.6430   32.4810   60.1130  O.2       1 <0>        -0.4300
      11  C9          3.1000   33.5200   58.4890  C.ar      1 <0>        -0.2897
      12  C10         3.9880   34.3840   59.1290  C.ar      1 <0>         0.0260
      13  C11         4.9110   35.0820   58.3990  C.ar      1 <0>        -0.1911
      14  C12         4.9660   34.9340   57.0170  C.ar      1 <0>         0.2077
      15  C13         4.0860   34.0790   56.3670  C.ar      1 <0>        -0.1324
      16  C14         3.1450   33.3640   57.0940  C.ar      1 <0>         0.1713
      17  O2          2.1930   32.4810   56.7240  O.3       1 <0>        -0.2051
      18  C15         4.1530   33.9280   54.8690  C.3       1 <0>        -0.1009
      19  O3          5.8830   35.6160   56.2820  O.3       1 <0>        -0.2905
      20  C16         6.5170   36.7350   56.9070  C.3       1 <0>         0.2218
      21  N1          6.9980   36.3210   58.2360  N.3       1 <0>        -0.5499
      22  C17         5.8600   36.0120   59.1130  C.3       1 <0>         0.0991
      23  C18         7.8550   37.3550   58.8310  C.3       1 <0>         0.1282
      24  C19         8.5050   38.1800   57.7180  C.3       1 <0>        -0.1458
      25  C20         8.9270   36.7000   59.6630  C.ar      1 <0>        -0.0891
      26  C21         9.3060   37.2620   60.8680  C.ar      1 <0>        -0.0920
      27  C22        10.2900   36.6620   61.6310  C.ar      1 <0>        -0.1223
      28  C23        10.8940   35.4990   61.1900  C.ar      1 <0>        -0.1159
      29  C24        10.5130   34.9370   59.9860  C.ar      1 <0>        -0.1205
      30  C25         9.5270   35.5340   59.2250  C.ar      1 <0>        -0.1131
@<TRIPOS>BOND
     1     1     2 1
     2     2     6 2
     3     2     3 1
     4     3     4 2
     5     4     5 1
     6     5     6 1
     7     6     7 1
     8     7     8 2
     9     8    17 1
    10     8     9 1
    11     9    10 2
    12     9    11 1
    13    11    16 ar
    14    11    12 ar
    15    12    13 ar
    16    13    22 1
    17    13    14 ar
    18    14    15 ar
    19    14    19 1
    20    15    16 ar
    21    15    18 1
    22    16    17 1
    23    19    20 1
    24    20    21 1
    25    21    22 1
    26    21    23 1
    27    23    24 1
    28    23    25 1
    29    25    30 ar
    30    25    26 ar
    31    26    27 ar
    32    27    28 ar
    33    28    29 ar
    34    29    30 ar

@<TRIPOS>MOLECULE
ZINC30398415_replica-1.pdb
 27 29 0 0 0
SMALL
GASTEIGER

@<TRIPOS>ATOM
       1  C1          0.5800   35.4680   57.0680  C.3       1 <0>        -0.1651
       2  C2          1.5440   34.3640   57.5070  C.3       1 <0>         0.1588
       3  C3          1.9030   33.4920   56.3030  C.3       1 <0>        -0.1531
       4  C4          1.5560   32.0560   56.6010  C.2       1 <0>         0.5091
       5  O1          2.2660   31.4000   57.3340  O.2       1 <0>        -0.5218
       6  N1          0.4570   31.5000   56.0540  N.am      1 <0>        -0.7278
       7  C5          0.1190   30.1040   56.3430  C.3       1 <0>         0.1836
       8  C6         -0.9950   30.0560   57.3900  C.3       1 <0>        -0.1577
       9  C7         -0.3470   29.4280   55.0800  C.ar      1 <0>        -0.0910
      10  C8         -1.1830   30.1150   54.2020  C.ar      1 <0>        -0.1127
      11  C9         -1.6230   29.5340   53.0530  C.ar      1 <0>        -0.0983
      12  C10        -1.2310   28.2190   52.7450  C.ar      1 <0>        -0.0521
      13  C11        -1.6640   27.5850   51.5680  C.ar      1 <0>        -0.1070
      14  C12        -1.2630   26.3120   51.3030  C.ar      1 <0>        -0.1141
      15  C13        -0.4290   25.6240   52.1810  C.ar      1 <0>        -0.1140
      16  C14         0.0110   26.2060   53.3310  C.ar      1 <0>        -0.1059
      17  C15        -0.3810   27.5200   53.6380  C.ar      1 <0>        -0.0484
      18  C16         0.0580   28.1560   54.8130  C.ar      1 <0>        -0.0907
      19  N2          0.9060   33.5390   58.5360  N.am      1 <0>        -0.7128
      20  C17         1.3780   33.5500   59.7980  C.2       1 <0>         0.5664
      21  O2          2.3340   34.2450   60.0830  O.2       1 <0>        -0.5348
      22  C18         0.7340   32.7160   60.8360  C.ar      1 <0>        -0.1327
      23  C19         0.2760   33.2990   62.0180  C.ar      1 <0>        -0.0863
      24  C20        -0.3250   32.5150   62.9820  C.ar      1 <0>        -0.1282
      25  C21        -0.4720   31.1550   62.7790  C.ar      1 <0>        -0.0950
      26  C22        -0.0190   30.5710   61.6090  C.ar      1 <0>        -0.1271
      27  C23         0.5780   31.3440   60.6340  C.ar      1 <0>        -0.0605
@<TRIPOS>BOND
     1     1     2 1
     2     2     3 1
     3     2    19 1
     4     3     4 1
     5     4     5 2
     6     4     6 am
     7     6     7 1
     8     7     8 1
     9     7     9 1
    10     9    18 ar
    11     9    10 ar
    12    10    11 ar
    13    11    12 ar
    14    12    17 ar
    15    12    13 ar
    16    13    14 ar
    17    14    15 ar
    18    15    16 ar
    19    16    17 ar
    20    17    18 ar
    21    19    20 am
    22    20    21 2
    23    20    22 1
    24    22    27 ar
    25    22    23 ar
    26    23    24 ar
    27    24    25 ar
    28    25    26 ar
    29    26    27 ar

@<TRIPOS>MOLECULE
ZINC00105816_replica-1.pdb
 20 22 0 0 0
SMALL
GASTEIGER

@<TRIPOS>ATOM
       1  C1         -2.9440   28.9250   55.8990  C.3       1 <0>        -0.0596
       2  C2         -1.7070   29.7560   55.6770  C.2       1 <0>        -0.1923
       3  C3         -0.7330   29.6300   54.7260  C.2       1 <0>         0.1200
       4  N1          0.2800   30.4920   54.7150  N.2       1 <0>        -0.5411
       5  C4          0.3650   31.4590   55.6110  C.2       1 <0>         0.3540
       6  S1         -1.1090   31.1770   56.5820  S.3       1 <0>         0.0218
       7  N2          1.3370   32.4360   55.7570  N.pl3     1 <0>        -0.6084
       8  C5          1.5270   33.0540   56.9980  C.ar      1 <0>         0.1362
       9  C6          2.1480   32.3650   58.0310  C.ar      1 <0>        -0.1411
      10  C7          2.3340   32.9770   59.2550  C.ar      1 <0>        -0.0865
      11  C8          1.9030   34.2760   59.4530  C.ar      1 <0>        -0.1115
      12  C9          1.2830   34.9670   58.4280  C.ar      1 <0>        -0.1173
      13  C10         1.0980   34.3620   57.1990  C.ar      1 <0>         0.0686
      14  F1          0.4970   35.0380   56.1960  F         1 <0>        -0.1337
      15  C11        -0.8090   28.5490   53.7150  C.ar      1 <0>        -0.0208
      16  C12        -0.1670   27.3320   53.9420  C.ar      1 <0>        -0.0868
      17  C13        -0.2440   26.3270   53.0000  C.ar      1 <0>        -0.1218
      18  C14        -0.9460   26.5290   51.8250  C.ar      1 <0>        -0.1135
      19  C15        -1.5810   27.7360   51.5920  C.ar      1 <0>        -0.1203
      20  C16        -1.5140   28.7460   52.5300  C.ar      1 <0>        -0.1035
@<TRIPOS>BOND
     1     1     2 1
     2     2     6 1
     3     2     3 2
     4     3     4 1
     5     3    15 1
     6     4     5 2
     7     5     6 1
     8     5     7 1
     9     7     8 1
    10     8    13 ar
    11     8     9 ar
    12     9    10 ar
    13    10    11 ar
    14    11    12 ar
    15    12    13 ar
    16    13    14 1
    17    15    20 ar
    18    15    16 ar
    19    16    17 ar
    20    17    18 ar
    21    18    19 ar
    22    19    20 ar

@<TRIPOS>MOLECULE
ZINC04184913_replica-1.pdb
 28 32 0 0 0
SMALL
GASTEIGER

@<TRIPOS>ATOM
       1  C1         11.4530   31.7810   63.2210  C.3       1 <0>        -0.1078
       2  C2         10.8200   32.7360   62.2430  C.ar      1 <0>         0.1540
       3  C3         10.0320   32.2280   61.2120  C.ar      1 <0>        -0.1619
       4  C4          9.4500   33.0800   60.3170  C.ar      1 <0>        -0.0586
       5  C5          9.6710   34.4620   60.4740  C.ar      1 <0>        -0.0684
       6  C6         10.4840   34.9110   61.5440  C.ar      1 <0>         0.1159
       7  N1         11.0250   34.0230   62.3860  N.ar      1 <0>        -0.4705
       8  C7         10.7110   36.2890   61.7040  C.ar      1 <0>        -0.0625
       9  C8         10.1510   37.1740   60.8380  C.ar      1 <0>        -0.1245
      10  C9          9.3430   36.7370   59.7800  C.ar      1 <0>         0.1565
      11  C10         9.0990   35.3950   59.5930  C.ar      1 <0>        -0.0879
      12  C11         8.2310   34.9240   58.4620  C.3       1 <0>         0.0725
      13  C12         8.0740   35.9870   57.4050  C.2       1 <0>        -0.2959
      14  C13         8.3490   37.2830   57.6680  C.2       1 <0>         0.2340
      15  N2          8.7850   37.6670   58.9040  N.pl3     1 <0>        -0.6444
      16  C14         8.1890   38.3450   56.6080  C.3       1 <0>        -0.0983
      17  C15         7.0710   37.9440   55.6430  C.3       1 <0>        -0.1120
      18  C16         7.4240   36.5860   55.0280  C.3       1 <0>        -0.1599
      19  C17         7.6260   35.5870   56.1340  C.2       1 <0>         0.4028
      20  O1          7.3990   34.4120   55.9250  O.2       1 <0>        -0.4738
      21  C18         6.8710   34.5660   59.0040  C.ar      1 <0>        -0.1010
      22  C19         6.0910   35.5350   59.6090  C.ar      1 <0>        -0.0657
      23  C20         4.8430   35.2100   60.1020  C.ar      1 <0>        -0.2082
      24  C21         4.3750   33.9080   60.0010  C.ar      1 <0>         0.1244
      25  C22         5.1610   32.9370   59.3990  C.ar      1 <0>        -0.1488
      26  C23         6.4070   33.2680   58.9030  C.ar      1 <0>        -0.0655
      27  O2          3.1490   33.5850   60.4890  O.3       1 <0>        -0.3181
      28  C24         2.0210   34.2170   59.8800  C.3       1 <0>         0.0278
@<TRIPOS>BOND
     1     1     2 1
     2     2     7 ar
     3     2     3 ar
     4     3     4 ar
     5     4     5 ar
     6     5    11 ar
     7     5     6 ar
     8     6     7 ar
     9     6     8 ar
    10     8     9 ar
    11     9    10 ar
    12    10    15 1
    13    10    11 ar
    14    11    12 1
    15    12    13 1
    16    12    21 1
    17    13    19 1
    18    13    14 2
    19    14    15 1
    20    14    16 1
    21    16    17 1
    22    17    18 1
    23    18    19 1
    24    19    20 2
    25    21    26 ar
    26    21    22 ar
    27    22    23 ar
    28    23    24 ar
    29    24    25 ar
    30    24    27 1
    31    25    26 ar
    32    27    28 1

@<TRIPOS>MOLECULE
ZINC11825268_replica-1.pdb
 23 25 0 0 0
SMALL
GASTEIGER

@<TRIPOS>ATOM
       1  C1         10.2770   36.0650   61.3170  C.ar      1 <0>        -0.1309
       2  C2         10.4560   34.9410   60.5140  C.ar      1 <0>        -0.1062
       3  C3          9.9860   34.9090   59.2380  C.ar      1 <0>        -0.1155
       4  C4          9.3180   36.0290   58.7140  C.ar      1 <0>        -0.0116
       5  C5          8.8260   36.0340   57.3990  C.ar      1 <0>        -0.1545
       6  C6          8.1820   37.1410   56.9240  C.ar      1 <0>         0.1403
       7  C7          8.0080   38.2710   57.7290  C.ar      1 <0>        -0.1901
       8  C8          8.4740   38.2970   59.0060  C.ar      1 <0>        -0.0658
       9  C9          9.1410   37.1760   59.5290  C.ar      1 <0>        -0.0861
      10  C10         9.6360   37.1700   60.8440  C.ar      1 <0>        -0.0940
      11  O1          7.7050   37.1450   55.6510  O.3       1 <0>        -0.2984
      12  C11         6.8060   36.0940   55.2920  C.3       1 <0>         0.0678
      13  C12         5.4390   36.3530   55.9280  C.3       1 <0>         0.0326
      14  O2          5.0270   35.1960   56.6590  O.3       1 <0>        -0.2216
      15  C13         5.4220   35.1120   57.9550  C.ar      1 <0>         0.2006
      16  C14         5.1910   36.1690   58.8220  C.ar      1 <0>        -0.2219
      17  C15         5.5880   36.0810   60.1420  C.ar      1 <0>        -0.0371
      18  C16         6.2300   34.9440   60.6060  C.ar      1 <0>        -0.1685
      19  C17         6.4730   33.8870   59.7570  C.ar      1 <0>        -0.0463
      20  C18         6.0710   33.9600   58.4200  C.ar      1 <0>        -0.1572
      21  C19         6.3270   32.8340   57.5060  C.2       1 <0>         0.3806
      22  S1          7.9360   32.4060   57.1040  S.2       1 <0>        -0.4997
      23  N1          5.2960   32.1390   56.9860  N.pl3     1 <0>        -0.7754
@<TRIPOS>BOND
     1     1    10 ar
     2     1     2 ar
     3     2     3 ar
     4     3     4 ar
     5     4     9 ar
     6     4     5 ar
     7     5     6 ar
     8     6     7 ar
     9     6    11 1
    10     7     8 ar
    11     8     9 ar
    12     9    10 ar
    13    11    12 1
    14    12    13 1
    15    13    14 1
    16    14    15 1
    17    15    20 ar
    18    15    16 ar
    19    16    17 ar
    20    17    18 ar
    21    18    19 ar
    22    19    20 ar
    23    20    21 1
    24    21    22 2
    25    21    23 1

@<TRIPOS>MOLECULE
ZINC06057591_replica-1.pdb
 27 29 0 0 0
SMALL
GASTEIGER

@<TRIPOS>ATOM
       1  C1          9.1180   37.1810   60.0490  C.3       1 <0>        -0.1161
       2  C2          8.6350   37.2280   58.6220  C.ar      1 <0>        -0.0593
       3  C3          8.4510   38.4460   57.9950  C.ar      1 <0>        -0.1376
       4  C4          8.0120   38.4940   56.6850  C.ar      1 <0>        -0.0862
       5  C5          7.7510   37.3240   55.9990  C.ar      1 <0>        -0.1394
       6  C6          7.9310   36.0980   56.6270  C.ar      1 <0>         0.1598
       7  C7          8.3720   36.0540   57.9440  C.ar      1 <0>        -0.1495
       8  N1          7.6680   34.9120   55.9370  N.pl3     1 <0>        -0.6049
       9  C8          6.4140   34.3180   56.0280  C.2       1 <0>         0.3347
      10  N2          5.3970   34.3820   55.1910  N.2       1 <0>        -0.3524
      11  N3          4.2330   33.7050   55.4760  N.2       1 <0>        -0.2808
      12  C9          4.1370   33.0040   56.5900  C.2       1 <0>         0.0283
      13  S1          5.7490   33.2710   57.3120  S.3       1 <0>         0.0212
      14  S2          2.7820   32.0590   57.2020  S.3       1 <0>         0.1312
      15  C10         1.3860   32.5710   56.1620  C.3       1 <0>        -0.1608
      16  C11         0.4500   31.4050   55.9690  C.2       1 <0>         0.5361
      17  O1         -0.6030   31.3670   56.5680  O.2       1 <0>        -0.5199
      18  N4          0.7860   30.4040   55.1310  N.am      1 <0>        -0.7210
      19  C12        -0.1230   29.2700   54.9440  C.3       1 <0>         0.1274
      20  C13        -0.8520   29.4160   53.6060  C.3       1 <0>        -0.0624
      21  C14        -2.2800   29.9090   53.8550  C.3       1 <0>        -0.1474
      22  C15        -0.8960   28.0810   52.9100  C.ar      1 <0>        -0.0800
      23  C16        -1.6080   27.9370   51.7340  C.ar      1 <0>        -0.1123
      24  C17        -1.6450   26.7140   51.0930  C.ar      1 <0>        -0.1171
      25  C18        -0.9760   25.6300   51.6320  C.ar      1 <0>        -0.1200
      26  C19        -0.2680   25.7720   52.8110  C.ar      1 <0>        -0.1180
      27  C20        -0.2290   26.9970   53.4500  C.ar      1 <0>        -0.1133
@<TRIPOS>BOND
     1     1     2 1
     2     2     7 ar
     3     2     3 ar
     4     3     4 ar
     5     4     5 ar
     6     5     6 ar
     7     6     7 ar
     8     6     8 1
     9     8     9 1
    10     9    13 1
    11     9    10 2
    12    10    11 1
    13    11    12 2
    14    12    13 1
    15    12    14 1
    16    14    15 1
    17    15    16 1
    18    16    17 2
    19    16    18 am
    20    18    19 1
    21    19    20 1
    22    20    21 1
    23    20    22 1
    24    22    27 ar
    25    22    23 ar
    26    23    24 ar
    27    24    25 ar
    28    25    26 ar
    29    26    27 ar

@<TRIPOS>MOLECULE
ZINC56446037_replica-1.pdb
 25 26 0 0 0
SMALL
GASTEIGER

@<TRIPOS>ATOM
       1  C1          6.5860   35.1480   56.9770  C.3       1 <0>        -0.1649
       2  C2          5.7230   35.9450   57.9570  C.3       1 <0>         0.1584
       3  C3          6.6140   36.8770   58.7820  C.3       1 <0>        -0.1213
       4  C4          8.0290   36.8750   58.2010  C.3       1 <0>        -0.0740
       5  C5          9.0070   36.4380   59.2620  C.ar      1 <0>        -0.1211
       6  C6          9.6980   35.2500   59.1160  C.ar      1 <0>        -0.0769
       7  C7         10.5940   34.8470   60.0870  C.ar      1 <0>        -0.2084
       8  C8         10.8000   35.6360   61.2100  C.ar      1 <0>         0.1288
       9  C9         10.1050   36.8280   61.3530  C.ar      1 <0>        -0.1507
      10  C10         9.2140   37.2290   60.3770  C.ar      1 <0>        -0.0760
      11  O1         11.6800   35.2420   62.1680  O.3       1 <0>        -0.3115
      12  C11        12.3230   33.9800   61.9770  C.3       1 <0>         0.0771
      13  C12        13.8340   34.1450   62.1580  C.3       1 <0>        -0.1813
      14  C13        11.7930   32.9780   63.0040  C.3       1 <0>        -0.1502
      15  N1          5.0210   35.0230   58.8520  N.am      1 <0>        -0.7383
      16  C14         3.7530   34.6530   58.5800  C.2       1 <0>         0.7061
      17  O2          3.1930   35.0850   57.5920  O.2       1 <0>        -0.5779
      18  N2          3.1080   33.8040   59.4040  N.am      1 <0>        -0.6307
      19  C15         3.7830   33.2820   60.5950  C.3       1 <0>         0.0773
      20  C16         1.7300   33.4010   59.1080  C.3       1 <0>         0.2112
      21  C17         0.8830   33.5630   60.3450  C.2       1 <0>        -0.0317
      22  C18         0.6100   32.6010   61.2430  C.2       1 <0>        -0.1997
      23  C19        -0.2110   33.1850   62.2340  C.2       1 <0>        -0.2195
      24  C20        -0.3910   34.4710   61.8820  C.2       1 <0>        -0.0350
      25  O3          0.2790   34.6960   60.7400  O.3       1 <0>        -0.1622
@<TRIPOS>BOND
     1     1     2 1
     2     2     3 1
     3     2    15 1
     4     3     4 1
     5     4     5 1
     6     5    10 ar
     7     5     6 ar
     8     6     7 ar
     9     7     8 ar
    10     8     9 ar
    11     8    11 1
    12     9    10 ar
    13    11    12 1
    14    12    13 1
    15    12    14 1
    16    15    16 am
    17    16    17 2
    18    16    18 am
    19    18    19 1
    20    18    20 1
    21    20    21 1
    22    21    25 1
    23    21    22 2
    24    22    23 1
    25    23    24 2
    26    24    25 1

@<TRIPOS>MOLECULE
ZINC09590915_replica-1.pdb
 24 27 0 0 0
SMALL
GASTEIGER

@<TRIPOS>ATOM
       1  C1         13.6520   31.5630   63.7930  C.3       1 <0>         0.0267
       2  O1         12.3980   31.5890   63.1090  O.3       1 <0>        -0.3179
       3  C2         11.9590   32.7990   62.6710  C.ar      1 <0>         0.1327
       4  C3         12.6320   33.9550   63.0370  C.ar      1 <0>        -0.2064
       5  C4         12.1830   35.1830   62.5900  C.ar      1 <0>        -0.0579
       6  C5         11.0650   35.2610   61.7800  C.ar      1 <0>        -0.1080
       7  C6         10.3930   34.1090   61.4150  C.ar      1 <0>        -0.0587
       8  C7         10.8400   32.8780   61.8530  C.ar      1 <0>        -0.1498
       9  C8         10.5800   36.6020   61.2940  C.3       1 <0>        -0.0285
      10  C9          9.3120   36.4210   60.5010  C.2       1 <0>         0.4057
      11  N1          8.1120   36.5100   61.1310  N.am      1 <0>        -0.6367
      12  C10         6.9550   36.3540   60.4600  C.2       1 <0>         0.5555
      13  O2          5.8870   36.4390   61.0400  O.2       1 <0>        -0.5212
      14  C11         7.0030   36.0880   59.0520  C.2       1 <0>        -0.2516
      15  C12         5.8800   35.8860   58.1310  C.2       1 <0>        -0.0470
      16  C13         6.1920   35.6440   56.8420  C.2       1 <0>        -0.1658
      17  S1          7.9650   35.6820   56.7780  S.3       1 <0>         0.1437
      18  C14         8.2860   36.0140   58.4910  C.2       1 <0>         0.1072
      19  N2          9.3860   36.1850   59.2180  N.2       1 <0>        -0.4704
      20  C15         5.2550   35.3840   55.7040  C.3       1 <0>        -0.0398
      21  C16         4.1580   36.4570   55.6960  C.3       1 <0>        -0.1146
      22  C17         3.0030   35.9700   56.5640  C.3       1 <0>        -0.1224
      23  C18         3.5370   35.1250   57.7200  C.3       1 <0>        -0.1272
      24  C19         4.4370   35.9610   58.6210  C.3       1 <0>        -0.0614
@<TRIPOS>BOND
     1     1     2 1
     2     2     3 1
     3     3     8 ar
     4     3     4 ar
     5     4     5 ar
     6     5     6 ar
     7     6     7 ar
     8     6     9 1
     9     7     8 ar
    10     9    10 1
    11    10    19 2
    12    10    11 1
    13    11    12 am
    14    12    13 2
    15    12    14 1
    16    14    18 2
    17    14    15 1
    18    15    24 1
    19    15    16 2
    20    16    17 1
    21    16    20 1
    22    17    18 1
    23    18    19 1
    24    20    21 1
    25    21    22 1
    26    22    23 1
    27    23    24 1

@<TRIPOS>MOLECULE
ZINC05556605_replica-1.pdb
 30 34 0 0 0
SMALL
GASTEIGER

@<TRIPOS>ATOM
       1  C1          4.8650   35.5960   56.5000  C.ar      1 <0>        -0.0429
       2  C2          5.9730   36.2080   57.0430  C.ar      1 <0>        -0.1640
       3  C3          5.9870   36.5610   58.3840  C.ar      1 <0>         0.1383
       4  C4          4.8860   36.3020   59.1870  C.ar      1 <0>        -0.1644
       5  C5          3.7710   35.6910   58.6570  C.ar      1 <0>        -0.0250
       6  C6          3.7510   35.3320   57.3040  C.ar      1 <0>        -0.1822
       7  C7          2.5670   34.6750   56.7320  C.2       1 <0>         0.3864
       8  O1          1.5190   35.2810   56.6450  O.2       1 <0>        -0.4300
       9  C8          2.6530   33.2480   56.2550  C.3       1 <0>         0.0612
      10  N1          1.8730   32.3870   57.1450  N.am      1 <0>        -0.5244
      11  C9          2.0000   32.5280   58.4900  C.2       1 <0>         0.3933
      12  N2          1.3170   31.7830   59.3160  N.2       1 <0>        -0.4871
      13  C10         0.4800   30.8510   58.8660  C.2       1 <0>         0.1033
      14  C11         0.2870   30.6270   57.4930  C.2       1 <0>        -0.2362
      15  C12         1.0470   31.4650   56.6150  C.2       1 <0>         0.5548
      16  O2          0.9470   31.3460   55.4060  O.2       1 <0>        -0.5050
      17  C13        -0.6620   29.5700   57.1660  C.2       1 <0>        -0.0131
      18  C14        -1.2690   28.9030   58.1780  C.2       1 <0>        -0.1815
      19  S1         -0.5900   29.6660   59.6390  S.3       1 <0>         0.1561
      20  C15        -0.9590   29.2320   55.7540  C.ar      1 <0>        -0.0455
      21  C16        -1.8070   30.0440   55.0000  C.ar      1 <0>        -0.0585
      22  C17        -2.0710   29.7190   53.6890  C.ar      1 <0>        -0.1237
      23  C18        -1.5140   28.5830   53.1110  C.ar      1 <0>        -0.0670
      24  C19        -0.6780   27.7770   53.8510  C.ar      1 <0>        -0.0833
      25  C20        -0.4000   28.0980   55.1710  C.ar      1 <0>        -0.1014
      26  C21        -0.0330   26.5390   53.2830  C.3       1 <0>        -0.0789
      27  C22        -0.7530   26.0940   52.0130  C.3       1 <0>        -0.1199
      28  C23        -0.8670   27.3000   51.0730  C.3       1 <0>        -0.1202
      29  C24        -1.8640   28.2870   51.6760  C.3       1 <0>        -0.0820
      30  F1          7.0770   37.1600   58.9110  F         1 <0>        -0.1293
@<TRIPOS>BOND
     1     1     6 ar
     2     1     2 ar
     3     2     3 ar
     4     3     4 ar
     5     3    30 1
     6     4     5 ar
     7     5     6 ar
     8     6     7 1
     9     7     8 2
    10     7     9 1
    11     9    10 1
    12    10    15 am
    13    10    11 1
    14    11    12 2
    15    12    13 1
    16    13    19 1
    17    13    14 2
    18    14    15 1
    19    14    17 1
    20    15    16 2
    21    17    18 2
    22    17    20 1
    23    18    19 1
    24    20    25 ar
    25    20    21 ar
    26    21    22 ar
    27    22    23 ar
    28    23    29 1
    29    23    24 ar
    30    24    25 ar
    31    24    26 1
    32    26    27 1
    33    27    28 1
    34    28    29 1

@<TRIPOS>MOLECULE
ZINC02205546_replica-1.pdb
 24 26 0 0 0
SMALL
GASTEIGER

@<TRIPOS>ATOM
       1  C1          0.8040   26.9840   56.9060  C.3       1 <0>        -0.1519
       2  C2          0.2370   26.4880   55.5740  C.3       1 <0>        -0.1116
       3  C3          0.4360   27.5630   54.5040  C.3       1 <0>        -0.0682
       4  C4         -0.3050   27.1690   53.2530  C.ar      1 <0>        -0.0660
       5  C5         -0.2490   25.8650   52.7970  C.ar      1 <0>        -0.0848
       6  C6         -0.9290   25.5040   51.6490  C.ar      1 <0>        -0.1215
       7  C7         -1.6670   26.4470   50.9580  C.ar      1 <0>        -0.1189
       8  C8         -1.7250   27.7500   51.4140  C.ar      1 <0>        -0.1228
       9  C9         -1.0470   28.1100   52.5640  C.ar      1 <0>        -0.1125
      10  C10        -0.0960   28.8790   55.0090  C.2       1 <0>         0.5163
      11  O1         -1.2350   28.9580   55.4150  O.2       1 <0>        -0.5260
      12  N1          0.6960   29.9700   55.0090  N.am      1 <0>        -0.7325
      13  C11         0.1790   31.2500   55.4990  C.3       1 <0>         0.1246
      14  C12         0.6510   31.4740   56.9380  C.3       1 <0>        -0.0518
      15  C13         0.8610   32.9470   57.1750  C.2       1 <0>        -0.1740
      16  C14         0.1130   33.7450   57.9530  C.2       1 <0>         0.0619
      17  N2          0.6070   35.0210   57.9240  N.pl3     1 <0>        -0.5946
      18  C15         1.7130   35.0770   57.1050  C.ar      1 <0>         0.0906
      19  C16         1.9240   33.7780   56.6050  C.ar      1 <0>        -0.0956
      20  C17         2.9920   33.5300   55.7410  C.ar      1 <0>        -0.0728
      21  C18         3.8300   34.5510   55.3880  C.ar      1 <0>        -0.1106
      22  C19         3.6290   35.8320   55.8830  C.ar      1 <0>        -0.0968
      23  C20         2.5750   36.1000   56.7290  C.ar      1 <0>        -0.1261
      24  C21         4.9840   34.2810   54.4560  C.3       1 <0>        -0.1108
@<TRIPOS>BOND
     1     1     2 1
     2     2     3 1
     3     3     4 1
     4     3    10 1
     5     4     9 ar
     6     4     5 ar
     7     5     6 ar
     8     6     7 ar
     9     7     8 ar
    10     8     9 ar
    11    10    11 2
    12    10    12 am
    13    12    13 1
    14    13    14 1
    15    14    15 1
    16    15    19 1
    17    15    16 2
    18    16    17 1
    19    17    18 1
    20    18    23 ar
    21    18    19 ar
    22    19    20 ar
    23    20    21 ar
    24    21    22 ar
    25    21    24 1
    26    22    23 ar

@<TRIPOS>MOLECULE
ZINC01412360_replica-1.pdb
 29 32 0 0 0
SMALL
GASTEIGER

@<TRIPOS>ATOM
       1  C1         12.2760   33.8430   62.8200  C.2       1 <0>        -0.0924
       2  C2         11.4990   32.6830   62.6520  C.2       1 <0>        -0.1351
       3  C3         10.4640   32.6770   61.7890  C.2       1 <0>         0.0576
       4  N1         10.1530   33.7960   61.0660  N.pl3     1 <0>        -0.3616
       5  C4         10.8950   34.9440   61.2090  C.2       1 <0>         0.2477
       6  C5         11.9800   34.9630   62.1090  C.2       1 <0>        -0.0805
       7  N2         10.3880   35.8650   60.4030  N.2       1 <0>        -0.4751
       8  C6          9.3450   35.3490   59.7460  C.2       1 <0>         0.1070
       9  C7          9.1790   34.0610   60.1410  C.2       1 <0>         0.1214
      10  N3          8.1970   33.1720   59.6880  N.am      1 <0>        -0.5315
      11  C8          6.8160   33.3030   60.1590  C.3       1 <0>         0.1461
      12  C9          5.9960   34.0160   59.1150  C.ar      1 <0>        -0.0829
      13  C10         5.3770   35.2140   59.4210  C.ar      1 <0>        -0.1048
      14  C11         4.6250   35.8680   58.4630  C.ar      1 <0>        -0.0723
      15  C12         4.4920   35.3250   57.1990  C.ar      1 <0>        -0.1755
      16  C13         5.1120   34.1270   56.8920  C.ar      1 <0>        -0.0711
      17  C14         5.8670   33.4760   57.8490  C.ar      1 <0>        -0.0952
      18  C15         3.6710   36.0380   56.1550  C.3       1 <0>         0.5075
      19  F1          2.5530   36.6220   56.7600  F         1 <0>        -0.1759
      20  F2          4.4480   37.0320   55.5500  F         1 <0>        -0.1751
      21  F3          3.2510   35.1200   55.1870  F         1 <0>        -0.1758
      22  C16         8.5240   32.1950   58.8190  C.2       1 <0>         0.5064
      23  O1          8.2200   31.0440   59.0570  O.2       1 <0>        -0.5232
      24  C17         8.4970   36.0760   58.7350  C.3       1 <0>        -0.0067
      25  C18         8.7330   37.5870   58.8540  C.3       1 <0>        -0.1060
      26  C19         7.7330   38.3060   57.9470  C.3       1 <0>        -0.0921
      27  C20         7.7480   37.6970   56.5760  C.2       1 <0>        -0.1567
      28  C21         8.2460   36.5330   56.3050  C.2       1 <0>        -0.1540
      29  C22         8.8850   35.6310   57.3230  C.3       1 <0>        -0.0793
@<TRIPOS>BOND
     1     1     6 2
     2     1     2 1
     3     2     3 2
     4     3     4 1
     5     4     9 1
     6     4     5 1
     7     5     6 1
     8     5     7 2
     9     7     8 1
    10     8     9 2
    11     8    24 1
    12     9    10 1
    13    10    11 1
    14    10    22 am
    15    11    12 1
    16    12    17 ar
    17    12    13 ar
    18    13    14 ar
    19    14    15 ar
    20    15    16 ar
    21    15    18 1
    22    16    17 ar
    23    18    19 1
    24    18    20 1
    25    18    21 1
    26    22    23 2
    27    24    29 1
    28    24    25 1
    29    25    26 1
    30    26    27 1
    31    27    28 2
    32    28    29 1

@<TRIPOS>MOLECULE
ZINC12599848_replica-1.pdb
 25 26 0 0 0
SMALL
GASTEIGER

@<TRIPOS>ATOM
       1  C1         10.3860   36.5690   61.5030  C.3       1 <0>        -0.1234
       2  C2          9.7600   36.3770   60.1450  C.ar      1 <0>        -0.0399
       3  C3          9.8190   35.1390   59.5290  C.ar      1 <0>        -0.1429
       4  C4          9.2490   34.9560   58.2870  C.ar      1 <0>        -0.0495
       5  C5          8.6090   36.0220   57.6510  C.ar      1 <0>        -0.1416
       6  C6          8.5510   37.2680   58.2790  C.ar      1 <0>        -0.0090
       7  C7          9.1280   37.4380   59.5220  C.ar      1 <0>        -0.1384
       8  C8          7.8630   38.4240   57.6020  C.3       1 <0>        -0.1263
       9  C9          7.9950   35.8340   56.3210  C.2       1 <0>         0.5148
      10  O1          8.5630   36.2380   55.3270  O.2       1 <0>        -0.4957
      11  O2          6.8040   35.2130   56.2110  O.3       1 <0>        -0.3337
      12  C10         5.7490   35.9300   55.5180  C.3       1 <0>         0.0748
      13  C11         4.4970   35.0910   55.5030  C.2       1 <0>         0.4595
      14  O3          4.0940   34.6260   54.4620  O.2       1 <0>        -0.4843
      15  O4          3.8300   34.8590   56.6450  O.3       1 <0>        -0.3318
      16  C12         3.2500   36.0100   57.3140  C.3       1 <0>         0.0970
      17  C13         1.7350   36.0120   57.1020  C.3       1 <0>        -0.1338
      18  C14         1.1370   34.7280   57.6820  C.3       1 <0>        -0.0893
      19  C15         1.4430   34.6550   59.1790  C.3       1 <0>        -0.1157
      20  C16         2.9580   34.6530   59.3920  C.3       1 <0>        -0.1190
      21  C17         3.5560   35.9380   58.8110  C.3       1 <0>        -0.0767
      22  C18         5.0710   35.9360   59.0230  C.3       1 <0>        -0.0937
      23  C19         5.4460   37.0290   60.0260  C.3       1 <0>        -0.1540
      24  C20         5.5080   34.5740   59.5650  C.3       1 <0>        -0.1490
      25  C21         1.7500   33.5160   56.9770  C.3       1 <0>        -0.1538
@<TRIPOS>BOND
     1     1     2 1
     2     2     7 ar
     3     2     3 ar
     4     3     4 ar
     5     4     5 ar
     6     5     6 ar
     7     5     9 1
     8     6     7 ar
     9     6     8 1
    10     9    10 2
    11     9    11 1
    12    11    12 1
    13    12    13 1
    14    13    14 2
    15    13    15 1
    16    15    16 1
    17    16    21 1
    18    16    17 1
    19    17    18 1
    20    18    19 1
    21    18    25 1
    22    19    20 1
    23    20    21 1
    24    21    22 1
    25    22    23 1
    26    22    24 1

@<TRIPOS>MOLECULE
ZINC08561187_replica-1.pdb
 30 32 0 0 0
SMALL
GASTEIGER

@<TRIPOS>ATOM
       1  C1          8.9940   37.9880   59.1950  C.3       1 <0>        -0.1546
       2  C2          8.5840   36.5360   59.4460  C.3       1 <0>        -0.0936
       3  C3          9.8290   35.6470   59.4450  C.3       1 <0>        -0.1482
       4  C4          7.8840   36.4320   60.8030  C.3       1 <0>        -0.1156
       5  C5          6.4410   36.9210   60.6720  C.3       1 <0>         0.0536
       6  O1          5.5450   35.8400   60.9380  O.3       1 <0>        -0.3086
       7  C6          4.9250   35.2770   59.8710  C.ar      1 <0>         0.1663
       8  C7          4.9330   35.9260   58.6420  C.ar      1 <0>        -0.1601
       9  C8          4.3040   35.3580   57.5570  C.ar      1 <0>        -0.0109
      10  C9          3.6580   34.1270   57.6920  C.ar      1 <0>        -0.1739
      11  C10         3.6460   33.4800   58.9300  C.ar      1 <0>        -0.0405
      12  C11         4.2810   34.0520   60.0100  C.ar      1 <0>        -0.2169
      13  C12         2.9830   33.5140   56.5300  C.2       1 <0>         0.5677
      14  O2          3.4020   33.7150   55.4080  O.2       1 <0>        -0.5368
      15  N1          1.9010   32.7310   56.7150  N.am      1 <0>        -0.5211
      16  N2          1.2610   32.1500   55.6140  N.am      1 <0>        -0.5162
      17  C13         0.0310   31.6180   55.7520  C.2       1 <0>         0.5530
      18  O3         -0.5240   31.6420   56.8360  O.2       1 <0>        -0.5454
      19  C14        -0.6380   31.0100   54.6020  C.2       1 <0>        -0.2135
      20  C15        -0.5500   29.6790   54.3940  C.2       1 <0>         0.0023
      21  C16        -1.2210   29.0700   53.2410  C.ar      1 <0>        -0.0752
      22  C17        -2.1440   29.7940   52.4910  C.ar      1 <0>        -0.0835
      23  C18        -2.7770   29.2150   51.4010  C.ar      1 <0>        -0.1244
      24  C19        -2.5260   27.9310   51.0230  C.ar      1 <0>        -0.0845
      25  C20        -1.6080   27.1410   51.7330  C.ar      1 <0>        -0.0576
      26  C21        -0.9370   27.6880   52.8540  C.ar      1 <0>        -0.0295
      27  C22        -0.0200   26.9040   53.5620  C.ar      1 <0>        -0.1131
      28  C23         0.2160   25.6210   53.1670  C.ar      1 <0>        -0.1058
      29  C24        -0.4370   25.0810   52.0630  C.ar      1 <0>        -0.1175
      30  C25        -1.3390   25.8140   51.3540  C.ar      1 <0>        -0.1013
@<TRIPOS>BOND
     1     1     2 1
     2     2     3 1
     3     2     4 1
     4     4     5 1
     5     5     6 1
     6     6     7 1
     7     7    12 ar
     8     7     8 ar
     9     8     9 ar
    10     9    10 ar
    11    10    11 ar
    12    10    13 1
    13    11    12 ar
    14    13    14 2
    15    13    15 am
    16    15    16 1
    17    16    17 am
    18    17    18 2
    19    17    19 1
    20    19    20 2
    21    20    21 1
    22    21    26 ar
    23    21    22 ar
    24    22    23 ar
    25    23    24 ar
    26    24    25 ar
    27    25    30 ar
    28    25    26 ar
    29    26    27 ar
    30    27    28 ar
    31    28    29 ar
    32    29    30 ar

@<TRIPOS>MOLECULE
ZINC67530286_replica-1.pdb
 25 26 0 0 0
SMALL
GASTEIGER

@<TRIPOS>ATOM
       1  C1          4.8400   34.6560   53.5970  C.3       1 <0>        -0.1516
       2  C2          4.1010   34.9740   54.8980  C.3       1 <0>        -0.1229
       3  C3          5.0510   34.7910   56.0830  C.3       1 <0>         0.0590
       4  O1          5.0000   35.9490   56.9180  O.3       1 <0>        -0.3777
       5  C4          5.6850   35.7990   58.1630  C.3       1 <0>         0.0784
       6  C5          4.7590   35.1240   59.1780  C.3       1 <0>        -0.1170
       7  C6          5.4810   34.9930   60.5210  C.3       1 <0>        -0.1325
       8  C7          6.7250   34.1170   60.3450  C.3       1 <0>         0.1085
       9  N1          7.5520   34.6800   59.2690  N.am      1 <0>        -0.6259
      10  C8          6.9330   34.9320   57.9600  C.3       1 <0>         0.1096
      11  C9          8.8530   34.9600   59.4770  C.2       1 <0>         0.7110
      12  O2          9.5490   35.3400   58.5560  O.2       1 <0>        -0.5852
      13  N2          9.3830   34.8210   60.7080  N.am      1 <0>        -0.7408
      14  C10        10.7660   35.2310   60.9610  C.3       1 <0>         0.2030
      15  C11        10.7740   36.5250   61.7770  C.3       1 <0>        -0.1588
      16  C12        11.4790   34.1480   61.7300  C.ar      1 <0>        -0.1157
      17  C13        10.8230   32.9690   62.0310  C.ar      1 <0>        -0.0806
      18  C14        11.4730   31.9750   62.7360  C.ar      1 <0>        -0.1292
      19  C15        12.7860   32.1610   63.1420  C.ar      1 <0>         0.1068
      20  C16        13.4430   33.3440   62.8390  C.ar      1 <0>        -0.1842
      21  C17        12.7900   34.3330   62.1290  C.ar      1 <0>        -0.0664
      22  O3         13.4280   31.1840   63.8360  O.3       1 <0>        -0.3203
      23  C18        12.6360   30.0890   64.3000  C.3       1 <0>         0.4116
      24  F1         12.8720   28.9700   63.4950  F         1 <0>        -0.1973
      25  F2         12.9780   29.7930   65.6240  F         1 <0>        -0.1972
@<TRIPOS>BOND
     1     1     2 1
     2     2     3 1
     3     3     4 1
     4     4     5 1
     5     5    10 1
     6     5     6 1
     7     6     7 1
     8     7     8 1
     9     8     9 1
    10     9    10 1
    11     9    11 am
    12    11    12 2
    13    11    13 am
    14    13    14 1
    15    14    15 1
    16    14    16 1
    17    16    21 ar
    18    16    17 ar
    19    17    18 ar
    20    18    19 ar
    21    19    20 ar
    22    19    22 1
    23    20    21 ar
    24    22    23 1
    25    23    24 1
    26    23    25 1

@<TRIPOS>MOLECULE
ZINC07056000_replica-1.pdb
 24 27 0 0 0
SMALL
GASTEIGER

@<TRIPOS>ATOM
       1  C1         -0.4050   25.2160   52.2010  C.ar      1 <0>        -0.1353
       2  C2         -1.1970   25.6610   51.1540  C.ar      1 <0>        -0.0805
       3  C3         -1.6830   26.9510   51.1410  C.ar      1 <0>        -0.1129
       4  C4         -1.3810   27.8200   52.1830  C.ar      1 <0>         0.0836
       5  C5         -0.5800   27.3670   53.2400  C.ar      1 <0>        -0.1217
       6  C6         -0.0950   26.0630   53.2430  C.ar      1 <0>        -0.0623
       7  C7         -0.4510   28.5110   54.1630  C.ar      1 <0>        -0.1146
       8  C8          0.2030   28.7050   55.3750  C.ar      1 <0>        -0.0527
       9  C9          0.1250   29.9360   56.0070  C.ar      1 <0>         0.1017
      10  C10        -0.6090   30.9680   55.4310  C.ar      1 <0>        -0.0681
      11  C11        -1.2540   30.7810   54.2270  C.ar      1 <0>        -0.1028
      12  C12        -1.1850   29.5530   53.5810  C.ar      1 <0>         0.0952
      13  O1         -1.7170   29.1070   52.4190  O.3       1 <0>        -0.1967
      14  N1          0.7800   30.1390   57.2270  N.pl3     1 <0>        -1.0580
      15  S1          0.2110   29.4130   58.6020  S.o2      1 <0>         2.6921
      16  O2          1.1210   28.3680   58.9160  O.2       1 <0>        -0.9476
      17  O3         -1.1750   29.1790   58.3940  O.2       1 <0>        -0.9422
      18  C13         0.3330   30.5940   59.9040  C.ar      1 <0>        -0.6925
      19  C14        -0.1110   30.2720   61.1730  C.ar      1 <0>         0.0117
      20  C15        -0.0110   31.1960   62.1960  C.ar      1 <0>        -0.1753
      21  C16         0.5240   32.4480   61.9480  C.ar      1 <0>         0.1607
      22  C17         0.9640   32.7710   60.6750  C.ar      1 <0>        -0.1738
      23  C18         0.8680   31.8450   59.6550  C.ar      1 <0>         0.0151
      24  F1          0.6180   33.3530   62.9460  F         1 <0>        -0.1271
@<TRIPOS>BOND
     1     1     6 ar
     2     1     2 ar
     3     2     3 ar
     4     3     4 ar
     5     4    13 1
     6     4     5 ar
     7     5     6 ar
     8     5     7 1
     9     7    12 ar
    10     7     8 ar
    11     8     9 ar
    12     9    10 ar
    13     9    14 1
    14    10    11 ar
    15    11    12 ar
    16    12    13 1
    17    14    15 1
    18    15    16 2
    19    15    17 2
    20    15    18 1
    21    18    23 ar
    22    18    19 ar
    23    19    20 ar
    24    20    21 ar
    25    21    22 ar
    26    21    24 1
    27    22    23 ar

@<TRIPOS>MOLECULE
ZINC07719029_replica-1.pdb
 28 30 0 0 0
SMALL
GASTEIGER

@<TRIPOS>ATOM
       1  C1         14.2540   33.7830   62.8110  C.3       1 <0>        -0.1583
       2  C2         13.2530   34.2750   61.7640  C.3       1 <0>        -0.1152
       3  C3         11.9530   34.6870   62.4550  C.3       1 <0>        -0.0631
       4  C4         12.2540   35.7480   63.5160  C.3       1 <0>        -0.1482
       5  C5         10.9990   35.2540   61.4350  C.ar      1 <0>        -0.0419
       6  C6         10.7450   34.5600   60.2660  C.ar      1 <0>        -0.0996
       7  C7          9.8660   35.0780   59.3330  C.ar      1 <0>        -0.1168
       8  C8          9.2490   36.2930   59.5640  C.ar      1 <0>        -0.1455
       9  C9          9.5060   36.9880   60.7310  C.ar      1 <0>        -0.0828
      10  C10        10.3820   36.4690   61.6650  C.ar      1 <0>        -0.1058
      11  C11         8.2950   36.8590   58.5440  C.3       1 <0>         0.0875
      12  C12         8.5180   38.3670   58.4180  C.3       1 <0>        -0.1095
      13  C13         8.7380   38.7300   56.9490  C.3       1 <0>        -0.1673
      14  C14         7.2910   39.1110   58.9490  C.3       1 <0>        -0.1779
      15  C15         6.3090   35.5230   58.1800  C.3       1 <0>         0.0621
      16  C16         5.2720   34.8130   59.0110  C.2       1 <0>         0.1472
      17  C17         5.6610   33.8670   59.9410  C.2       1 <0>        -0.2988
      18  C18         4.6790   33.2240   60.7040  C.2       1 <0>         0.5092
      19  O1          4.9910   32.3870   61.5350  O.2       1 <0>        -0.5017
      20  N1          3.3830   33.5410   60.5030  N.am      1 <0>        -0.4188
      21  C19         2.4150   32.9210   61.2330  C.2       1 <0>         0.0914
      22  C20         1.1100   33.2210   61.0490  C.2       1 <0>        -0.1131
      23  C21         0.7360   34.1800   60.0980  C.2       1 <0>        -0.0093
      24  C22         1.6960   34.8070   59.3610  C.2       1 <0>        -0.1410
      25  C23         3.0480   34.4810   59.5670  C.2       1 <0>         0.4049
      26  N2          3.9880   35.0920   58.8470  N.2       1 <0>        -0.5588
      27  C24         0.0550   32.5230   61.8680  C.3       1 <0>        -0.1166
      28  N3          6.9070   36.6100   58.9770  N.4       1 <0>        -0.5164
@<TRIPOS>BOND
     1     1     2 1
     2     2     3 1
     3     3     4 1
     4     3     5 1
     5     5    10 ar
     6     5     6 ar
     7     6     7 ar
     8     7     8 ar
     9     8     9 ar
    10     8    11 1
    11     9    10 ar
    12    11    12 1
    13    11    28 1
    14    12    13 1
    15    12    14 1
    16    15    16 1
    17    15    28 1
    18    16    26 1
    19    16    17 2
    20    17    18 1
    21    18    19 2
    22    18    20 am
    23    20    25 1
    24    20    21 1
    25    21    22 2
    26    22    23 1
    27    22    27 1
    28    23    24 2
    29    24    25 1
    30    25    26 2

@<TRIPOS>MOLECULE
ZINC38737920_replica-1.pdb
 27 28 0 0 0
SMALL
GASTEIGER

@<TRIPOS>ATOM
       1  C1          7.7500   36.2170   55.4430  C.3       1 <0>        -0.1680
       2  C2          6.4440   35.4430   55.6340  C.3       1 <0>         0.1387
       3  C3          5.2780   36.4280   55.7420  C.3       1 <0>        -0.1289
       4  C4          4.0410   35.8300   55.0690  C.3       1 <0>        -0.0936
       5  C5          4.4620   34.6700   54.1660  C.3       1 <0>        -0.1529
       6  C6          3.0760   35.3170   56.1410  C.3       1 <0>        -0.1538
       7  N1          6.5250   34.6450   56.8600  N.am      1 <0>        -0.6992
       8  C7          6.8910   33.3500   56.7980  C.2       1 <0>         0.4995
       9  O1          7.1540   32.8440   55.7280  O.2       1 <0>        -0.5053
      10  C8          6.9740   32.5290   58.0600  C.3       1 <0>         0.0076
      11  C9          5.5680   32.0900   58.4750  C.3       1 <0>        -0.1334
      12  C10         5.6570   31.2560   59.7560  C.3       1 <0>        -0.1338
      13  C11         6.3530   32.0820   60.8430  C.3       1 <0>        -0.1468
      14  C12         7.7300   32.5210   60.3390  C.3       1 <0>        -0.0089
      15  N2          7.5740   33.3350   59.1290  N.4       1 <0>        -0.3660
      16  C13         8.8920   33.8200   58.6940  C.3       1 <0>         0.0473
      17  C14         9.3980   34.8450   59.6760  C.ar      1 <0>        -0.1866
      18  C15        10.4840   34.5540   60.4800  C.ar      1 <0>        -0.0554
      19  C16        10.9490   35.4940   61.3810  C.ar      1 <0>        -0.1037
      20  C17        10.3300   36.7270   61.4790  C.ar      1 <0>        -0.0411
      21  C18         9.2460   37.0220   60.6760  C.ar      1 <0>        -0.1999
      22  C19         8.7800   36.0830   59.7670  C.ar      1 <0>         0.1465
      23  O2          7.7160   36.3730   58.9730  O.3       1 <0>        -0.3126
      24  C20         7.3780   37.7520   58.8210  C.3       1 <0>         0.0251
      25  C21        12.1320   35.1740   62.2580  C.3       1 <0>        -0.0556
      26  C22        12.0930   36.0570   63.5070  C.3       1 <0>        -0.1498
      27  C23        12.0780   33.7020   62.6720  C.3       1 <0>        -0.1483
@<TRIPOS>BOND
     1     1     2 1
     2     2     3 1
     3     2     7 1
     4     3     4 1
     5     4     5 1
     6     4     6 1
     7     7     8 am
     8     8     9 2
     9     8    10 1
    10    10    15 1
    11    10    11 1
    12    11    12 1
    13    12    13 1
    14    13    14 1
    15    14    15 1
    16    15    16 1
    17    16    17 1
    18    17    22 ar
    19    17    18 ar
    20    18    19 ar
    21    19    20 ar
    22    19    25 1
    23    20    21 ar
    24    21    22 ar
    25    22    23 1
    26    23    24 1
    27    25    26 1
    28    25    27 1

@<TRIPOS>MOLECULE
ZINC39252981_replica-1.pdb
 27 29 0 0 0
SMALL
GASTEIGER

@<TRIPOS>ATOM
       1  C1          8.6990   35.4930   58.2860  C.3       1 <0>        -0.1548
       2  C2          8.5520   36.9800   57.9550  C.3       1 <0>        -0.1270
       3  C3          7.0680   37.3240   57.8030  C.3       1 <0>        -0.1122
       4  C4          6.2510   36.5080   58.8070  C.3       1 <0>        -0.0514
       5  C5          5.9070   37.3830   60.0140  C.3       1 <0>        -0.1477
       6  C6          4.9800   36.0330   58.1520  C.ar      1 <0>        -0.1009
       7  C7          4.9040   35.9480   56.7740  C.ar      1 <0>        -0.0719
       8  C8          3.7400   35.5130   56.1700  C.ar      1 <0>        -0.1376
       9  C9          2.6460   35.1620   56.9480  C.ar      1 <0>         0.1144
      10  C10         2.7250   35.2490   58.3300  C.ar      1 <0>        -0.2056
      11  C11         3.8930   35.6790   58.9290  C.ar      1 <0>        -0.0773
      12  O1          1.5000   34.7340   56.3570  O.3       1 <0>        -0.2918
      13  C12         0.7220   33.7720   57.0710  C.3       1 <0>         0.0514
      14  C13         0.9310   32.4080   56.4640  C.2       1 <0>         0.5317
      15  O2          1.8360   31.7020   56.8550  O.2       1 <0>        -0.4472
      16  N1          0.1100   31.9730   55.4870  N.am      1 <0>        -0.5555
      17  N2          0.3040   30.7050   54.9230  N.2       1 <0>        -0.1253
      18  C14        -0.3640   29.6760   55.3800  C.2       1 <0>         0.0356
      19  C15        -0.1690   28.4070   54.8150  C.2       1 <0>         0.1293
      20  C16        -0.6380   27.9510   53.5850  C.ar      1 <0>        -0.1463
      21  C17        -1.4080   28.5630   52.5710  C.ar      1 <0>        -0.0251
      22  C18        -1.7250   27.8630   51.4540  C.ar      1 <0>        -0.1402
      23  C19        -1.3070   26.5420   51.2720  C.ar      1 <0>         0.0411
      24  C20        -0.5660   25.8920   52.2020  C.ar      1 <0>        -0.1995
      25  C21        -0.1950   26.5580   53.4000  C.ar      1 <0>         0.3142
      26  N3          0.5070   26.1560   54.4390  N.pl3     1 <0>        -0.5883
      27  C22         0.6010   27.2490   55.4120  C.3       1 <0>         0.0701
@<TRIPOS>BOND
     1     1     2 1
     2     2     3 1
     3     3     4 1
     4     4     5 1
     5     4     6 1
     6     6    11 ar
     7     6     7 ar
     8     7     8 ar
     9     8     9 ar
    10     9    10 ar
    11     9    12 1
    12    10    11 ar
    13    12    13 1
    14    13    14 1
    15    14    15 2
    16    14    16 am
    17    16    17 1
    18    17    18 2
    19    18    19 1
    20    19    27 1
    21    19    20 2
    22    20    25 ar
    23    20    21 ar
    24    21    22 ar
    25    22    23 ar
    26    23    24 ar
    27    24    25 ar
    28    25    26 2
    29    26    27 1

@<TRIPOS>MOLECULE
ZINC63717099_replica-1.pdb
 24 25 0 0 0
SMALL
GASTEIGER

@<TRIPOS>ATOM
       1  C1          7.2940   34.7650   56.0660  C.3       1 <0>        -0.1632
       2  C2          6.3680   34.9530   57.2700  C.3       1 <0>         0.1772
       3  C3          6.8170   36.1510   58.0660  C.2       1 <0>         0.4562
       4  O1          6.0360   36.7200   58.7920  O.2       1 <0>        -0.4806
       5  O2          8.0820   36.5870   57.9680  O.3       1 <0>        -0.2822
       6  C4          8.9300   36.3230   58.9970  C.ar      1 <0>         0.0387
       7  C5          9.0700   37.2350   60.0320  C.ar      1 <0>        -0.0744
       8  C6          9.9310   36.9670   61.0780  C.ar      1 <0>        -0.1368
       9  C7         10.6560   35.7850   61.0930  C.ar      1 <0>         0.1418
      10  C8         10.5160   34.8720   60.0580  C.ar      1 <0>        -0.1968
      11  C9          9.6510   35.1380   59.0150  C.ar      1 <0>        -0.0714
      12  O3         11.5040   35.5210   62.1230  O.3       1 <0>        -0.3074
      13  C10        12.4080   34.4270   61.9540  C.3       1 <0>         0.0892
      14  C11        12.2670   33.4610   63.1330  C.3       1 <0>        -0.1606
      15  C12        12.9890   32.1160   63.0340  C.3       1 <0>        -0.1751
      16  C13        11.4660   32.1790   62.9040  C.3       1 <0>        -0.1681
      17  N1          4.9960   35.1620   56.8020  N.am      1 <0>        -0.7023
      18  C14         4.0330   34.2740   57.1200  C.2       1 <0>         0.6600
      19  O4          4.3040   33.2990   57.7930  O.2       1 <0>        -0.5605
      20  O5          2.7720   34.4670   56.6900  O.3       1 <0>        -0.3535
      21  C15         1.8350   34.9800   57.6390  C.3       1 <0>         0.1340
      22  C16         0.7180   35.7250   56.9050  C.3       1 <0>        -0.1871
      23  C17         1.2340   33.8230   58.4400  C.3       1 <0>        -0.1414
      24  C18         2.5480   35.9420   58.5910  C.3       1 <0>        -0.1865
@<TRIPOS>BOND
     1     1     2 1
     2     2     3 1
     3     2    17 1
     4     3     4 2
     5     3     5 1
     6     5     6 1
     7     6    11 ar
     8     6     7 ar
     9     7     8 ar
    10     8     9 ar
    11     9    10 ar
    12     9    12 1
    13    10    11 ar
    14    12    13 1
    15    13    14 1
    16    14    16 1
    17    14    15 1
    18    15    16 1
    19    17    18 am
    20    18    19 2
    21    18    20 1
    22    20    21 1
    23    21    22 1
    24    21    23 1
    25    21    24 1

@<TRIPOS>MOLECULE
ZINC43756785_replica-1.pdb
 31 35 0 0 0
SMALL
GASTEIGER

@<TRIPOS>ATOM
       1  C1          0.3590   31.8380   61.9880  C.3       1 <0>        -0.1282
       2  C2          1.0880   32.7980   61.0830  C.ar      1 <0>        -0.0225
       3  C3          2.4700   32.7940   61.0420  C.ar      1 <0>        -0.1415
       4  C4          3.1380   33.6740   60.2110  C.ar      1 <0>        -0.0090
       5  C5          2.4260   34.5570   59.4230  C.ar      1 <0>        -0.7128
       6  C6          1.0440   34.5600   59.4630  C.ar      1 <0>        -0.0200
       7  C7          0.3760   33.6770   60.2900  C.ar      1 <0>        -0.1415
       8  S1          3.2790   35.6790   58.3650  S.o2      1 <0>         2.6775
       9  O1          2.4720   35.8360   57.2060  O.2       1 <0>        -0.9655
      10  O2          3.6720   36.7800   59.1730  O.2       1 <0>        -0.9277
      11  O3          4.5580   34.9900   57.9150  O.3       1 <0>        -0.6980
      12  C8          4.4180   34.2290   56.7130  C.3       1 <0>         0.0902
      13  C9          4.6320   32.7240   56.9900  C.3       1 <0>        -0.2143
      14  C10         6.0820   32.4190   56.6620  C.2       1 <0>         0.3781
      15  O4          6.6190   31.3400   56.7150  O.2       1 <0>        -0.4298
      16  C11         6.7320   33.7410   56.2530  C.3       1 <0>        -0.1260
      17  C12         5.5440   34.5680   55.7190  C.3       1 <0>        -0.0392
      18  C13         5.8220   36.0490   55.6370  C.3       1 <0>        -0.1063
      19  C14         6.3440   36.5920   56.9670  C.3       1 <0>        -0.1336
      20  C15         7.6360   35.8430   57.3190  C.3       1 <0>        -0.0592
      21  C16         7.3220   34.3490   57.5300  C.3       1 <0>        -0.0688
      22  C17         8.5850   33.5720   57.9120  C.3       1 <0>        -0.1197
      23  C18         9.1730   34.1490   59.2010  C.3       1 <0>        -0.1144
      24  C19         9.5300   35.6220   58.9790  C.3       1 <0>        -0.0742
      25  C20         8.2240   36.4430   58.5990  C.3       1 <0>        -0.0460
      26  C21         7.1960   36.3370   59.7280  C.3       1 <0>        -0.1130
      27  C22         7.7820   36.9400   61.0080  C.3       1 <0>        -0.1189
      28  C23         9.0490   36.1770   61.3970  C.3       1 <0>        -0.1201
      29  C24        10.1300   36.1980   60.2630  C.3       1 <0>        -0.1182
      30  C25         8.5670   37.9150   58.3600  C.3       1 <0>        -0.1464
      31  C26         5.1610   34.0590   54.3280  C.3       1 <0>        -0.1522
@<TRIPOS>BOND
     1     1     2 1
     2     2     7 ar
     3     2     3 ar
     4     3     4 ar
     5     4     5 ar
     6     5     6 ar
     7     5     8 1
     8     6     7 ar
     9     8     9 2
    10     8    10 2
    11     8    11 1
    12    11    12 1
    13    12    17 1
    14    12    13 1
    15    13    14 1
    16    14    15 2
    17    14    16 1
    18    16    21 1
    19    16    17 1
    20    17    18 1
    21    17    31 1
    22    18    19 1
    23    19    20 1
    24    20    25 1
    25    20    21 1
    26    21    22 1
    27    22    23 1
    28    23    24 1
    29    24    29 1
    30    24    25 1
    31    25    26 1
    32    25    30 1
    33    26    27 1
    34    27    28 1
    35    28    29 1

@<TRIPOS>MOLECULE
ZINC39550629_replica-1.pdb
 32 37 0 0 0
SMALL
GASTEIGER

@<TRIPOS>ATOM
       1  C1          0.8200   33.2870   61.7740  C.ar      1 <0>        -0.1142
       2  C2          0.3290   34.1450   60.8050  C.ar      1 <0>        -0.1203
       3  C3          0.3660   33.7800   59.4750  C.ar      1 <0>        -0.0896
       4  C4          0.8990   32.5450   59.1070  C.ar      1 <0>        -0.0099
       5  C5          1.3920   31.6860   60.0890  C.ar      1 <0>        -0.1023
       6  C6          1.3500   32.0610   61.4160  C.ar      1 <0>        -0.1193
       7  C7          0.9420   32.1470   57.6810  C.2       1 <0>         0.0747
       8  C8          1.8810   32.5550   56.7480  C.2       1 <0>         0.0407
       9  N1          1.5390   31.9460   55.5630  N.pl3     1 <0>        -0.5521
      10  C9          0.4220   31.1970   55.8010  C.2       1 <0>         0.2607
      11  N2          0.0810   31.3220   57.0630  N.2       1 <0>        -0.4527
      12  C10        -0.2890   30.3740   54.7990  C.ar      1 <0>        -0.0004
      13  C11         0.1240   29.0630   54.5500  C.ar      1 <0>        -0.1199
      14  C12        -0.5420   28.2970   53.6140  C.ar      1 <0>        -0.0970
      15  C13        -1.6180   28.8240   52.9230  C.ar      1 <0>        -0.1343
      16  C14        -2.0360   30.1250   53.1650  C.ar      1 <0>         0.1109
      17  C15        -1.3790   30.9010   54.1060  C.ar      1 <0>        -0.1026
      18  O1         -3.0940   30.6370   52.4820  O.3       1 <0>        -0.4955
      19  C16         3.0220   33.4610   56.9790  C.ar      1 <0>        -0.0277
      20  C17         2.8120   34.8360   57.1100  C.ar      1 <0>        -0.0481
      21  C18         3.8790   35.6820   57.3190  C.ar      1 <0>        -0.1151
      22  C19         5.1760   35.1830   57.4060  C.ar      1 <0>         0.1373
      23  C20         5.3830   33.8090   57.2850  C.ar      1 <0>        -0.1684
      24  C21         4.3190   32.9510   57.0720  C.ar      1 <0>        -0.0505
      25  S1          7.0160   33.1570   57.4260  S.3       1 <0>         0.0270
      26  C22         7.9050   34.4770   58.1850  C.ar      1 <0>        -0.1728
      27  C23         9.1330   34.2290   58.7810  C.ar      1 <0>        -0.0603
      28  C24         9.8290   35.2600   59.3850  C.ar      1 <0>        -0.1235
      29  C25         9.2970   36.5360   59.3930  C.ar      1 <0>        -0.0806
      30  C26         8.0760   36.7870   58.7990  C.ar      1 <0>        -0.1202
      31  C27         7.3670   35.7610   58.1850  C.ar      1 <0>         0.1245
      32  O2          6.1900   36.0500   57.5960  O.3       1 <0>        -0.2539
@<TRIPOS>BOND
     1     1     6 ar
     2     1     2 ar
     3     2     3 ar
     4     3     4 ar
     5     4     5 ar
     6     4     7 1
     7     5     6 ar
     8     7    11 1
     9     7     8 2
    10     8     9 1
    11     8    19 1
    12     9    10 1
    13    10    11 2
    14    10    12 1
    15    12    17 ar
    16    12    13 ar
    17    13    14 ar
    18    14    15 ar
    19    15    16 ar
    20    16    17 ar
    21    16    18 1
    22    19    24 ar
    23    19    20 ar
    24    20    21 ar
    25    21    22 ar
    26    22    32 1
    27    22    23 ar
    28    23    24 ar
    29    23    25 1
    30    25    26 1
    31    26    31 ar
    32    26    27 ar
    33    27    28 ar
    34    28    29 ar
    35    29    30 ar
    36    30    31 ar
    37    31    32 1

@<TRIPOS>MOLECULE
ZINC40864581_replica-1.pdb
 23 25 0 0 0
SMALL
GASTEIGER

@<TRIPOS>ATOM
       1  C1         -0.5140   25.0220   51.9290  C.3       1 <0>         0.0220
       2  O1         -1.3280   26.1820   51.7370  O.3       1 <0>        -0.3096
       3  C2         -1.0440   27.2670   52.5020  C.ar      1 <0>         0.1672
       4  C3         -0.0650   27.1840   53.4860  C.ar      1 <0>        -0.2179
       5  C4          0.2250   28.2820   54.2640  C.ar      1 <0>        -0.0052
       6  C5         -0.4650   29.4810   54.0640  C.ar      1 <0>        -0.1814
       7  C6         -1.4480   29.5590   53.0740  C.ar      1 <0>        -0.0399
       8  C7         -1.7290   28.4570   52.2970  C.ar      1 <0>        -0.1578
       9  C8         -0.1570   30.6600   54.8950  C.2       1 <0>         0.5697
      10  O2         -0.9830   31.5420   55.0290  O.2       1 <0>        -0.4966
      11  N1          1.0400   30.7600   55.5070  N.am      1 <0>        -0.6072
      12  C9          1.3290   31.8690   56.2900  C.2       1 <0>         0.3192
      13  N2          2.3600   32.6920   56.2240  N.2       1 <0>        -0.5314
      14  C10         2.4790   33.7120   57.0600  C.2       1 <0>         0.1124
      15  C11         1.5170   33.9180   58.0100  C.2       1 <0>        -0.2352
      16  S1          0.4020   32.5670   57.6490  S.3       1 <0>         0.1290
      17  C12         3.6460   34.6240   56.9680  C.ar      1 <0>        -0.0028
      18  C13         3.8290   35.4130   55.8340  C.ar      1 <0>        -0.1008
      19  C14         4.9160   36.2590   55.7540  C.ar      1 <0>        -0.0843
      20  C15         5.8240   36.3240   56.7970  C.ar      1 <0>        -0.0963
      21  C16         5.6470   35.5430   57.9250  C.ar      1 <0>        -0.0871
      22  C17         4.5590   34.6980   58.0180  C.ar      1 <0>        -0.0833
      23  I1          7.4720   37.6110   56.6670  I         1 <0>        -0.0420
@<TRIPOS>BOND
     1     1     2 1
     2     2     3 1
     3     3     8 ar
     4     3     4 ar
     5     4     5 ar
     6     5     6 ar
     7     6     7 ar
     8     6     9 1
     9     7     8 ar
    10     9    10 2
    11     9    11 am
    12    11    12 1
    13    12    16 1
    14    12    13 2
    15    13    14 1
    16    14    15 2
    17    14    17 1
    18    15    16 1
    19    17    22 ar
    20    17    18 ar
    21    18    19 ar
    22    19    20 ar
    23    20    21 ar
    24    20    23 1
    25    21    22 ar

@<TRIPOS>MOLECULE
ZINC22309219_replica-1.pdb
 24 27 0 0 0
SMALL
GASTEIGER

@<TRIPOS>ATOM
       1  C1          9.6200   32.8870   60.4910  C.3       1 <0>        -0.1253
       2  C2          9.8500   34.3270   60.8730  C.2       1 <0>        -0.0161
       3  C3          8.9700   35.3360   60.4370  C.2       1 <0>        -0.2475
       4  C4          9.2840   36.6360   60.8520  C.2       1 <0>         0.0829
       5  N1          8.5080   37.7030   60.4980  N.am      1 <0>        -0.6100
       6  C5          7.4130   37.5310   59.7310  C.2       1 <0>         0.7106
       7  O1          6.7400   38.4980   59.4290  O.2       1 <0>        -0.5163
       8  N2          7.0510   36.3140   59.2940  N.am      1 <0>        -0.5080
       9  C6          7.7570   35.2110   59.5970  C.2       1 <0>         0.5772
      10  O2          7.4050   34.1220   59.1820  O.2       1 <0>        -0.4808
      11  C7          5.9040   36.1910   58.4980  C.ar      1 <0>         0.1211
      12  C8          6.0090   36.2390   57.1140  C.ar      1 <0>        -0.0908
      13  C9          4.8770   36.1100   56.3330  C.ar      1 <0>        -0.1098
      14  C10         3.6400   35.9460   56.9280  C.ar      1 <0>        -0.1034
      15  C11         3.5320   35.9040   58.3060  C.ar      1 <0>        -0.1094
      16  C12         4.6600   36.0260   59.0920  C.ar      1 <0>        -0.0910
      17  S1         10.7160   36.4470   61.7910  S.3       1 <0>         0.2158
      18  C13        10.9090   34.6800   61.6440  C.2       1 <0>        -0.1561
      19  C14        11.9600   33.8150   62.2190  C.ar      1 <0>        -0.0033
      20  C15        11.6160   32.6130   62.8400  C.ar      1 <0>        -0.1032
      21  C16        12.6020   31.8060   63.3690  C.ar      1 <0>        -0.1163
      22  C17        13.9290   32.1930   63.2970  C.ar      1 <0>        -0.1104
      23  C18        14.2760   33.3860   62.6880  C.ar      1 <0>        -0.1160
      24  C19        13.3000   34.1980   62.1500  C.ar      1 <0>        -0.0944
@<TRIPOS>BOND
     1     1     2 1
     2     2    18 2
     3     2     3 1
     4     3     9 1
     5     3     4 2
     6     4     5 1
     7     4    17 1
     8     5     6 am
     9     6     7 2
    10     6     8 am
    11     8     9 am
    12     8    11 1
    13     9    10 2
    14    11    16 ar
    15    11    12 ar
    16    12    13 ar
    17    13    14 ar
    18    14    15 ar
    19    15    16 ar
    20    17    18 1
    21    18    19 1
    22    19    24 ar
    23    19    20 ar
    24    20    21 ar
    25    21    22 ar
    26    22    23 ar
    27    23    24 ar

@<TRIPOS>MOLECULE
ZINC62753568_replica-1.pdb
 19 19 0 0 0
SMALL
GASTEIGER

@<TRIPOS>ATOM
       1  C1         -2.9220   29.7220   55.7970  C.3       1 <0>        -0.1876
       2  C2         -1.5230   29.8360   56.4050  C.3       1 <0>         0.0309
       3  C3         -1.3280   28.7360   57.4490  C.3       1 <0>        -0.0811
       4  C4         -0.1330   27.8650   57.0540  C.3       1 <0>        -0.1841
       5  C5         -1.0660   29.3690   58.8160  C.3       1 <0>        -0.1674
       6  C6         -2.5870   27.8710   57.5200  C.3       1 <0>        -0.1438
       7  N1         -0.5160   29.6910   55.3450  N.4       1 <0>        -0.3837
       8  C7          0.4260   30.8160   55.4060  C.3       1 <0>        -0.0525
       9  C8         -1.1820   29.6800   54.0360  C.3       1 <0>         0.0221
      10  C9         -0.9830   28.3360   53.3830  C.ar      1 <0>        -0.2076
      11  C10        -0.1790   27.3870   53.9900  C.ar      1 <0>        -0.0841
      12  C11         0.0080   26.1550   53.4000  C.ar      1 <0>        -0.0899
      13  C12        -0.6190   25.8640   52.1840  C.ar      1 <0>        -0.0654
      14  C13        -1.4290   26.8240   51.5750  C.ar      1 <0>        -0.1129
      15  C14        -1.6110   28.0530   52.1810  C.ar      1 <0>         0.0962
      16  F1         -2.4000   28.9820   51.5980  F         1 <0>        -0.1435
      17  C15        -0.4220   24.5480   51.5470  C.2       1 <0>         0.5113
      18  O1         -0.1980   24.4760   50.3470  O.co2     1 <0>        -0.6658
      19  O2         -0.4840   23.5280   52.2200  O.co2     1 <0>        -0.6668
@<TRIPOS>BOND
     1     1     2 1
     2     2     3 1
     3     2     7 1
     4     3     4 1
     5     3     5 1
     6     3     6 1
     7     7     8 1
     8     7     9 1
     9     9    10 1
    10    10    15 ar
    11    10    11 ar
    12    11    12 ar
    13    12    13 ar
    14    13    14 ar
    15    13    17 1
    16    14    15 ar
    17    15    16 1
    18    17    18 2
    19    17    19 1

@<TRIPOS>MOLECULE
CHEMBL217852_replica-1.pdb
 28 32 0 0 0
SMALL
GASTEIGER

@<TRIPOS>ATOM
       1  C1         -0.5390   24.7480   51.8640  C.ar      1 <0>        -0.1173
       2  C2          0.0560   25.0270   53.0810  C.ar      1 <0>        -0.1171
       3  C3         -0.0290   26.2950   53.6200  C.ar      1 <0>        -0.1088
       4  C4         -0.7150   27.2950   52.9330  C.ar      1 <0>        -0.0473
       5  C5         -1.3120   27.0090   51.7070  C.ar      1 <0>        -0.1103
       6  C6         -1.2200   25.7370   51.1790  C.ar      1 <0>        -0.1176
       7  C7         -0.8110   28.6610   53.5070  C.ar      1 <0>        -0.0251
       8  C8         -1.8930   29.4780   53.1880  C.ar      1 <0>        -0.1224
       9  C9         -1.9820   30.7470   53.7220  C.ar      1 <0>        -0.0960
      10  C10        -0.9990   31.2130   54.5750  C.ar      1 <0>        -0.1181
      11  C11         0.0840   30.4050   54.8990  C.ar      1 <0>         0.1468
      12  C12         0.1770   29.1250   54.3710  C.ar      1 <0>        -0.1353
      13  N1          1.0770   30.8790   55.7640  N.am      1 <0>        -0.6699
      14  C13         0.8550   30.9130   57.0920  C.2       1 <0>         0.5281
      15  O1         -0.1680   30.4450   57.5480  O.2       1 <0>        -0.5078
      16  C14         1.8750   31.5330   58.0120  C.3       1 <0>        -0.1241
      17  C15         1.3310   31.6320   59.4560  C.3       1 <0>        -0.1470
      18  C16         1.8790   32.9440   59.9700  C.2       1 <0>         0.5202
      19  O2          1.9240   33.2690   61.1370  O.2       1 <0>        -0.5210
      20  N2          2.3100   33.6990   58.9440  N.am      1 <0>        -0.6067
      21  C17         2.1050   33.0200   57.6600  C.3       1 <0>         0.1128
      22  C18         2.9070   35.0290   59.0900  C.3       1 <0>         0.1553
      23  C19         3.1560   35.6640   57.7020  C.3       1 <0>        -0.1334
      24  C20         4.6980   35.8790   57.6380  C.3       1 <0>        -0.1024
      25  C21         5.2890   34.4400   57.5250  C.3       1 <0>        -0.1214
      26  C22         5.0410   33.8060   58.9120  C.3       1 <0>        -0.1206
      27  C23         4.3240   34.9210   59.7330  C.3       1 <0>        -0.1104
      28  C24         5.0100   36.2020   59.1420  C.3       1 <0>        -0.1233
@<TRIPOS>BOND
     1     1     6 ar
     2     1     2 ar
     3     2     3 ar
     4     3     4 ar
     5     4     5 ar
     6     4     7 1
     7     5     6 ar
     8     7    12 ar
     9     7     8 ar
    10     8     9 ar
    11     9    10 ar
    12    10    11 ar
    13    11    12 ar
    14    11    13 1
    15    13    14 am
    16    14    15 2
    17    14    16 1
    18    16    21 1
    19    16    17 1
    20    17    18 1
    21    18    19 2
    22    18    20 am
    23    20    21 1
    24    20    22 1
    25    22    27 1
    26    22    23 1
    27    23    24 1
    28    24    28 1
    29    24    25 1
    30    25    26 1
    31    26    27 1
    32    27    28 1

@<TRIPOS>MOLECULE
ZINC10157172_replica-1.pdb
 24 27 0 0 0
SMALL
GASTEIGER

@<TRIPOS>ATOM
       1  C1         11.2510   36.1440   62.1500  C.3       1 <0>        -0.1187
       2  C2         10.4020   36.1390   60.9050  C.ar      1 <0>        -0.0699
       3  C3         10.4110   35.0350   60.0700  C.ar      1 <0>        -0.1265
       4  C4          9.6370   35.0250   58.9280  C.ar      1 <0>        -0.0875
       5  C5          8.8460   36.1290   58.6150  C.ar      1 <0>        -0.0814
       6  C6          8.8450   37.2400   59.4580  C.ar      1 <0>        -0.0602
       7  C7          9.6190   37.2370   60.6000  C.ar      1 <0>        -0.1215
       8  C8          8.0130   36.1250   57.3900  C.ar      1 <0>         0.1212
       9  C9          8.5660   36.4260   56.1410  C.ar      1 <0>        -0.2196
      10  C10         7.7540   36.4120   55.0240  C.ar      1 <0>         0.1913
      11  N1          6.4690   36.1190   55.1060  N.ar      1 <0>        -0.5214
      12  C11         5.8880   35.8250   56.2590  C.ar      1 <0>         0.4102
      13  C12         6.6430   35.8190   57.4450  C.ar      1 <0>        -0.2756
      14  C13         5.7220   35.4610   58.5320  C.2       1 <0>         0.5655
      15  O1          6.0030   35.3520   59.7110  O.2       1 <0>        -0.4852
      16  N2          4.5070   35.2770   57.9770  N.am      1 <0>        -0.3419
      17  N3          4.5910   35.4940   56.5980  N.pl3     1 <0>        -0.4942
      18  C14         3.3460   34.9240   58.6710  C.ar      1 <0>         0.1675
      19  C15         2.2340   35.7560   58.6350  C.ar      1 <0>        -0.1475
      20  C16         1.0870   35.4020   59.3180  C.ar      1 <0>        -0.0799
      21  C17         1.0470   34.2260   60.0440  C.ar      1 <0>        -0.1370
      22  C18         2.1530   33.3980   60.0850  C.ar      1 <0>        -0.0534
      23  C19         3.3030   33.7430   59.4010  C.ar      1 <0>        -0.1575
      24  C20         2.1050   32.1170   60.8780  C.3       1 <0>        -0.1172
@<TRIPOS>BOND
     1     1     2 1
     2     2     7 ar
     3     2     3 ar
     4     3     4 ar
     5     4     5 ar
     6     5     6 ar
     7     5     8 1
     8     6     7 ar
     9     8    13 ar
    10     8     9 ar
    11     9    10 ar
    12    10    11 ar
    13    11    12 ar
    14    12    17 1
    15    12    13 ar
    16    13    14 1
    17    14    15 2
    18    14    16 am
    19    16    17 1
    20    16    18 1
    21    18    23 ar
    22    18    19 ar
    23    19    20 ar
    24    20    21 ar
    25    21    22 ar
    26    22    23 ar
    27    22    24 1

@<TRIPOS>MOLECULE
ZINC55503071_replica-1.pdb
 24 27 0 0 0
SMALL
GASTEIGER

@<TRIPOS>ATOM
       1  C1         11.3660   35.6680   62.0660  C.3       1 <0>        -0.1154
       2  C2         10.4890   35.8090   60.8480  C.ar      1 <0>        -0.0768
       3  C3         10.3170   34.7330   59.9950  C.ar      1 <0>        -0.1291
       4  C4          9.5150   34.8570   58.8790  C.ar      1 <0>        -0.0946
       5  C5          8.8770   36.0670   58.6120  C.ar      1 <0>        -0.0432
       6  C6          9.0540   37.1470   59.4750  C.ar      1 <0>        -0.0355
       7  C7          9.8540   37.0110   60.5920  C.ar      1 <0>        -0.1220
       8  C8          8.3680   38.4590   59.1930  C.3       1 <0>        -0.1114
       9  C9          8.0140   36.2060   57.4140  C.2       1 <0>        -0.0096
      10  C10         8.5590   36.4520   56.1970  C.2       1 <0>        -0.1847
      11  S1          7.1410   36.5290   55.1200  S.3       1 <0>         0.1512
      12  C11         5.8640   36.2320   56.3150  C.2       1 <0>         0.1125
      13  C12         6.5670   36.0750   57.5210  C.2       1 <0>        -0.2473
      14  C13         5.7640   35.8130   58.6770  C.2       1 <0>         0.5530
      15  O1          6.2820   35.6660   59.7700  O.2       1 <0>        -0.5059
      16  N1          4.4270   35.7330   58.5390  N.am      1 <0>        -0.6384
      17  C14         3.8330   35.8940   57.3290  C.2       1 <0>         0.4129
      18  N2          4.5380   36.1440   56.2580  N.2       1 <0>        -0.4696
      19  C15         2.3330   35.7970   57.2210  C.3       1 <0>        -0.0771
      20  C16         1.8170   34.7490   58.2090  C.3       1 <0>         0.0987
      21  C17         0.3780   34.3150   57.8300  C.3       1 <0>        -0.1557
      22  C18         0.3190   32.9010   58.4720  C.3       1 <0>        -0.1555
      23  C19         1.7700   32.4030   58.2990  C.3       1 <0>         0.0485
      24  O2          2.6070   33.5540   58.1250  O.3       1 <0>        -0.3630
@<TRIPOS>BOND
     1     1     2 1
     2     2     7 ar
     3     2     3 ar
     4     3     4 ar
     5     4     5 ar
     6     5     6 ar
     7     5     9 1
     8     6     7 ar
     9     6     8 1
    10     9    13 1
    11     9    10 2
    12    10    11 1
    13    11    12 1
    14    12    18 1
    15    12    13 2
    16    13    14 1
    17    14    15 2
    18    14    16 am
    19    16    17 1
    20    17    18 2
    21    17    19 1
    22    19    20 1
    23    20    24 1
    24    20    21 1
    25    21    22 1
    26    22    23 1
    27    23    24 1

@<TRIPOS>MOLECULE
ZINC08425913_replica-1.pdb
 31 36 0 0 0
SMALL
GASTEIGER

@<TRIPOS>ATOM
       1  C1          3.7430   35.9250   56.1710  C.ar      1 <0>        -0.1291
       2  C2          4.8810   35.6800   56.9170  C.ar      1 <0>        -0.0766
       3  C3          4.7720   35.2720   58.2330  C.ar      1 <0>        -0.1528
       4  C4          3.5220   35.1080   58.8050  C.ar      1 <0>         0.1196
       5  C5          2.3830   35.3540   58.0580  C.ar      1 <0>        -0.1588
       6  C6          2.4940   35.7620   56.7430  C.ar      1 <0>        -0.0688
       7  C7          1.0210   35.1770   58.6800  C.3       1 <0>         0.1452
       8  N1          0.8220   33.7660   59.0250  N.pl3     1 <0>        -0.4568
       9  C8          0.9290   32.7330   58.1520  C.2       1 <0>         0.1342
      10  C9          0.6820   31.5550   58.8010  C.2       1 <0>        -0.1985
      11  C10         0.3960   31.9040   60.2060  C.ar      1 <0>        -0.0725
      12  C11         0.5030   33.3020   60.2850  C.ar      1 <0>         0.0937
      13  C12         0.2790   33.9340   61.5030  C.ar      1 <0>        -0.1173
      14  C13        -0.0370   33.1890   62.6180  C.ar      1 <0>        -0.0963
      15  C14        -0.1380   31.8080   62.5380  C.ar      1 <0>        -0.1293
      16  C15         0.0770   31.1630   61.3390  C.ar      1 <0>        -0.0759
      17  C16         0.6980   30.2140   58.2170  C.2       1 <0>         0.1574
      18  C17         0.1730   30.0040   56.9780  C.2       1 <0>        -0.2741
      19  C18         0.2470   28.8490   56.1540  C.2       1 <0>         0.5627
      20  O1          0.8480   27.8590   56.5310  O.2       1 <0>        -0.4713
      21  N2         -0.3570   28.8600   54.9570  N.am      1 <0>        -0.5128
      22  C19        -0.5220   27.9690   53.8810  C.ar      1 <0>         0.0743
      23  C20        -0.0950   26.6700   53.6640  C.ar      1 <0>        -0.0967
      24  C21        -0.4180   26.0340   52.4810  C.ar      1 <0>        -0.0925
      25  C22        -1.1670   26.6880   51.5140  C.ar      1 <0>        -0.1136
      26  C23        -1.5970   27.9810   51.7170  C.ar      1 <0>        -0.0586
      27  C24        -1.2770   28.6370   52.9090  C.ar      1 <0>         0.0606
      28  N3         -1.5480   29.8770   53.3930  N.2       1 <0>        -0.4136
      29  C25        -1.0170   30.0060   54.5730  C.2       1 <0>         0.2578
      30  S1         -0.7880   31.1070   55.9530  S.3       1 <0>         0.1197
      31  F1          3.4140   34.7090   60.0910  F         1 <0>        -0.1325
@<TRIPOS>BOND
     1     1     6 ar
     2     1     2 ar
     3     2     3 ar
     4     3     4 ar
     5     4     5 ar
     6     4    31 1
     7     5     6 ar
     8     5     7 1
     9     7     8 1
    10     8    12 1
    11     8     9 1
    12     9    10 2
    13    10    11 1
    14    10    17 1
    15    11    16 ar
    16    11    12 ar
    17    12    13 ar
    18    13    14 ar
    19    14    15 ar
    20    15    16 ar
    21    17    18 2
    22    18    30 1
    23    18    19 1
    24    19    20 2
    25    19    21 am
    26    21    29 1
    27    21    22 1
    28    22    27 ar
    29    22    23 ar
    30    23    24 ar
    31    24    25 ar
    32    25    26 ar
    33    26    27 ar
    34    27    28 1
    35    28    29 2
    36    29    30 1

@<TRIPOS>MOLECULE
ZINC40313779_replica-1.pdb
 30 33 0 0 0
SMALL
GASTEIGER

@<TRIPOS>ATOM
       1  C1          8.2360   33.7550   56.5190  C.3       1 <0>        -0.1088
       2  C2          8.6150   33.9420   57.9660  C.ar      1 <0>        -0.1077
       3  C3          9.4670   34.9670   58.3300  C.ar      1 <0>        -0.0815
       4  C4          9.8150   35.1390   59.6580  C.ar      1 <0>        -0.1427
       5  C5          9.3110   34.2870   60.6230  C.ar      1 <0>        -0.0863
       6  C6          8.4590   33.2610   60.2630  C.ar      1 <0>        -0.2049
       7  C7          8.1040   33.0890   58.9330  C.ar      1 <0>         0.1155
       8  O1          7.2610   32.0840   58.5790  O.3       1 <0>        -0.2985
       9  C8          5.8670   32.2970   58.8060  C.3       1 <0>         0.0324
      10  C9          5.0670   31.7320   57.6300  C.3       1 <0>         0.0906
      11  C10         4.6720   32.8720   56.6880  C.3       1 <0>        -0.0458
      12  N1          4.1660   34.0040   57.4750  N.4       1 <0>        -0.3797
      13  C11         4.8000   35.2460   57.0120  C.3       1 <0>         0.0159
      14  C12         5.4840   35.9230   58.1710  C.ar      1 <0>        -0.1569
      15  C13         5.1290   35.6160   59.4500  C.ar      1 <0>        -0.0669
      16  C14         5.7500   36.2320   60.5330  C.ar      1 <0>        -0.1321
      17  C15         6.7290   37.1590   60.3470  C.ar      1 <0>        -0.0589
      18  C16         7.1220   37.5020   59.0420  C.ar      1 <0>        -0.0573
      19  C17         6.4940   36.8710   57.9390  C.ar      1 <0>        -0.0296
      20  C18         6.8910   37.2090   56.6340  C.ar      1 <0>        -0.1478
      21  C19         7.8750   38.1320   56.4480  C.ar      1 <0>        -0.0796
      22  C20         8.4960   38.7480   57.5320  C.ar      1 <0>        -0.1144
      23  C21         8.1290   38.4550   58.8090  C.ar      1 <0>        -0.0874
      24  C22         2.7100   34.1050   57.3060  C.3       1 <0>         0.0856
      25  C23         2.0400   34.0240   58.6530  C.2       1 <0>        -0.1121
      26  C24         1.0120   34.7860   59.0680  C.2       1 <0>        -0.1330
      27  C25         0.7030   34.3750   60.3850  C.2       1 <0>        -0.2167
      28  C26         1.5610   33.3880   60.6970  C.2       1 <0>         0.0125
      29  O2          2.3650   33.1760   59.6420  O.3       1 <0>        -0.1723
      30  O3          3.8880   31.0900   58.1200  O.3       1 <0>        -0.5374
@<TRIPOS>BOND
     1     1     2 1
     2     2     7 ar
     3     2     3 ar
     4     3     4 ar
     5     4     5 ar
     6     5     6 ar
     7     6     7 ar
     8     7     8 1
     9     8     9 1
    10     9    10 1
    11    10    11 1
    12    10    30 1
    13    11    12 1
    14    12    13 1
    15    12    24 1
    16    13    14 1
    17    14    19 ar
    18    14    15 ar
    19    15    16 ar
    20    16    17 ar
    21    17    18 ar
    22    18    23 ar
    23    18    19 ar
    24    19    20 ar
    25    20    21 ar
    26    21    22 ar
    27    22    23 ar
    28    24    25 1
    29    25    29 1
    30    25    26 2
    31    26    27 1
    32    27    28 2
    33    28    29 1

@<TRIPOS>MOLECULE
ZINC59292486_replica-1.pdb
 24 26 0 0 0
SMALL
GASTEIGER

@<TRIPOS>ATOM
       1  C1         -0.4210   30.8630   63.7220  C.3       1 <0>        -0.1109
       2  C2         -0.2120   31.8600   62.6100  C.ar      1 <0>        -0.1106
       3  C3         -0.4980   33.2010   62.8250  C.ar      1 <0>        -0.0967
       4  C4         -0.3140   34.1280   61.8230  C.ar      1 <0>        -0.1260
       5  C5          0.1640   33.7180   60.5820  C.ar      1 <0>         0.0904
       6  C6          0.4530   32.3580   60.3700  C.ar      1 <0>        -0.0958
       7  C7          0.2650   31.4360   61.4010  C.ar      1 <0>        -0.0727
       8  C8          0.9290   32.2560   58.9880  C.2       1 <0>        -0.1740
       9  C9          0.9000   33.4950   58.4710  C.2       1 <0>         0.0616
      10  N1          0.4460   34.3820   59.4090  N.pl3     1 <0>        -0.5945
      11  C10         1.3650   31.0000   58.2810  C.3       1 <0>        -0.0520
      12  C11         1.3740   31.2420   56.7700  C.3       1 <0>         0.1240
      13  N2          0.6360   30.1680   56.1000  N.am      1 <0>        -0.7345
      14  C12        -0.6480   30.3590   55.7370  C.2       1 <0>         0.5125
      15  O1         -1.1930   31.4180   55.9650  O.2       1 <0>        -0.5337
      16  C13        -1.4080   29.2550   55.0470  C.3       1 <0>        -0.1339
      17  C14        -1.2770   29.4160   53.5310  C.3       1 <0>        -0.0348
      18  C15        -2.5480   30.0580   52.9740  C.3       1 <0>        -0.1499
      19  C16        -1.0790   28.0630   52.8980  C.ar      1 <0>        -0.0778
      20  C17        -1.7300   27.7490   51.7190  C.ar      1 <0>        -0.1157
      21  C18        -1.5490   26.5080   51.1390  C.ar      1 <0>        -0.1184
      22  C19        -0.7160   25.5800   51.7370  C.ar      1 <0>        -0.1245
      23  C20        -0.0640   25.8930   52.9140  C.ar      1 <0>        -0.1178
      24  C21        -0.2420   27.1370   53.4920  C.ar      1 <0>        -0.1161
@<TRIPOS>BOND
     1     1     2 1
     2     2     7 ar
     3     2     3 ar
     4     3     4 ar
     5     4     5 ar
     6     5    10 1
     7     5     6 ar
     8     6     7 ar
     9     6     8 1
    10     8     9 2
    11     8    11 1
    12     9    10 1
    13    11    12 1
    14    12    13 1
    15    13    14 am
    16    14    15 2
    17    14    16 1
    18    16    17 1
    19    17    18 1
    20    17    19 1
    21    19    24 ar
    22    19    20 ar
    23    20    21 ar
    24    21    22 ar
    25    22    23 ar
    26    23    24 ar

@<TRIPOS>MOLECULE
ZINC37532678_replica-1.pdb
 19 19 0 0 0
SMALL
GASTEIGER

@<TRIPOS>ATOM
       1  C1          8.7270   32.3960   60.0730  C.3       1 <0>        -0.1171
       2  C2          9.5730   33.5210   60.6110  C.ar      1 <0>        -0.0656
       3  C3         10.6710   33.2420   61.4020  C.ar      1 <0>        -0.1206
       4  C4         11.4480   34.2740   61.8950  C.ar      1 <0>        -0.0649
       5  C5         11.1260   35.5850   61.5960  C.ar      1 <0>        -0.1264
       6  C6         10.0280   35.8630   60.8040  C.ar      1 <0>        -0.0800
       7  C7          9.2550   34.8310   60.3070  C.ar      1 <0>        -0.0805
       8  C8          8.0610   35.1340   59.4390  C.3       1 <0>        -0.1188
       9  C9          8.5360   35.5630   58.0490  C.3       1 <0>         0.1124
      10  C10         7.4500   36.4050   57.3760  C.3       1 <0>        -0.1488
      11  C11         8.1040   37.4610   56.4830  C.3       1 <0>        -0.0943
      12  C12         7.1040   37.9210   55.4210  C.3       1 <0>        -0.1489
      13  C13         8.5300   38.6590   57.3360  C.3       1 <0>        -0.1505
      14  O1          8.7990   34.4030   57.2570  O.3       1 <0>        -0.5527
      15  C14         9.6770   37.2920   60.4790  C.3       1 <0>        -0.1170
      16  C15        12.6450   33.9700   62.7590  C.3       1 <0>        -0.0296
      17  C16        13.9230   34.1310   61.9350  C.3       1 <0>        -0.1384
      18  C17        12.6770   34.9380   63.9440  C.3       1 <0>        -0.1442
      19  C18        12.5480   32.5330   63.2770  C.3       1 <0>        -0.1382
@<TRIPOS>BOND
     1     1     2 1
     2     2     7 ar
     3     2     3 ar
     4     3     4 ar
     5     4     5 ar
     6     4    16 1
     7     5     6 ar
     8     6     7 ar
     9     6    15 1
    10     7     8 1
    11     8     9 1
    12     9    10 1
    13     9    14 1
    14    10    11 1
    15    11    12 1
    16    11    13 1
    17    16    17 1
    18    16    18 1
    19    16    19 1

@<TRIPOS>MOLECULE
ZINC37865182_replica-1.pdb
 21 23 0 0 0
SMALL
GASTEIGER

@<TRIPOS>ATOM
       1  C1          0.3440   27.8810   55.7110  C.3       1 <0>        -0.1287
       2  C2         -0.6030   28.6420   54.7810  C.3       1 <0>        -0.0214
       3  C3         -1.9540   28.8350   55.4740  C.3       1 <0>        -0.1425
       4  C4         -0.0010   30.0080   54.4470  C.3       1 <0>         0.0686
       5  N1          0.9650   30.3850   55.4880  N.3       1 <0>        -0.6796
       6  C5          0.7140   31.7500   55.9690  C.3       1 <0>         0.1036
       7  C6          0.6880   31.7540   57.4760  C.ar      1 <0>        -0.0711
       8  C7          0.3970   30.5920   58.1660  C.ar      1 <0>        -0.1060
       9  C8          0.3730   30.5910   59.5470  C.ar      1 <0>        -0.1101
      10  C9          0.6400   31.7540   60.2460  C.ar      1 <0>        -0.0993
      11  C10         0.9330   32.9230   59.5630  C.ar      1 <0>         0.0278
      12  C11         0.9630   32.9210   58.1710  C.ar      1 <0>         0.0598
      13  O1          1.2780   34.1770   57.7390  O.3       1 <0>        -0.2962
      14  C12         1.0450   35.0400   58.8680  C.3       1 <0>         0.2108
      15  O2          1.2270   34.1800   60.0040  O.3       1 <0>        -0.3091
      16  C13        -0.7980   27.8550   53.5100  C.ar      1 <0>        -0.0683
      17  C14        -1.5010   28.4080   52.4570  C.ar      1 <0>        -0.1241
      18  C15        -1.6800   27.6860   51.2910  C.ar      1 <0>        -0.1175
      19  C16        -1.1560   26.4120   51.1790  C.ar      1 <0>        -0.1259
      20  C17        -0.4530   25.8600   52.2330  C.ar      1 <0>        -0.1174
      21  C18        -0.2700   26.5830   53.3980  C.ar      1 <0>        -0.1142
@<TRIPOS>BOND
     1     1     2 1
     2     2     3 1
     3     2     4 1
     4     2    16 1
     5     4     5 1
     6     5     6 1
     7     6     7 1
     8     7    12 ar
     9     7     8 ar
    10     8     9 ar
    11     9    10 ar
    12    10    11 ar
    13    11    15 1
    14    11    12 ar
    15    12    13 1
    16    13    14 1
    17    14    15 1
    18    16    21 ar
    19    16    17 ar
    20    17    18 ar
    21    18    19 ar
    22    19    20 ar
    23    20    21 ar

@<TRIPOS>MOLECULE
ZINC01076361_replica-1.pdb
 25 28 0 0 0
SMALL
GASTEIGER

@<TRIPOS>ATOM
       1  C1          5.3760   36.0940   57.8120  C.ar      1 <0>        -0.1030
       2  C2          5.7460   36.1780   59.1420  C.ar      1 <0>        -0.1133
       3  C3          5.1090   35.4000   60.0910  C.ar      1 <0>        -0.1273
       4  C4          4.0990   34.5360   59.7130  C.ar      1 <0>         0.0511
       5  C5          3.7240   34.4490   58.3760  C.ar      1 <0>         0.0812
       6  C6          4.3700   35.2300   57.4260  C.ar      1 <0>        -0.1100
       7  N1          2.7030   33.5760   57.9890  N.pl3     1 <0>        -0.4902
       8  C7          1.8460   34.1880   56.9640  C.3       1 <0>         0.0599
       9  C8          0.6970   33.2360   56.6270  C.3       1 <0>         0.0481
      10  N2          1.2470   31.9570   56.1550  N.pl3     1 <0>        -0.4231
      11  C9          2.1040   31.3440   57.1800  C.3       1 <0>         0.0565
      12  C10         3.2530   32.2980   57.5170  C.3       1 <0>         0.0423
      13  C11         0.2350   31.0920   55.7720  C.2       1 <0>         0.3089
      14  N3          0.2840   30.0630   54.9460  N.2       1 <0>        -0.5166
      15  C12        -0.8010   29.3350   54.6880  C.2       1 <0>         0.1186
      16  C13        -1.9800   29.6550   55.2980  C.2       1 <0>        -0.2029
      17  S1         -1.4810   31.0690   56.2710  S.3       1 <0>        -0.0226
      18  C14        -0.7270   28.1860   53.7530  C.ar      1 <0>        -0.0369
      19  C15        -0.0330   27.0330   54.1150  C.ar      1 <0>        -0.0554
      20  C16         0.0290   25.9650   53.2450  C.ar      1 <0>        -0.1557
      21  C17        -0.5900   26.0400   52.0080  C.ar      1 <0>         0.1051
      22  C18        -1.2780   27.1860   51.6410  C.ar      1 <0>        -0.1534
      23  C19        -1.3490   28.2580   52.5080  C.ar      1 <0>        -0.0747
      24  F1         -0.5240   24.9940   51.1560  F         1 <0>        -0.1376
      25  F2          3.4770   33.7740   60.6400  F         1 <0>        -0.1347
@<TRIPOS>BOND
     1     1     6 ar
     2     1     2 ar
     3     2     3 ar
     4     3     4 ar
     5     4     5 ar
     6     4    25 1
     7     5     6 ar
     8     5     7 1
     9     7    12 1
    10     7     8 1
    11     8     9 1
    12     9    10 1
    13    10    11 1
    14    10    13 1
    15    11    12 1
    16    13    17 1
    17    13    14 2
    18    14    15 1
    19    15    16 2
    20    15    18 1
    21    16    17 1
    22    18    23 ar
    23    18    19 ar
    24    19    20 ar
    25    20    21 ar
    26    21    22 ar
    27    21    24 1
    28    22    23 ar

@<TRIPOS>MOLECULE
ZINC37106099_replica-1.pdb
 20 21 0 0 0
SMALL
GASTEIGER

@<TRIPOS>ATOM
       1  C1         12.1570   29.1470   64.8560  C.3       1 <0>        -0.1553
       2  C2         12.9830   29.8390   63.7690  C.3       1 <0>        -0.1207
       3  C3         12.5990   31.3190   63.7020  C.3       1 <0>        -0.0893
       4  C4         13.7850   32.1300   63.1770  C.3       1 <0>        -0.1119
       5  C5         13.4020   33.6100   63.1100  C.3       1 <0>        -0.1257
       6  C6         12.2080   33.7850   62.1680  C.3       1 <0>         0.1545
       7  C7         11.0220   32.9730   62.6920  C.3       1 <0>        -0.1347
       8  C8         11.4050   31.4940   62.7610  C.3       1 <0>        -0.1134
       9  N1         11.8400   35.2010   62.1040  N.pl3     1 <0>        -0.7475
      10  C9         10.8780   35.6330   61.1830  C.ar      1 <0>         0.1845
      11  C10        10.1970   36.8230   61.3970  C.ar      1 <0>        -0.1583
      12  C11         9.2480   37.2490   60.4870  C.ar      1 <0>        -0.1018
      13  C12         8.9770   36.4880   59.3600  C.ar      1 <0>         0.0726
      14  C13         9.6580   35.2990   59.1460  C.ar      1 <0>        -0.1598
      15  C14        10.6100   34.8730   60.0510  C.ar      1 <0>        -0.1578
      16  O1          8.0430   36.9080   58.4660  O.3       1 <0>        -0.3109
      17  C15         7.9970   38.3090   58.1850  C.3       1 <0>         0.0631
      18  C16         8.4210   38.5530   56.7360  C.3       1 <0>         0.0618
      19  O2          7.3420   38.2180   55.8600  O.3       1 <0>        -0.3847
      20  C17         7.5200   36.9820   55.1650  C.3       1 <0>         0.0303
@<TRIPOS>BOND
     1     1     2 1
     2     2     3 1
     3     3     8 1
     4     3     4 1
     5     4     5 1
     6     5     6 1
     7     6     7 1
     8     6     9 1
     9     7     8 1
    10     9    10 1
    11    10    15 ar
    12    10    11 ar
    13    11    12 ar
    14    12    13 ar
    15    13    14 ar
    16    13    16 1
    17    14    15 ar
    18    16    17 1
    19    17    18 1
    20    18    19 1
    21    19    20 1

@<TRIPOS>MOLECULE
ZINC21500031_replica-1.pdb
 20 22 0 0 0
SMALL
GASTEIGER

@<TRIPOS>ATOM
       1  C1         12.1650   29.9590   64.3460  C.3       1 <0>        -0.1560
       2  C2         12.8700   30.8260   63.3000  C.3       1 <0>        -0.1260
       3  C3         11.9790   32.0170   62.9400  C.3       1 <0>        -0.1144
       4  C4         12.7670   33.3160   63.1200  C.3       1 <0>        -0.1013
       5  C5         14.2580   32.9940   63.2440  C.3       1 <0>        -0.1504
       6  C6         12.5400   34.2210   61.9080  C.3       1 <0>         0.1307
       7  N1         11.1810   34.0230   61.3980  N.pl3     1 <0>        -0.7550
       8  C7         10.4840   35.0950   60.8280  C.ar      1 <0>         0.2102
       9  C8         10.2730   36.2580   61.5630  C.ar      1 <0>        -0.1600
      10  C9          9.5890   37.3200   61.0130  C.ar      1 <0>        -0.0631
      11  C10         9.1010   37.2390   59.7140  C.ar      1 <0>         0.0222
      12  C11         9.3140   36.0680   58.9740  C.ar      1 <0>        -0.0695
      13  C12        10.0050   34.9990   59.5330  C.ar      1 <0>        -0.1507
      14  C13         8.6820   36.3050   57.6610  C.ar      1 <0>        -0.1298
      15  C14         8.5480   35.5470   56.5020  C.ar      1 <0>        -0.0596
      16  C15         7.8820   36.0710   55.4150  C.ar      1 <0>        -0.1437
      17  C16         7.3490   37.3490   55.4760  C.ar      1 <0>        -0.0811
      18  C17         7.4770   38.1100   56.6190  C.ar      1 <0>        -0.1204
      19  C18         8.1440   37.5980   57.7260  C.ar      1 <0>         0.0904
      20  O1          8.4150   38.1150   58.9440  O.3       1 <0>        -0.2027
@<TRIPOS>BOND
     1     1     2 1
     2     2     3 1
     3     3     4 1
     4     4     5 1
     5     4     6 1
     6     6     7 1
     7     7     8 1
     8     8    13 ar
     9     8     9 ar
    10     9    10 ar
    11    10    11 ar
    12    11    20 1
    13    11    12 ar
    14    12    13 ar
    15    12    14 1
    16    14    19 ar
    17    14    15 ar
    18    15    16 ar
    19    16    17 ar
    20    17    18 ar
    21    18    19 ar
    22    19    20 1

@<TRIPOS>MOLECULE
ZINC07666000_replica-1.pdb
 22 24 0 0 0
SMALL
GASTEIGER

@<TRIPOS>ATOM
       1  C1         -0.2010   32.0600   62.8190  C.ar      1 <0>        -0.1211
       2  C2          0.2130   33.1810   62.1260  C.ar      1 <0>        -0.1199
       3  C3          0.6560   33.0630   60.8210  C.ar      1 <0>        -0.1011
       4  C4          0.6850   31.8240   60.2110  C.ar      1 <0>        -0.0738
       5  C5          0.2660   30.7030   60.9030  C.ar      1 <0>        -0.1136
       6  C6         -0.1720   30.8200   62.2090  C.ar      1 <0>        -0.1199
       7  C7          1.1680   31.6940   58.7890  C.3       1 <0>         0.0984
       8  N1          0.3070   30.7560   58.0650  N.2       1 <0>        -0.5980
       9  C8         -0.4490   31.1820   57.0910  C.2       1 <0>         0.3832
      10  N2         -0.3450   32.4840   56.6600  N.pl3     1 <0>        -0.8696
      11  S1         -1.6040   30.0910   56.3300  S.3       1 <0>        -0.0447
      12  C9         -0.8090   29.8670   54.7190  C.3       1 <0>        -0.0470
      13  C10        -0.3770   28.4300   54.5680  C.ar      1 <0>        -0.0736
      14  C11         0.3190   27.8160   55.5650  C.ar      1 <0>        -0.0904
      15  C12         0.7260   26.4900   55.4430  C.ar      1 <0>        -0.1178
      16  C13         0.4400   25.7680   54.3250  C.ar      1 <0>        -0.0958
      17  C14        -0.2780   26.3680   53.2750  C.ar      1 <0>        -0.0533
      18  C15        -0.6960   27.7160   53.4010  C.ar      1 <0>        -0.0356
      19  C16        -1.4100   28.3160   52.3500  C.ar      1 <0>        -0.1064
      20  C17        -1.6960   27.5950   51.2320  C.ar      1 <0>        -0.1110
      21  C18        -1.2870   26.2680   51.1100  C.ar      1 <0>        -0.1156
      22  C19        -0.5920   25.6550   52.1060  C.ar      1 <0>        -0.1049
@<TRIPOS>BOND
     1     1     6 ar
     2     1     2 ar
     3     2     3 ar
     4     3     4 ar
     5     4     5 ar
     6     4     7 1
     7     5     6 ar
     8     7     8 1
     9     8     9 2
    10     9    10 1
    11     9    11 1
    12    11    12 1
    13    12    13 1
    14    13    18 ar
    15    13    14 ar
    16    14    15 ar
    17    15    16 ar
    18    16    17 ar
    19    17    22 ar
    20    17    18 ar
    21    18    19 ar
    22    19    20 ar
    23    20    21 ar
    24    21    22 ar

@<TRIPOS>MOLECULE
CHEMBL258931_replica-1.pdb
 20 21 0 0 0
SMALL
GASTEIGER

@<TRIPOS>ATOM
       1  C1         12.9420   30.7190   63.4000  C.3       1 <0>        -0.1546
       2  C2         12.4670   32.1290   63.0460  C.3       1 <0>        -0.1259
       3  C3         13.6580   33.0870   63.0570  C.3       1 <0>        -0.1213
       4  C4         13.3990   34.2360   62.0790  C.3       1 <0>        -0.1210
       5  C5         11.9310   34.2190   61.6490  C.3       1 <0>        -0.1144
       6  C6         11.3040   35.5870   61.9230  C.3       1 <0>        -0.0835
       7  C7         10.3890   35.9570   60.7840  C.ar      1 <0>        -0.0543
       8  C8         10.2110   35.0810   59.7300  C.ar      1 <0>        -0.1138
       9  C9          9.3730   35.4160   58.6830  C.ar      1 <0>        -0.0915
      10  C10         8.7100   36.6320   58.6870  C.ar      1 <0>         0.0616
      11  C11         8.8900   37.5150   59.7490  C.ar      1 <0>         0.1194
      12  C12         9.7260   37.1710   60.7980  C.ar      1 <0>        -0.1336
      13  O1          8.2420   38.7100   59.7580  O.3       1 <0>        -0.4925
      14  O2          7.8860   36.9630   57.6570  O.3       1 <0>        -0.2259
      15  C13         6.5990   36.5470   57.7140  C.ar      1 <0>         0.5014
      16  N1          5.9860   36.4990   58.8870  N.ar      1 <0>        -0.5519
      17  C14         4.7290   36.0970   58.9780  C.ar      1 <0>         0.1860
      18  C15         4.0540   35.7230   57.8270  C.ar      1 <0>        -0.2653
      19  C16         4.7250   35.7860   56.6170  C.ar      1 <0>         0.1862
      20  N2          5.9810   36.2030   56.5960  N.ar      1 <0>        -0.5227
@<TRIPOS>BOND
     1     1     2 1
     2     2     3 1
     3     3     4 1
     4     4     5 1
     5     5     6 1
     6     6     7 1
     7     7    12 ar
     8     7     8 ar
     9     8     9 ar
    10     9    10 ar
    11    10    11 ar
    12    10    14 1
    13    11    12 ar
    14    11    13 1
    15    14    15 1
    16    15    20 ar
    17    15    16 ar
    18    16    17 ar
    19    17    18 ar
    20    18    19 ar
    21    19    20 ar

@<TRIPOS>MOLECULE
ZINC52252500_replica-1.pdb
 19 19 0 0 0
SMALL
GASTEIGER

@<TRIPOS>ATOM
       1  C1          4.5340   35.8880   58.0300  C.3       1 <0>        -0.1567
       2  C2          5.7460   36.4520   58.7730  C.3       1 <0>        -0.0899
       3  C3          5.8370   35.8090   60.1590  C.3       1 <0>        -0.1860
       4  C4          7.0180   36.1410   57.9820  C.3       1 <0>        -0.1073
       5  C5          6.7170   36.1900   56.5060  C.2       1 <0>         0.4677
       6  O1          6.1080   37.1250   56.0440  O.2       1 <0>        -0.4882
       7  O2          7.1280   35.1940   55.7060  O.3       1 <0>        -0.3448
       8  C6          6.8020   33.8630   56.1080  C.3       1 <0>         0.0297
       9  C7          8.0920   37.1790   58.3180  C.3       1 <0>         0.1962
      10  C8          7.4290   38.4320   58.8930  C.3       1 <0>        -0.1440
      11  C9          9.0450   36.6040   59.3330  C.ar      1 <0>        -0.1542
      12  C10         9.2960   37.2880   60.5090  C.ar      1 <0>        -0.0533
      13  C11        10.1700   36.7630   61.4420  C.ar      1 <0>        -0.1584
      14  C12        10.7960   35.5510   61.2000  C.ar      1 <0>         0.1330
      15  C13        10.5460   34.8660   60.0240  C.ar      1 <0>        -0.1878
      16  C14         9.6660   35.3900   59.0930  C.ar      1 <0>         0.1307
      17  F1          9.4160   34.7200   57.9460  F         1 <0>        -0.1124
      18  F2         11.6510   35.0370   62.1110  F         1 <0>        -0.1280
      19  O3          8.8100   37.5220   57.1310  O.3       1 <0>        -0.5522
@<TRIPOS>BOND
     1     1     2 1
     2     2     3 1
     3     2     4 1
     4     4     5 1
     5     4     9 1
     6     5     6 2
     7     5     7 1
     8     7     8 1
     9     9    10 1
    10     9    11 1
    11     9    19 1
    12    11    16 ar
    13    11    12 ar
    14    12    13 ar
    15    13    14 ar
    16    14    15 ar
    17    14    18 1
    18    15    16 ar
    19    16    17 1

@<TRIPOS>MOLECULE
ZINC09454098_replica-1.pdb
 25 26 0 0 0
SMALL
GASTEIGER

@<TRIPOS>ATOM
       1  C1         14.0950   33.7220   62.4390  C.3       1 <0>        -0.1538
       2  C2         12.7610   34.1690   63.0400  C.3       1 <0>         0.0633
       3  O1         11.7990   34.3910   61.9750  O.3       1 <0>        -0.3549
       4  C3         11.2850   35.6310   61.8630  C.2       1 <0>         0.5136
       5  O2         11.5650   36.4810   62.6850  O.2       1 <0>        -0.5102
       6  C4         10.3830   35.9560   60.7440  C.ar      1 <0>        -0.1689
       7  C5         10.2190   35.0530   59.6900  C.ar      1 <0>        -0.0179
       8  C6          9.3720   35.3590   58.6480  C.ar      1 <0>        -0.1612
       9  C7          8.6870   36.5690   58.6390  C.ar      1 <0>         0.1689
      10  C8          8.8510   37.4720   59.6820  C.ar      1 <0>        -0.2269
      11  C9          9.6930   37.1730   60.7290  C.ar      1 <0>        -0.0093
      12  O3          7.8570   36.8690   57.6080  O.3       1 <0>        -0.2776
      13  C10         7.5950   35.8300   56.6620  C.3       1 <0>         0.0632
      14  C11         7.9220   36.3300   55.2530  C.3       1 <0>        -0.1783
      15  C12         6.1410   35.4420   56.7320  C.2       1 <0>         0.5191
      16  O4          5.5110   35.2620   55.7110  O.2       1 <0>        -0.5104
      17  N1          5.5390   35.2940   57.9300  N.am      1 <0>        -0.7216
      18  C13         4.1250   34.9160   57.9980  C.3       1 <0>         0.1521
      19  C14         3.3130   36.0810   58.5680  C.3       1 <0>        -0.1318
      20  C15         1.8370   35.6860   58.6390  C.3       1 <0>        -0.1174
      21  C16         1.6790   34.4630   59.5440  C.3       1 <0>        -0.1191
      22  C17         2.4920   33.2990   58.9730  C.3       1 <0>        -0.0840
      23  C18         3.9680   33.6930   58.9020  C.3       1 <0>        -0.0928
      24  C19         4.4750   34.0280   60.3060  C.3       1 <0>        -0.1567
      25  C20         2.3340   32.0740   59.8780  C.3       1 <0>        -0.1498
@<TRIPOS>BOND
     1     1     2 1
     2     2     3 1
     3     3     4 1
     4     4     5 2
     5     4     6 1
     6     6    11 ar
     7     6     7 ar
     8     7     8 ar
     9     8     9 ar
    10     9    10 ar
    11     9    12 1
    12    10    11 ar
    13    12    13 1
    14    13    14 1
    15    13    15 1
    16    15    16 2
    17    15    17 am
    18    17    18 1
    19    18    23 1
    20    18    19 1
    21    19    20 1
    22    20    21 1
    23    21    22 1
    24    22    23 1
    25    22    25 1
    26    23    24 1

@<TRIPOS>MOLECULE
ZINC20603839_replica-1.pdb
 27 29 0 0 0
SMALL
GASTEIGER

@<TRIPOS>ATOM
       1  C1         13.6310   34.1560   61.7680  C.3       1 <0>        -0.1423
       2  C2         12.3270   34.0850   62.5660  C.3       1 <0>        -0.0350
       3  C3         12.3570   35.1280   63.6850  C.3       1 <0>        -0.1496
       4  C4         12.1770   32.6890   63.1740  C.3       1 <0>        -0.1423
       5  C5         11.1620   34.3620   61.6520  C.ar      1 <0>        -0.0350
       6  C6         10.9340   35.6490   61.1970  C.ar      1 <0>        -0.1237
       7  C7          9.8690   35.9100   60.3600  C.ar      1 <0>        -0.0574
       8  C8          9.0210   34.8730   59.9730  C.ar      1 <0>        -0.0860
       9  C9          9.2530   33.5790   60.4370  C.ar      1 <0>        -0.0785
      10  C10        10.3240   33.3300   61.2700  C.ar      1 <0>        -0.1261
      11  C11         7.8740   35.1470   59.0730  C.ar      1 <0>         0.2735
      12  C12         8.1030   35.7670   57.8430  C.ar      1 <0>        -0.1507
      13  C13         7.0450   36.0220   57.0080  C.ar      1 <0>        -0.0325
      14  C14         5.7690   35.6460   57.4290  C.ar      1 <0>        -0.2137
      15  C15         5.6040   35.0230   58.6820  C.ar      1 <0>         0.4032
      16  N1          6.6520   34.7980   59.4530  N.ar      1 <0>        -0.4803
      17  N2          4.3270   34.6690   59.0710  N.pl3     1 <0>        -0.4735
      18  C16         3.2670   34.9070   58.2540  C.2       1 <0>         0.5558
      19  N3          3.3820   35.4870   57.0770  N.am      1 <0>        -0.6069
      20  C17         4.5730   35.8790   56.6010  C.2       1 <0>         0.5495
      21  O1          4.6640   36.4130   55.5090  O.2       1 <0>        -0.4536
      22  S1          1.6620   34.4270   58.8000  S.2       1 <0>        -0.5535
      23  C18         4.1160   34.0230   60.3700  C.3       1 <0>         0.0524
      24  C19         7.2550   36.6900   55.6740  C.3       1 <0>         0.5169
      25  F1          6.5650   37.9070   55.6480  F         1 <0>        -0.1696
      26  F2          8.6200   36.9230   55.4780  F         1 <0>        -0.1563
      27  F3          6.7730   35.8590   54.6560  F         1 <0>        -0.1563
@<TRIPOS>BOND
     1     1     2 1
     2     2     3 1
     3     2     4 1
     4     2     5 1
     5     5    10 ar
     6     5     6 ar
     7     6     7 ar
     8     7     8 ar
     9     8     9 ar
    10     8    11 1
    11     9    10 ar
    12    11    16 ar
    13    11    12 ar
    14    12    13 ar
    15    13    14 ar
    16    13    24 1
    17    14    20 1
    18    14    15 ar
    19    15    16 ar
    20    15    17 1
    21    17    23 1
    22    17    18 1
    23    18    22 2
    24    18    19 1
    25    19    20 am
    26    20    21 2
    27    24    25 1
    28    24    26 1
    29    24    27 1

@<TRIPOS>MOLECULE
ZINC17113061_replica-1.pdb
 22 24 0 0 0
SMALL
GASTEIGER

@<TRIPOS>ATOM
       1  C1         -1.3160   27.1810   51.8040  C.ar      1 <0>        -0.0619
       2  C2         -1.2870   25.9230   51.2390  C.ar      1 <0>        -0.1505
       3  C3         -0.6310   24.8870   51.8840  C.ar      1 <0>         0.1218
       4  C4          0.0030   25.1080   53.0960  C.ar      1 <0>        -0.1509
       5  C5         -0.0170   26.3630   53.6680  C.ar      1 <0>        -0.0398
       6  C6         -0.6760   27.4110   53.0230  C.ar      1 <0>        -0.0232
       7  C7         -0.7000   28.7580   53.6310  C.2       1 <0>         0.0961
       8  N1         -1.6530   29.6820   53.6220  N.2       1 <0>        -0.2428
       9  N2         -1.5100   30.7920   54.2020  N.2       1 <0>        -0.2780
      10  C8         -0.3950   31.1080   54.8480  C.2       1 <0>         0.2967
      11  S1          0.5500   29.6080   54.5900  S.3       1 <0>        -0.0009
      12  N3         -0.0590   32.2670   55.5350  N.am      1 <0>        -0.6226
      13  C9          0.2910   32.2020   56.8350  C.2       1 <0>         0.5615
      14  O1          0.3110   31.1300   57.4070  O.2       1 <0>        -0.4598
      15  C10         0.6500   33.4340   57.5660  C.ar      1 <0>        -0.1466
      16  C11         1.1520   34.5390   56.8750  C.ar      1 <0>        -0.0221
      17  C12         1.4850   35.6860   57.5620  C.ar      1 <0>        -0.1576
      18  C13         1.3220   35.7440   58.9380  C.ar      1 <0>         0.1348
      19  C14         0.8240   34.6500   59.6300  C.ar      1 <0>        -0.1584
      20  C15         0.4880   33.4980   58.9520  C.ar      1 <0>        -0.0552
      21  F1          1.6510   36.8710   59.6070  F         1 <0>        -0.1289
      22  F2         -0.6110   23.6550   51.3280  F         1 <0>        -0.1316
@<TRIPOS>BOND
     1     1     6 ar
     2     1     2 ar
     3     2     3 ar
     4     3     4 ar
     5     3    22 1
     6     4     5 ar
     7     5     6 ar
     8     6     7 1
     9     7    11 1
    10     7     8 2
    11     8     9 1
    12     9    10 2
    13    10    11 1
    14    10    12 1
    15    12    13 am
    16    13    14 2
    17    13    15 1
    18    15    20 ar
    19    15    16 ar
    20    16    17 ar
    21    17    18 ar
    22    18    19 ar
    23    18    21 1
    24    19    20 ar

@<TRIPOS>MOLECULE
ZINC13389671_replica-1.pdb
 23 24 0 0 0
SMALL
GASTEIGER

@<TRIPOS>ATOM
       1  C1         13.9860   32.0390   63.4790  C.3       1 <0>        -0.1466
       2  C2         12.8690   32.7550   62.7190  C.3       1 <0>        -0.0927
       3  C3         11.5120   32.3220   63.2780  C.3       1 <0>        -0.1525
       4  C4         13.0280   34.2670   62.8830  C.3       1 <0>        -0.0773
       5  C5         11.9430   34.9740   62.1100  C.ar      1 <0>        -0.0620
       6  C6         11.4370   36.1740   62.5760  C.ar      1 <0>        -0.1268
       7  C7         10.4440   36.8260   61.8740  C.ar      1 <0>        -0.0595
       8  C8          9.9510   36.2720   60.6910  C.ar      1 <0>        -0.1251
       9  C9         10.4630   35.0580   60.2300  C.ar      1 <0>        -0.0790
      10  C10        11.4590   34.4190   60.9390  C.ar      1 <0>        -0.1255
      11  C11         8.8870   36.9650   59.9330  C.2       1 <0>         0.5657
      12  O1          8.9750   38.1580   59.7150  O.2       1 <0>        -0.5411
      13  N1          7.8210   36.2740   59.4840  N.am      1 <0>        -0.6945
      14  C12         6.7670   36.9600   58.7320  C.3       1 <0>         0.2452
      15  C13         5.3980   36.4840   59.2230  C.3       1 <0>        -0.1656
      16  C14         5.5400   35.1310   59.8720  C.2       1 <0>         0.4606
      17  O2          5.5670   35.0390   61.0770  O.co2     1 <0>        -0.6253
      18  C15         6.9120   36.6490   57.2650  C.2       1 <0>        -0.1194
      19  C16         8.0090   36.7470   56.4760  C.2       1 <0>        -0.1669
      20  C17         7.9070   36.4020   55.1410  C.2       1 <0>        -0.1453
      21  C18         6.7130   35.9770   54.6610  C.2       1 <0>        -0.1946
      22  S1          5.6830   36.0490   56.1170  S.3       1 <0>         0.0280
      23  O3          5.6290   34.0280   59.1130  O.co2     1 <0>        -0.7697
@<TRIPOS>BOND
     1     1     2 1
     2     2     3 1
     3     2     4 1
     4     4     5 1
     5     5    10 ar
     6     5     6 ar
     7     6     7 ar
     8     7     8 ar
     9     8     9 ar
    10     8    11 1
    11     9    10 ar
    12    11    12 2
    13    11    13 am
    14    13    14 1
    15    14    15 1
    16    14    18 1
    17    15    16 1
    18    16    17 2
    19    16    23 1
    20    18    22 1
    21    18    19 2
    22    19    20 1
    23    20    21 2
    24    21    22 1

@<TRIPOS>MOLECULE
ZINC00076979_replica-1.pdb
 20 22 0 0 0
SMALL
GASTEIGER

@<TRIPOS>ATOM
       1  C1         -0.5210   24.6390   51.2360  C.3       1 <0>        -0.1175
       2  C2         -0.5890   25.8750   52.0940  C.ar      1 <0>        -0.0789
       3  C3         -1.2590   26.9960   51.6360  C.ar      1 <0>        -0.1252
       4  C4         -1.3250   28.1310   52.4190  C.ar      1 <0>        -0.0803
       5  C5         -0.7140   28.1480   53.6710  C.ar      1 <0>        -0.0337
       6  C6         -0.0350   27.0180   54.1250  C.ar      1 <0>        -0.0980
       7  C7          0.0200   25.8860   53.3370  C.ar      1 <0>        -0.1223
       8  C8         -0.7800   29.3650   54.5160  C.2       1 <0>         0.1348
       9  C9         -1.9590   29.7420   55.0920  C.2       1 <0>        -0.2367
      10  S1         -1.4510   31.2220   55.9560  S.3       1 <0>         0.0194
      11  C10         0.2670   31.1910   55.4660  C.2       1 <0>         0.3657
      12  N1          0.3070   30.1060   54.7130  N.2       1 <0>        -0.5548
      13  N2          1.2860   32.0740   55.7860  N.pl3     1 <0>        -0.6101
      14  C11         1.1810   32.8800   56.9230  C.ar      1 <0>         0.1571
      15  C12         0.7930   34.2090   56.8010  C.ar      1 <0>        -0.1550
      16  C13         0.6910   35.0020   57.9260  C.ar      1 <0>        -0.0876
      17  C14         0.9750   34.4760   59.1740  C.ar      1 <0>        -0.1319
      18  C15         1.3610   33.1540   59.2990  C.ar      1 <0>        -0.0890
      19  C16         1.4600   32.3540   58.1780  C.ar      1 <0>        -0.1094
      20  C17         1.8760   30.9120   58.3160  C.3       1 <0>        -0.1138
@<TRIPOS>BOND
     1     1     2 1
     2     2     7 ar
     3     2     3 ar
     4     3     4 ar
     5     4     5 ar
     6     5     6 ar
     7     5     8 1
     8     6     7 ar
     9     8    12 1
    10     8     9 2
    11     9    10 1
    12    10    11 1
    13    11    12 2
    14    11    13 1
    15    13    14 1
    16    14    19 ar
    17    14    15 ar
    18    15    16 ar
    19    16    17 ar
    20    17    18 ar
    21    18    19 ar
    22    19    20 1

@<TRIPOS>MOLECULE
ZINC16327961_replica-1.pdb
 25 26 0 0 0
SMALL
GASTEIGER

@<TRIPOS>ATOM
       1  C1         10.9790   34.9260   61.0330  C.3       1 <0>        -0.1537
       2  C2          9.9420   34.5910   59.9580  C.3       1 <0>        -0.0848
       3  C3          9.4150   35.8660   59.3550  C.ar      1 <0>        -0.0564
       4  C4          9.3910   37.0270   60.1020  C.ar      1 <0>        -0.1230
       5  C5          8.9020   38.1970   59.5490  C.ar      1 <0>        -0.0996
       6  C6          8.4410   38.2100   58.2460  C.ar      1 <0>        -0.1189
       7  C7          8.4680   37.0550   57.4910  C.ar      1 <0>        -0.0637
       8  C8          8.9580   35.8780   58.0420  C.ar      1 <0>         0.1309
       9  N1          8.9860   34.7060   57.2820  N.pl3     1 <0>        -0.6180
      10  C9          7.8650   33.8820   57.2320  C.2       1 <0>         0.3515
      11  N2          7.6550   32.8010   56.5080  N.2       1 <0>        -0.3560
      12  N3          6.4600   32.1270   56.6140  N.2       1 <0>        -0.2754
      13  C10         5.5300   32.5680   57.4390  C.2       1 <0>         0.0303
      14  S1          6.3250   34.0130   58.1270  S.3       1 <0>         0.0020
      15  S2          3.9280   31.9120   57.7690  S.3       1 <0>         0.1156
      16  C11         2.8680   32.6880   56.5180  C.3       1 <0>        -0.1193
      17  C12         2.7130   34.1770   56.8350  C.3       1 <0>        -0.1442
      18  C13         1.5140   32.0280   56.5280  C.2       1 <0>         0.5397
      19  O1          0.7120   32.3000   57.3960  O.2       1 <0>        -0.5195
      20  N4          1.1940   31.1350   55.5700  N.am      1 <0>        -0.7172
      21  C14        -0.1220   30.4880   55.5830  C.3       1 <0>         0.1362
      22  C15        -0.7740   30.6340   54.2070  C.3       1 <0>        -0.1622
      23  C16         0.0440   29.0040   55.9140  C.3       1 <0>        -0.1661
      24  C17         7.9660   37.0700   56.0700  C.3       1 <0>        -0.0858
      25  C18         7.1720   38.3550   55.8230  C.3       1 <0>        -0.1445
@<TRIPOS>BOND
     1     1     2 1
     2     2     3 1
     3     3     8 ar
     4     3     4 ar
     5     4     5 ar
     6     5     6 ar
     7     6     7 ar
     8     7     8 ar
     9     7    24 1
    10     8     9 1
    11     9    10 1
    12    10    14 1
    13    10    11 2
    14    11    12 1
    15    12    13 2
    16    13    14 1
    17    13    15 1
    18    15    16 1
    19    16    17 1
    20    16    18 1
    21    18    19 2
    22    18    20 am
    23    20    21 1
    24    21    22 1
    25    21    23 1
    26    24    25 1

@<TRIPOS>MOLECULE
ZINC13774568_replica-1.pdb
 22 23 0 0 0
SMALL
GASTEIGER

@<TRIPOS>ATOM
       1  C1          7.3410   38.8850   59.1800  C.3       1 <0>        -0.1460
       2  C2          8.7050   38.2130   59.0130  C.3       1 <0>        -0.1225
       3  C3          8.5360   36.6930   59.0770  C.3       1 <0>         0.1919
       4  C4          9.5590   36.1140   60.0200  C.ar      1 <0>        -0.1003
       5  C5         10.1280   34.8830   59.7520  C.ar      1 <0>        -0.1139
       6  C6         11.0650   34.3500   60.6170  C.ar      1 <0>        -0.1141
       7  C7         11.4350   35.0510   61.7510  C.ar      1 <0>        -0.0706
       8  C8         10.8680   36.2820   62.0180  C.ar      1 <0>        -0.1087
       9  C9          9.9330   36.8160   61.1510  C.ar      1 <0>        -0.0990
      10  C10        12.4570   34.4710   62.6940  C.3       1 <0>        -0.0593
      11  C11        12.0040   33.0800   63.1450  C.3       1 <0>        -0.1454
      12  C12        13.8050   34.3620   61.9790  C.3       1 <0>        -0.1454
      13  N1          8.7250   36.1230   57.7410  N.pl3     1 <0>        -0.6903
      14  C13         7.6820   35.5150   57.1040  C.cat     1 <0>         0.5335
      15  N2          6.5500   36.2240   56.8160  N.pl3     1 <0>        -0.6951
      16  C14         5.2330   35.6630   57.1290  C.3       1 <0>         0.1489
      17  C15         4.1960   36.2170   56.1500  C.3       1 <0>        -0.1274
      18  C16         2.8220   35.6310   56.4770  C.3       1 <0>        -0.1150
      19  C17         2.4310   36.0140   57.9060  C.3       1 <0>        -0.1235
      20  C18         3.4670   35.4600   58.8850  C.3       1 <0>        -0.1143
      21  C19         4.8420   36.0460   58.5580  C.3       1 <0>        -0.1270
      22  S1          7.7870   33.9130   56.6800  S.3       1 <0>        -0.5676
@<TRIPOS>BOND
     1     1     2 1
     2     2     3 1
     3     3     4 1
     4     3    13 1
     5     4     9 ar
     6     4     5 ar
     7     5     6 ar
     8     6     7 ar
     9     7     8 ar
    10     7    10 1
    11     8     9 ar
    12    10    11 1
    13    10    12 1
    14    13    14 2
    15    14    15 1
    16    14    22 1
    17    15    16 1
    18    16    21 1
    19    16    17 1
    20    17    18 1
    21    18    19 1
    22    19    20 1
    23    20    21 1

@<TRIPOS>MOLECULE
ZINC47205738_replica-1.pdb
 22 24 0 0 0
SMALL
GASTEIGER

@<TRIPOS>ATOM
       1  C1          6.5280   37.8800   60.0150  C.ar      1 <0>        -0.0971
       2  C2          7.3040   36.8670   60.5400  C.ar      1 <0>        -0.0411
       3  C3          8.5710   36.6140   60.0100  C.ar      1 <0>         0.0468
       4  C4          9.0460   37.3890   58.9490  C.ar      1 <0>        -0.1373
       5  C5          8.2580   38.4010   58.4320  C.ar      1 <0>         0.0838
       6  C6          7.0020   38.6460   58.9640  C.ar      1 <0>        -0.1473
       7  F1          8.7150   39.1520   57.4060  F         1 <0>        -0.1458
       8  C7          9.4040   35.5320   60.5670  C.2       1 <0>        -0.1013
       9  C8          9.2800   34.1420   60.4280  C.2       1 <0>         0.0305
      10  N1         10.1650   33.3680   61.0340  N.2       1 <0>        -0.4343
      11  C9         11.1470   33.8720   61.7550  C.2       1 <0>         0.1098
      12  S1         10.8590   35.6290   61.6030  S.3       1 <0>        -0.0150
      13  C10        12.2160   33.1650   62.4930  C.ar      1 <0>         0.0354
      14  C11        13.4880   33.7290   62.5950  C.ar      1 <0>        -0.1113
      15  C12        14.4820   33.0660   63.2850  C.ar      1 <0>        -0.0891
      16  C13        14.2200   31.8440   63.8770  C.ar      1 <0>        -0.1479
      17  C14        12.9590   31.2780   63.7820  C.ar      1 <0>         0.1011
      18  C15        11.9550   31.9350   63.0970  C.ar      1 <0>        -0.1119
      19  F2         12.7110   30.0830   64.3620  F         1 <0>        -0.1364
      20  C16         8.1950   33.5610   59.6310  C.2       1 <0>         0.5447
      21  O1          7.1220   33.2980   60.1590  O.co2     1 <0>        -0.6655
      22  O2          8.3620   33.3390   58.4380  O.co2     1 <0>        -0.6592
@<TRIPOS>BOND
     1     1     6 ar
     2     1     2 ar
     3     2     3 ar
     4     3     4 ar
     5     3     8 1
     6     4     5 ar
     7     5     6 ar
     8     5     7 1
     9     8    12 1
    10     8     9 2
    11     9    10 1
    12     9    20 1
    13    10    11 2
    14    11    12 1
    15    11    13 1
    16    13    18 ar
    17    13    14 ar
    18    14    15 ar
    19    15    16 ar
    20    16    17 ar
    21    17    18 ar
    22    17    19 1
    23    20    21 2
    24    20    22 1

@<TRIPOS>MOLECULE
ZINC05217973_replica-1.pdb
 24 25 0 0 0
SMALL
GASTEIGER

@<TRIPOS>ATOM
       1  C1         12.6010   29.3760   64.6100  C.3       1 <0>        -0.1111
       2  C2         12.5180   30.7270   63.9460  C.ar      1 <0>        -0.1255
       3  C3         11.2980   31.2050   63.5050  C.ar      1 <0>        -0.0805
       4  C4         11.2190   32.4420   62.8950  C.ar      1 <0>        -0.1487
       5  C5         12.3660   33.2060   62.7280  C.ar      1 <0>         0.1249
       6  C6         13.5890   32.7220   63.1670  C.ar      1 <0>        -0.2063
       7  C7         13.6620   31.4860   63.7810  C.ar      1 <0>        -0.0804
       8  O1         12.2900   34.4240   62.1300  O.3       1 <0>        -0.3112
       9  C8         11.4100   34.5430   61.0110  C.3       1 <0>         0.0904
      10  C9         10.5740   35.7880   61.1580  C.2       1 <0>        -0.1690
      11  C10         9.8390   36.2060   60.1580  C.2       1 <0>        -0.1018
      12  C11         9.7250   35.3730   58.9070  C.3       1 <0>        -0.1280
      13  C12         9.1090   37.5210   60.2560  C.3       1 <0>        -0.0769
      14  C13         7.7250   37.2910   60.8670  C.3       1 <0>        -0.0882
      15  C14         6.6930   37.2480   59.7710  C.2       1 <0>        -0.1626
      16  C15         5.9910   36.1590   59.5740  C.2       1 <0>        -0.1242
      17  C16         6.1360   34.9890   60.5140  C.3       1 <0>        -0.1206
      18  C17         5.0400   36.0760   58.4090  C.3       1 <0>        -0.0813
      19  C18         3.8320   35.2200   58.7960  C.3       1 <0>        -0.0988
      20  C19         2.5450   35.9460   58.4010  C.3       1 <0>        -0.0079
      21  C20         1.3570   35.0940   57.9470  C.3       1 <0>         0.0104
      22  O2          1.3900   35.7450   59.2190  O.3       1 <0>        -0.3493
      23  C21         0.4330   35.6740   56.8740  C.3       1 <0>        -0.1329
      24  C22         1.5380   33.5760   57.9180  C.3       1 <0>        -0.1319
@<TRIPOS>BOND
     1     1     2 1
     2     2     7 ar
     3     2     3 ar
     4     3     4 ar
     5     4     5 ar
     6     5     6 ar
     7     5     8 1
     8     6     7 ar
     9     8     9 1
    10     9    10 1
    11    10    11 2
    12    11    12 1
    13    11    13 1
    14    13    14 1
    15    14    15 1
    16    15    16 2
    17    16    17 1
    18    16    18 1
    19    18    19 1
    20    19    20 1
    21    20    22 1
    22    20    21 1
    23    21    22 1
    24    21    23 1
    25    21    24 1

@<TRIPOS>MOLECULE
ZINC57901906_replica-1.pdb
 21 22 0 0 0
SMALL
GASTEIGER

@<TRIPOS>ATOM
       1  C1         -0.6240   25.1240   51.6700  C.3       1 <0>        -0.1124
       2  C2         -0.5940   26.3310   52.5730  C.ar      1 <0>        -0.0857
       3  C3         -1.3000   27.4690   52.2300  C.ar      1 <0>        -0.1275
       4  C4         -1.2730   28.5750   53.0580  C.ar      1 <0>        -0.0679
       5  C5         -0.5400   28.5430   54.2300  C.ar      1 <0>        -0.0755
       6  C6          0.1640   27.4050   54.5740  C.ar      1 <0>        -0.0679
       7  C7          0.1330   26.2970   53.7480  C.ar      1 <0>        -0.1275
       8  C8          0.9620   27.3690   55.8520  C.3       1 <0>        -0.1289
       9  C9         -0.5100   29.7490   55.1320  C.3       1 <0>        -0.0847
      10  C10        -1.6500   29.6550   56.1480  C.3       1 <0>         0.0492
      11  C11        -2.6140   30.8250   55.9420  C.3       1 <0>        -0.1408
      12  C12        -2.4000   28.3360   55.9520  C.3       1 <0>        -0.1408
      13  C13        -1.0860   29.7110   57.5450  C.2       1 <0>        -0.0055
      14  N1         -0.2600   30.5880   58.0420  N.2       1 <0>        -0.4405
      15  C14         0.1200   30.4540   59.3180  C.2       1 <0>        -0.0003
      16  C15        -0.4160   29.3750   59.9940  C.2       1 <0>        -0.2632
      17  S1         -1.3860   28.6620   58.8210  S.3       1 <0>         0.1529
      18  C16         1.0490   31.3940   59.9590  C.2       1 <0>         0.5494
      19  O1          1.0990   32.5580   59.5830  O.co2     1 <0>        -0.6663
      20  O2          1.7720   31.0130   60.8710  O.co2     1 <0>        -0.6855
      21  C17        -2.0400   29.8160   52.6820  C.3       1 <0>        -0.1290
@<TRIPOS>BOND
     1     1     2 1
     2     2     7 ar
     3     2     3 ar
     4     3     4 ar
     5     4     5 ar
     6     4    21 1
     7     5     6 ar
     8     5     9 1
     9     6     7 ar
    10     6     8 1
    11     9    10 1
    12    10    11 1
    13    10    12 1
    14    10    13 1
    15    13    17 1
    16    13    14 2
    17    14    15 1
    18    15    16 2
    19    15    18 1
    20    16    17 1
    21    18    19 2
    22    18    20 1

@<TRIPOS>MOLECULE
ZINC09239983_replica-1.pdb
 28 30 0 0 0
SMALL
GASTEIGER

@<TRIPOS>ATOM
       1  C1          5.3000   36.1520   56.6520  C.ar      1 <0>        -0.1162
       2  C2          6.5030   36.5960   57.1620  C.ar      1 <0>        -0.1517
       3  C3          7.6440   35.8190   57.0270  C.ar      1 <0>         0.0902
       4  C4          7.5750   34.5910   56.3850  C.ar      1 <0>        -0.0881
       5  C5          6.3710   34.1420   55.8790  C.ar      1 <0>        -0.1033
       6  C6          5.2290   34.9210   56.0140  C.ar      1 <0>         0.1431
       7  N1          4.0080   34.4670   55.5020  N.pl3     1 <0>        -0.6088
       8  C7          3.2080   33.6270   56.2590  C.2       1 <0>         0.3595
       9  N2          2.2830   32.7760   55.8620  N.2       1 <0>        -0.5456
      10  C8          1.5990   32.0390   56.7390  C.2       1 <0>         0.0342
      11  C9          1.8720   32.1730   58.0770  C.2       1 <0>        -0.1556
      12  S1          3.1590   33.4120   58.0330  S.3       1 <0>         0.0429
      13  C10         0.5710   31.0930   56.2780  C.2       1 <0>         0.5900
      14  O1         -0.3500   30.7890   57.0130  O.2       1 <0>        -0.5325
      15  N3          0.6480   30.5630   55.0410  N.am      1 <0>        -0.7135
      16  C11        -0.3760   29.6230   54.5810  C.3       1 <0>         0.1238
      17  C12         0.2190   28.2150   54.5080  C.3       1 <0>        -0.0980
      18  C13        -0.3340   27.4970   53.3040  C.2       1 <0>        -0.1216
      19  C14         0.0270   26.2700   53.1100  C.2       1 <0>        -0.1467
      20  C15        -0.4320   25.4300   51.9540  C.3       1 <0>        -0.0917
      21  C16        -1.6690   26.0560   51.3070  C.3       1 <0>        -0.1219
      22  C17        -1.3860   27.5420   51.0520  C.3       1 <0>        -0.1212
      23  C18        -1.2740   28.2490   52.4060  C.3       1 <0>        -0.0836
      24  O2          8.8310   36.2590   57.5240  O.3       1 <0>        -0.3080
      25  C19         9.1880   35.8180   58.8360  C.3       1 <0>         0.6036
      26  F1          9.5420   36.9210   59.6190  F         1 <0>        -0.1635
      27  F2          8.0990   35.1620   59.4200  F         1 <0>        -0.1285
      28  F3         10.2720   34.9380   58.7520  F         1 <0>        -0.1639
@<TRIPOS>BOND
     1     1     6 ar
     2     1     2 ar
     3     2     3 ar
     4     3     4 ar
     5     3    24 1
     6     4     5 ar
     7     5     6 ar
     8     6     7 1
     9     7     8 1
    10     8    12 1
    11     8     9 2
    12     9    10 1
    13    10    11 2
    14    10    13 1
    15    11    12 1
    16    13    14 2
    17    13    15 am
    18    15    16 1
    19    16    17 1
    20    17    18 1
    21    18    23 1
    22    18    19 2
    23    19    20 1
    24    20    21 1
    25    21    22 1
    26    22    23 1
    27    24    25 1
    28    25    26 1
    29    25    27 1
    30    25    28 1

@<TRIPOS>MOLECULE
ZINC07380431_replica-1.pdb
 24 27 0 0 0
SMALL
GASTEIGER

@<TRIPOS>ATOM
       1  C1         -0.0110   33.5920   58.5860  C.3       1 <0>        -0.1474
       2  C2          1.1820   34.4210   58.1040  C.3       1 <0>        -0.0868
       3  C3          2.2620   34.4470   59.1900  C.3       1 <0>        -0.1176
       4  C4          3.3400   35.4680   58.8250  C.3       1 <0>        -0.0575
       5  C5          3.8390   35.1780   57.4130  C.2       1 <0>        -0.0509
       6  C6          3.1030   34.4210   56.5650  C.2       1 <0>        -0.1721
       7  S1          4.0500   34.3470   55.0660  S.3       1 <0>         0.1497
       8  C7          5.4260   35.3270   55.5760  C.2       1 <0>         0.0866
       9  C8          5.1010   35.6830   56.9040  C.2       1 <0>        -0.2492
      10  C9          6.0480   36.5020   57.6080  C.2       1 <0>         0.5616
      11  O1          5.8630   36.8640   58.7580  O.2       1 <0>        -0.5109
      12  N1          7.1570   36.8470   56.9130  N.am      1 <0>        -0.5241
      13  C10         7.3820   36.4560   55.6350  C.2       1 <0>         0.3770
      14  N2          6.5400   35.7050   54.9580  N.2       1 <0>        -0.4689
      15  C11         8.1640   37.6820   57.5740  C.3       1 <0>         0.1296
      16  C12         8.9230   36.8540   58.5790  C.ar      1 <0>        -0.1287
      17  C13         9.2680   35.5490   58.2760  C.ar      1 <0>        -0.0678
      18  C14         9.9680   34.7890   59.1910  C.ar      1 <0>        -0.1365
      19  C15        10.3170   35.3330   60.4220  C.ar      1 <0>        -0.0709
      20  C16         9.9640   36.6420   60.7240  C.ar      1 <0>        -0.1025
      21  C17         9.2690   37.3990   59.8020  C.ar      1 <0>        -0.0821
      22  S2         11.2060   34.3640   61.5950  S.3       1 <0>        -0.1128
      23  C18        11.9780   35.5920   62.6840  C.3       1 <0>        -0.1457
      24  C19         1.7740   33.7850   56.8380  C.3       1 <0>        -0.0325
@<TRIPOS>BOND
     1     1     2 1
     2     2    24 1
     3     2     3 1
     4     3     4 1
     5     4     5 1
     6     5     9 1
     7     5     6 2
     8     6     7 1
     9     6    24 1
    10     7     8 1
    11     8    14 1
    12     8     9 2
    13     9    10 1
    14    10    11 2
    15    10    12 am
    16    12    13 1
    17    12    15 1
    18    13    14 2
    19    15    16 1
    20    16    21 ar
    21    16    17 ar
    22    17    18 ar
    23    18    19 ar
    24    19    20 ar
    25    19    22 1
    26    20    21 ar
    27    22    23 1

@<TRIPOS>MOLECULE
ZINC39971304_replica-1.pdb
 30 33 0 0 0
SMALL
GASTEIGER

@<TRIPOS>ATOM
       1  C1          3.4010   35.8380   56.4640  C.ar      1 <0>        -0.1172
       2  C2          4.5070   36.3460   55.8060  C.ar      1 <0>        -0.0692
       3  C3          5.7720   36.1400   56.3220  C.ar      1 <0>        -0.1818
       4  C4          5.9330   35.4260   57.4950  C.ar      1 <0>        -0.0694
       5  C5          4.8280   34.9190   58.1530  C.ar      1 <0>        -0.0977
       6  C6          3.5620   35.1240   57.6370  C.ar      1 <0>        -0.0468
       7  C7          2.3570   34.5720   58.3530  C.3       1 <0>         0.0882
       8  N1          1.8830   33.3680   57.6570  N.3       1 <0>        -0.5305
       9  C8          0.6790   33.6560   56.8670  C.3       1 <0>         0.0370
      10  C9          0.3230   32.4300   56.0180  C.3       1 <0>         0.1227
      11  N2          0.2190   31.2620   56.9060  N.pl3     1 <0>        -0.9995
      12  C10         1.3330   30.9880   57.8280  C.3       1 <0>         0.1222
      13  C11         1.6490   32.2710   58.6050  C.3       1 <0>         0.0443
      14  S1         -1.1140   30.2820   56.8680  S.o2      1 <0>         2.6901
      15  O1         -1.1650   29.6160   58.1220  O.2       1 <0>        -0.9544
      16  O2         -2.1880   31.0760   56.3820  O.2       1 <0>        -0.9538
      17  C12        -0.8150   29.0420   55.6510  C.ar      1 <0>        -0.6777
      18  C13        -0.0230   27.9500   55.9540  C.ar      1 <0>        -0.0248
      19  C14         0.2080   26.9860   54.9960  C.ar      1 <0>        -0.1395
      20  C15        -0.3480   27.1010   53.7280  C.ar      1 <0>        -0.0189
      21  C16        -1.1410   28.1860   53.4290  C.ar      1 <0>        -0.0962
      22  C17        -1.3740   29.1560   54.3960  C.ar      1 <0>        -0.0178
      23  C18        -1.7900   28.3690   52.0820  C.3       1 <0>        -0.0838
      24  C19        -1.1130   27.4850   51.0350  C.3       1 <0>        -0.1222
      25  C20        -1.0510   26.0530   51.5780  C.3       1 <0>        -0.1217
      26  C21        -0.0480   26.0160   52.7280  C.3       1 <0>        -0.0914
      27  C22         6.9780   36.6920   55.6050  C.3       1 <0>         0.5074
      28  F1          6.8250   38.0720   55.4310  F         1 <0>        -0.1763
      29  F2          8.1270   36.4430   56.3650  F         1 <0>        -0.1767
      30  F3          7.1010   36.0740   54.3560  F         1 <0>        -0.1768
@<TRIPOS>BOND
     1     1     6 ar
     2     1     2 ar
     3     2     3 ar
     4     3     4 ar
     5     3    27 1
     6     4     5 ar
     7     5     6 ar
     8     6     7 1
     9     7     8 1
    10     8    13 1
    11     8     9 1
    12     9    10 1
    13    10    11 1
    14    11    12 1
    15    11    14 1
    16    12    13 1
    17    14    15 2
    18    14    16 2
    19    14    17 1
    20    17    22 ar
    21    17    18 ar
    22    18    19 ar
    23    19    20 ar
    24    20    26 1
    25    20    21 ar
    26    21    22 ar
    27    21    23 1
    28    23    24 1
    29    24    25 1
    30    25    26 1
    31    27    28 1
    32    27    29 1
    33    27    30 1

@<TRIPOS>MOLECULE
ZINC35429831_replica-1.pdb
 28 30 0 0 0
SMALL
GASTEIGER

@<TRIPOS>ATOM
       1  C1          1.4110   33.8950   60.1100  C.3       1 <0>        -0.1488
       2  C2          0.4900   34.2790   58.9500  C.3       1 <0>        -0.1087
       3  C3          1.1620   35.3600   58.1010  C.3       1 <0>        -0.0841
       4  S1          2.8480   35.6460   58.7100  S.3       1 <0>        -0.2644
       5  C4          3.8470   35.7560   57.2010  C.3       1 <0>        -0.0827
       6  C5          3.0130   35.3000   56.0020  C.3       1 <0>        -0.1155
       7  C6          3.4760   33.9120   55.5570  C.3       1 <0>         0.1252
       8  N1          2.3320   32.9950   55.5470  N.am      1 <0>        -0.7086
       9  C7          2.1700   32.1080   56.5480  C.2       1 <0>         0.5858
      10  O1          2.9730   32.0670   57.4590  O.2       1 <0>        -0.4992
      11  C8          1.0110   31.1810   56.5390  C.ar      1 <0>         0.3362
      12  N2          0.6450   30.6170   57.6740  N.ar      1 <0>        -0.5186
      13  C9         -0.3950   29.7760   57.7080  C.ar      1 <0>         0.1849
      14  C10        -0.8110   29.1590   58.8970  C.ar      1 <0>        -0.1007
      15  C11        -1.8770   28.3100   58.8770  C.ar      1 <0>        -0.0734
      16  C12        -2.5620   28.0450   57.6930  C.ar      1 <0>        -0.1195
      17  C13        -2.1830   28.6270   56.5190  C.ar      1 <0>        -0.0758
      18  C14        -1.0940   29.5030   56.5040  C.ar      1 <0>        -0.1795
      19  C15        -0.6560   30.1380   55.3150  C.ar      1 <0>         0.4675
      20  N3          0.3820   30.9590   55.3880  N.ar      1 <0>        -0.5366
      21  N4         -1.2960   29.9120   54.1140  N.pl3     1 <0>        -0.6334
      22  C16        -1.0970   28.7100   53.4310  C.ar      1 <0>         0.1358
      23  C17        -0.2970   27.7190   53.9840  C.ar      1 <0>        -0.0956
      24  C18        -0.1020   26.5310   53.3070  C.ar      1 <0>        -0.0975
      25  C19        -0.7020   26.3290   52.0770  C.ar      1 <0>        -0.0960
      26  C20        -1.4990   27.3130   51.5220  C.ar      1 <0>        -0.1031
      27  C21        -1.7030   28.5000   52.1980  C.ar      1 <0>        -0.1389
      28  C22        -0.4870   25.0320   51.3400  C.3       1 <0>        -0.1146
@<TRIPOS>BOND
     1     1     2 1
     2     2     3 1
     3     3     4 1
     4     4     5 1
     5     5     6 1
     6     6     7 1
     7     7     8 1
     8     8     9 am
     9     9    10 2
    10     9    11 1
    11    11    20 ar
    12    11    12 ar
    13    12    13 ar
    14    13    18 ar
    15    13    14 ar
    16    14    15 ar
    17    15    16 ar
    18    16    17 ar
    19    17    18 ar
    20    18    19 ar
    21    19    20 ar
    22    19    21 1
    23    21    22 1
    24    22    27 ar
    25    22    23 ar
    26    23    24 ar
    27    24    25 ar
    28    25    26 ar
    29    25    28 1
    30    26    27 ar

@<TRIPOS>MOLECULE
ZINC40373321_replica-1.pdb
 27 28 0 0 0
SMALL
GASTEIGER

@<TRIPOS>ATOM
       1  C1         14.0440   31.9060   63.8530  C.3       1 <0>        -0.1458
       2  C2         13.7220   33.3370   63.4150  C.3       1 <0>        -0.0553
       3  C3         14.8450   33.8630   62.5210  C.3       1 <0>        -0.1461
       4  C4         12.4230   33.3480   62.6500  C.ar      1 <0>        -0.1079
       5  C5         11.5460   32.2860   62.7660  C.ar      1 <0>        -0.0742
       6  C6         10.3550   32.2920   62.0650  C.ar      1 <0>        -0.1466
       7  C7         10.0410   33.3660   61.2440  C.ar      1 <0>         0.1210
       8  C8         10.9230   34.4300   61.1300  C.ar      1 <0>        -0.2067
       9  C9         12.1100   34.4210   61.8370  C.ar      1 <0>        -0.0777
      10  O1          8.8710   33.3740   60.5540  O.3       1 <0>        -0.3090
      11  C10         8.1470   32.1450   60.4880  C.3       1 <0>         0.0606
      12  C11         6.6440   32.4340   60.4990  C.3       1 <0>         0.0644
      13  O2          6.4310   33.8450   60.4200  O.3       1 <0>        -0.3652
      14  C12         5.1090   34.2110   60.0240  C.3       1 <0>         0.0261
      15  C13         5.1400   34.7850   58.6060  C.3       1 <0>         0.0716
      16  C14         6.5720   35.1920   58.2510  C.3       1 <0>        -0.0586
      17  N1          6.5920   36.6100   57.8330  N.4       1 <0>        -0.3588
      18  C15         7.0100   36.6800   56.4410  C.3       1 <0>         0.0571
      19  C16         7.3310   38.1030   55.9910  C.3       1 <0>        -0.1288
      20  C17         8.3340   38.7430   56.9520  C.3       1 <0>        -0.1367
      21  C18         7.7010   38.7820   58.3420  C.3       1 <0>        -0.1280
      22  C19         7.3480   37.3750   58.8120  C.3       1 <0>         0.0534
      23  C20         6.4660   37.5170   60.0740  C.3       1 <0>        -0.1815
      24  C21         8.6210   36.6350   59.2360  C.3       1 <0>        -0.1763
      25  C22         8.2030   35.7630   56.1640  C.3       1 <0>        -0.1779
      26  C23         5.8350   36.1760   55.5730  C.3       1 <0>        -0.2052
      27  O3          4.6820   33.7960   57.6820  O.3       1 <0>        -0.5281
@<TRIPOS>BOND
     1     1     2 1
     2     2     3 1
     3     2     4 1
     4     4     9 ar
     5     4     5 ar
     6     5     6 ar
     7     6     7 ar
     8     7     8 ar
     9     7    10 1
    10     8     9 ar
    11    10    11 1
    12    11    12 1
    13    12    13 1
    14    13    14 1
    15    14    15 1
    16    15    16 1
    17    15    27 1
    18    16    17 1
    19    17    22 1
    20    17    18 1
    21    18    19 1
    22    18    25 1
    23    18    26 1
    24    19    20 1
    25    20    21 1
    26    21    22 1
    27    22    23 1
    28    22    24 1

@<TRIPOS>MOLECULE
ZINC66541637_replica-1.pdb
 23 24 0 0 0
SMALL
GASTEIGER

@<TRIPOS>ATOM
       1  C1         12.2790   29.2940   64.9090  C.3       1 <0>        -0.1534
       2  C2         12.8880   29.9030   63.6440  C.3       1 <0>         0.0801
       3  O1         13.6670   31.0490   63.9930  O.3       1 <0>        -0.3670
       4  C3         13.4720   32.1650   63.2650  C.2       1 <0>         0.6476
       5  O2         14.4220   32.7470   62.7800  O.2       1 <0>        -0.5689
       6  N1         12.2240   32.6350   63.0740  N.am      1 <0>        -0.7063
       7  C4         12.0120   33.8500   62.2820  C.3       1 <0>         0.1596
       8  C5         10.7620   33.6820   61.4170  C.3       1 <0>        -0.1293
       9  C6         10.5400   34.9510   60.5910  C.3       1 <0>        -0.1118
      10  C7         10.3560   36.1450   61.5270  C.3       1 <0>         0.0857
      11  C8         11.6060   36.3130   62.3940  C.3       1 <0>        -0.1320
      12  C9         11.8280   35.0440   63.2200  C.3       1 <0>        -0.1232
      13  O3         10.1490   37.3300   60.7560  O.3       1 <0>        -0.3458
      14  C10         8.9070   37.5490   60.2950  C.2       1 <0>         0.4599
      15  O4          7.9520   37.1780   60.9340  O.2       1 <0>        -0.4949
      16  C11         8.7060   38.2580   58.9810  C.3       1 <0>        -0.0722
      17  C12         8.1970   37.2790   57.9550  C.ar      1 <0>        -0.0926
      18  C13         8.7270   36.0030   57.8960  C.ar      1 <0>        -0.0723
      19  C14         8.2610   35.1040   56.9550  C.ar      1 <0>        -0.1522
      20  C15         7.2640   35.4810   56.0730  C.ar      1 <0>         0.1044
      21  C16         6.7340   36.7590   56.1320  C.ar      1 <0>        -0.1523
      22  C17         7.1970   37.6540   57.0770  C.ar      1 <0>        -0.0723
      23  F1          6.8080   34.6030   55.1530  F         1 <0>        -0.1379
@<TRIPOS>BOND
     1     1     2 1
     2     2     3 1
     3     3     4 1
     4     4     5 2
     5     4     6 am
     6     6     7 1
     7     7    12 1
     8     7     8 1
     9     8     9 1
    10     9    10 1
    11    10    11 1
    12    10    13 1
    13    11    12 1
    14    13    14 1
    15    14    15 2
    16    14    16 1
    17    16    17 1
    18    17    22 ar
    19    17    18 ar
    20    18    19 ar
    21    19    20 ar
    22    20    21 ar
    23    20    23 1
    24    21    22 ar

@<TRIPOS>MOLECULE
ZINC36995241_replica-1.pdb
 21 21 0 0 0
SMALL
GASTEIGER

@<TRIPOS>ATOM
       1  C1          1.4100   27.7780   58.7230  C.3       1 <0>        -0.1722
       2  C2          0.0450   27.6700   58.0410  C.3       1 <0>         0.1510
       3  C3         -1.0540   28.0430   59.0370  C.3       1 <0>        -0.1144
       4  C4         -2.1390   26.9640   59.0290  C.3       1 <0>         0.1136
       5  C5         -2.9240   27.0200   60.3410  C.3       1 <0>        -0.1810
       6  C6         -3.0890   27.2050   57.8550  C.3       1 <0>        -0.1793
       7  O1         -1.5300   25.6780   58.8940  O.3       1 <0>        -0.3654
       8  C7         -1.3430   24.9900   60.1320  C.3       1 <0>         0.0268
       9  N1         -0.0030   28.5830   56.8960  N.pl3     1 <0>        -0.7232
      10  C8         -0.1560   28.0750   55.6040  C.ar      1 <0>         0.2299
      11  C9          0.4290   26.8640   55.2580  C.ar      1 <0>        -0.2013
      12  C10         0.2760   26.3640   53.9790  C.ar      1 <0>        -0.0695
      13  C11        -0.4600   27.0690   53.0440  C.ar      1 <0>        -0.1385
      14  C12        -1.0430   28.2760   53.3840  C.ar      1 <0>        -0.0647
      15  C13        -0.8990   28.7780   54.6630  C.ar      1 <0>        -0.1501
      16  C14        -1.5410   30.0890   55.0360  C.3       1 <0>        -0.0422
      17  C15        -0.5880   31.2380   54.6980  C.3       1 <0>        -0.1441
      18  C16        -2.8440   30.2600   54.2520  C.3       1 <0>        -0.1393
      19  C17        -0.6240   26.5220   51.6500  C.3       1 <0>        -0.0483
      20  C18        -0.8070   25.0050   51.7150  C.3       1 <0>        -0.1434
      21  C19        -1.8540   27.1560   50.9950  C.3       1 <0>        -0.1431
@<TRIPOS>BOND
     1     1     2 1
     2     2     3 1
     3     2     9 1
     4     3     4 1
     5     4     5 1
     6     4     6 1
     7     4     7 1
     8     7     8 1
     9     9    10 1
    10    10    15 ar
    11    10    11 ar
    12    11    12 ar
    13    12    13 ar
    14    13    14 ar
    15    13    19 1
    16    14    15 ar
    17    15    16 1
    18    16    17 1
    19    16    18 1
    20    19    20 1
    21    19    21 1

@<TRIPOS>MOLECULE
ZINC62231262_replica-1.pdb
 19 20 0 0 0
SMALL
GASTEIGER

@<TRIPOS>ATOM
       1  C1         14.4060   33.3730   62.9070  C.3       1 <0>        -0.1587
       2  C2         13.5220   34.2010   61.9720  C.3       1 <0>        -0.1148
       3  C3         12.1020   34.2660   62.5360  C.3       1 <0>        -0.0633
       4  C4         11.5630   32.8470   62.7240  C.3       1 <0>        -0.1496
       5  C5         11.2140   35.0180   61.5790  C.ar      1 <0>        -0.0406
       6  C6         10.7690   36.2870   61.9000  C.ar      1 <0>        -0.1020
       7  C7          9.9540   36.9770   61.0220  C.ar      1 <0>        -0.0834
       8  C8          9.5840   36.3990   59.8230  C.ar      1 <0>        -0.1444
       9  C9         10.0300   35.1300   59.5010  C.ar      1 <0>        -0.1177
      10  C10        10.8480   34.4420   60.3770  C.ar      1 <0>        -0.1034
      11  C11         8.6950   37.1500   58.8660  C.3       1 <0>         0.0858
      12  C12         8.3840   36.2650   57.6580  C.3       1 <0>        -0.1427
      13  C13         8.3610   37.1210   56.3870  C.3       1 <0>        -0.1115
      14  C14         7.9720   36.2380   55.1980  C.3       1 <0>        -0.1580
      15  C15         6.6180   35.5820   55.4800  C.3       1 <0>         0.0535
      16  O1          6.6990   34.8270   56.6900  O.3       1 <0>        -0.3658
      17  C16         7.0140   35.6060   57.8460  C.3       1 <0>         0.0521
      18  N1          7.4430   37.5120   59.5430  N.4       1 <0>        -0.5099
      19  C17         7.1320   38.9230   59.2750  C.3       1 <0>        -0.0492
@<TRIPOS>BOND
     1     1     2 1
     2     2     3 1
     3     3     4 1
     4     3     5 1
     5     5    10 ar
     6     5     6 ar
     7     6     7 ar
     8     7     8 ar
     9     8     9 ar
    10     8    11 1
    11     9    10 ar
    12    11    12 1
    13    11    18 1
    14    12    17 1
    15    12    13 1
    16    13    14 1
    17    14    15 1
    18    15    16 1
    19    16    17 1
    20    18    19 1

@<TRIPOS>MOLECULE
ZINC37293508_replica-1.pdb
 21 23 0 0 0
SMALL
GASTEIGER

@<TRIPOS>ATOM
       1  C1          6.5300   33.7860   58.7090  C.3       1 <0>         0.0301
       2  O1          6.2390   35.1770   58.8560  O.3       1 <0>        -0.3773
       3  C2          6.4870   35.9510   57.6820  C.3       1 <0>         0.0833
       4  C3          6.0880   35.1440   56.4450  C.3       1 <0>        -0.1391
       5  C4          6.3540   35.9740   55.1870  C.3       1 <0>        -0.1197
       6  C5          7.8420   36.3240   55.1110  C.3       1 <0>        -0.1211
       7  C6          8.2400   37.1310   56.3490  C.3       1 <0>        -0.1335
       8  C7          7.9740   36.3010   57.6060  C.3       1 <0>         0.1605
       9  N1          8.3550   37.0740   58.7910  N.pl3     1 <0>        -0.7397
      10  C8          9.2530   36.5340   59.7190  C.ar      1 <0>         0.1884
      11  C9          9.8820   35.3250   59.4550  C.ar      1 <0>        -0.1596
      12  C10        10.7680   34.7930   60.3720  C.ar      1 <0>        -0.1587
      13  C11        11.0290   35.4670   61.5560  C.ar      1 <0>         0.0724
      14  C12        10.4000   36.6740   61.8200  C.ar      1 <0>        -0.1032
      15  C13         9.5190   37.2100   60.9030  C.ar      1 <0>        -0.1566
      16  O2         11.9010   34.9420   62.4580  O.3       1 <0>        -0.3124
      17  C14        12.5570   33.7260   62.0960  C.3       1 <0>         0.0820
      18  C15        12.0420   32.5650   62.9730  C.3       1 <0>        -0.1483
      19  C16        13.2980   31.6930   63.2240  C.3       1 <0>        -0.1245
      20  C17        14.4190   32.7480   63.3910  C.3       1 <0>        -0.1238
      21  C18        14.0670   33.8410   62.3610  C.3       1 <0>        -0.1222
@<TRIPOS>BOND
     1     1     2 1
     2     2     3 1
     3     3     8 1
     4     3     4 1
     5     4     5 1
     6     5     6 1
     7     6     7 1
     8     7     8 1
     9     8     9 1
    10     9    10 1
    11    10    15 ar
    12    10    11 ar
    13    11    12 ar
    14    12    13 ar
    15    13    14 ar
    16    13    16 1
    17    14    15 ar
    18    16    17 1
    19    17    21 1
    20    17    18 1
    21    18    19 1
    22    19    20 1
    23    20    21 1

@<TRIPOS>MOLECULE
ZINC04698214_replica-1.pdb
 29 32 0 0 0
SMALL
GASTEIGER

@<TRIPOS>ATOM
       1  C1         12.2380   35.3340   63.0790  C.3       1 <0>        -0.1103
       2  C2         11.3230   35.5020   61.8940  C.ar      1 <0>        -0.0990
       3  C3         10.6090   36.6760   61.7330  C.ar      1 <0>        -0.1194
       4  C4          9.7700   36.8310   60.6460  C.ar      1 <0>        -0.1116
       5  C5          9.6440   35.8130   59.7190  C.ar      1 <0>        -0.0720
       6  C6         10.3540   34.6380   59.8830  C.ar      1 <0>        -0.1078
       7  C7         11.1960   34.4840   60.9680  C.ar      1 <0>        -0.1195
       8  C8          8.7290   35.9820   58.5340  C.3       1 <0>        -0.0645
       9  C9          7.7610   37.1370   58.7980  C.3       1 <0>        -0.0800
      10  C10         7.4800   37.8770   57.4880  C.3       1 <0>        -0.1239
      11  C11         8.6670   38.7840   57.1510  C.3       1 <0>        -0.1271
      12  C12         7.2820   36.8770   56.3780  C.2       1 <0>         0.4642
      13  O1          8.1490   36.7090   55.5530  O.co2     1 <0>        -0.6293
      14  C13         6.4700   36.5950   59.3540  C.2       1 <0>         0.5328
      15  O2          5.6690   37.3460   59.8690  O.2       1 <0>        -0.5595
      16  N1          6.2030   35.2760   59.2750  N.am      1 <0>        -0.7196
      17  C14         4.9930   34.7350   59.9000  C.3       1 <0>         0.1238
      18  C15         4.4380   33.5990   59.0380  C.3       1 <0>        -0.1233
      19  C16         2.9320   33.4720   59.2720  C.3       1 <0>        -0.0447
      20  C17         2.2480   34.7970   58.9320  C.3       1 <0>        -0.1080
      21  C18         0.7420   34.6690   59.1650  C.3       1 <0>        -0.0857
      22  C19         0.4810   34.3230   60.6320  C.3       1 <0>        -0.1071
      23  C20         1.1640   32.9960   60.9720  C.3       1 <0>        -0.0849
      24  C21         2.6700   33.1250   60.7390  C.3       1 <0>        -0.1018
      25  C22         0.6020   31.8890   60.0780  C.3       1 <0>        -0.1061
      26  C23         0.8630   32.2360   58.6110  C.3       1 <0>        -0.0853
      27  C24         0.1800   33.5630   58.2710  C.3       1 <0>        -0.1073
      28  C25         2.3690   32.3650   58.3780  C.3       1 <0>        -0.1060
      29  O3          6.1410   36.1730   56.3060  O.co2     1 <0>        -0.7709
@<TRIPOS>BOND
     1     1     2 1
     2     2     7 ar
     3     2     3 ar
     4     3     4 ar
     5     4     5 ar
     6     5     6 ar
     7     5     8 1
     8     6     7 ar
     9     8     9 1
    10     9    10 1
    11     9    14 1
    12    10    11 1
    13    10    12 1
    14    12    13 2
    15    12    29 1
    16    14    15 2
    17    14    16 am
    18    16    17 1
    19    17    18 1
    20    18    19 1
    21    19    24 1
    22    19    28 1
    23    19    20 1
    24    20    21 1
    25    21    27 1
    26    21    22 1
    27    22    23 1
    28    23    24 1
    29    23    25 1
    30    25    26 1
    31    26    27 1
    32    26    28 1

@<TRIPOS>MOLECULE
ZINC00504435_replica-1.pdb
 26 29 0 0 0
SMALL
GASTEIGER

@<TRIPOS>ATOM
       1  C1         10.0220   36.5040   60.6810  C.ar      1 <0>        -0.1274
       2  C2         10.2640   35.2370   60.1510  C.ar      1 <0>        -0.1038
       3  C3          9.7900   34.8890   58.9240  C.ar      1 <0>        -0.1156
       4  C4          9.0440   35.8170   58.1770  C.ar      1 <0>        -0.0133
       5  C5          8.5400   35.4930   56.9080  C.ar      1 <0>        -0.1513
       6  C6          7.8200   36.4210   56.2100  C.ar      1 <0>         0.1295
       7  C7          7.5840   37.6930   56.7410  C.ar      1 <0>        -0.1923
       8  C8          8.0540   38.0360   57.9700  C.ar      1 <0>        -0.0631
       9  C9          8.7990   37.1050   58.7170  C.ar      1 <0>        -0.0842
      10  C10         9.3060   37.4290   59.9860  C.ar      1 <0>        -0.0948
      11  O1          7.3320   36.1060   54.9820  O.3       1 <0>        -0.3028
      12  C11         5.9290   35.8530   54.8860  C.3       1 <0>         0.0300
      13  C12         5.6970   34.5380   54.1410  C.3       1 <0>         0.1000
      14  C13         5.6830   33.3800   55.1420  C.3       1 <0>         0.0968
      15  N1          5.0370   33.8160   56.3830  N.pl3     1 <0>        -0.7340
      16  C14         5.6530   33.5770   57.6090  C.ar      1 <0>         0.2306
      17  C15         6.2770   32.3710   57.8520  C.ar      1 <0>        -0.2217
      18  C16         6.8950   32.1220   59.0730  C.ar      1 <0>        -0.0607
      19  C17         6.9010   33.0580   60.0620  C.ar      1 <0>        -0.1705
      20  C18         6.2800   34.3020   59.8540  C.ar      1 <0>        -0.0099
      21  C19         5.6440   34.5660   58.6170  C.ar      1 <0>        -0.0967
      22  C20         5.0200   35.8060   58.4130  C.ar      1 <0>        -0.0956
      23  C21         5.0300   36.7370   59.4060  C.ar      1 <0>        -0.1297
      24  C22         5.6510   36.4770   60.6260  C.ar      1 <0>        -0.1054
      25  C23         6.2670   35.2850   60.8580  C.ar      1 <0>        -0.1168
      26  O2          4.4440   34.5920   53.4570  O.3       1 <0>        -0.5456
@<TRIPOS>BOND
     1     1    10 ar
     2     1     2 ar
     3     2     3 ar
     4     3     4 ar
     5     4     9 ar
     6     4     5 ar
     7     5     6 ar
     8     6     7 ar
     9     6    11 1
    10     7     8 ar
    11     8     9 ar
    12     9    10 ar
    13    11    12 1
    14    12    13 1
    15    13    14 1
    16    13    26 1
    17    14    15 1
    18    15    16 1
    19    16    21 ar
    20    16    17 ar
    21    17    18 ar
    22    18    19 ar
    23    19    20 ar
    24    20    25 ar
    25    20    21 ar
    26    21    22 ar
    27    22    23 ar
    28    23    24 ar
    29    24    25 ar

@<TRIPOS>MOLECULE
ZINC50274163_replica-1.pdb
 27 29 0 0 0
SMALL
GASTEIGER

@<TRIPOS>ATOM
       1  C1         13.3340   32.2400   63.0670  C.3       1 <0>        -0.1575
       2  C2         12.1740   33.2230   63.2500  C.3       1 <0>        -0.1137
       3  C3         12.5460   34.5700   62.6280  C.3       1 <0>        -0.0577
       4  C4         13.8060   34.4080   61.7740  C.3       1 <0>        -0.1478
       5  C5         11.4110   35.0530   61.7630  C.ar      1 <0>        -0.0617
       6  C6         10.8770   36.3130   61.9620  C.ar      1 <0>        -0.1126
       7  C7          9.8350   36.7560   61.1680  C.ar      1 <0>        -0.1041
       8  C8          9.3280   35.9390   60.1760  C.ar      1 <0>        -0.1064
       9  C9          9.8610   34.6790   59.9760  C.ar      1 <0>        -0.1000
      10  C10        10.9050   34.2380   60.7670  C.ar      1 <0>        -0.1208
      11  C11         8.1910   36.4210   59.3100  C.3       1 <0>         0.1371
      12  C12         8.5400   37.7930   58.7300  C.3       1 <0>        -0.0780
      13  C13         8.6040   37.7000   57.2030  C.3       1 <0>        -0.1465
      14  C14         7.4660   38.8060   59.1330  C.3       1 <0>        -0.1539
      15  N1          6.9710   36.5290   60.1190  N.3       1 <0>        -0.6764
      16  C15         6.4310   35.2000   60.4380  C.3       1 <0>         0.0826
      17  C16         5.0280   35.0840   59.8980  C.2       1 <0>         0.1863
      18  C17         4.6480   35.7890   58.7770  C.2       1 <0>        -0.2043
      19  C18         3.3460   35.6680   58.2920  C.2       1 <0>         0.5263
      20  O1          3.0030   36.2910   57.2980  O.2       1 <0>        -0.4298
      21  N2          2.4540   34.8530   58.9290  N.am      1 <0>        -0.4297
      22  C19         1.1450   34.6310   58.5750  C.2       1 <0>         0.0806
      23  C20         0.3700   33.8080   59.2820  C.2       1 <0>        -0.1571
      24  S1          1.4910   33.2600   60.5610  S.3       1 <0>         0.3125
      25  C21         2.9150   34.1900   60.0350  C.cat     1 <0>         0.3123
      26  N3          4.1370   34.2950   60.4920  N.pl3     1 <0>        -0.4861
      27  C22         0.5740   35.3300   57.3680  C.3       1 <0>        -0.1248
@<TRIPOS>BOND
     1     1     2 1
     2     2     3 1
     3     3     4 1
     4     3     5 1
     5     5    10 ar
     6     5     6 ar
     7     6     7 ar
     8     7     8 ar
     9     8     9 ar
    10     8    11 1
    11     9    10 ar
    12    11    12 1
    13    11    15 1
    14    12    13 1
    15    12    14 1
    16    15    16 1
    17    16    17 1
    18    17    26 1
    19    17    18 2
    20    18    19 1
    21    19    20 2
    22    19    21 am
    23    21    25 1
    24    21    22 1
    25    22    23 2
    26    22    27 1
    27    23    24 1
    28    24    25 1
    29    25    26 2

@<TRIPOS>MOLECULE
ZINC15024643_replica-1.pdb
 33 36 0 0 0
SMALL
GASTEIGER

@<TRIPOS>ATOM
       1  C1          3.1520   34.3780   59.7410  C.3       1 <0>        -0.1609
       2  C2          3.4350   34.6770   58.2510  C.3       1 <0>        -0.0266
       3  C3          2.6070   35.8900   57.8460  C.3       1 <0>        -0.1111
       4  C4          1.1120   35.5720   57.9570  C.3       1 <0>        -0.1229
       5  C5          0.7710   34.4330   57.0020  C.3       1 <0>        -0.1069
       6  C6          1.5810   33.1800   57.3250  C.3       1 <0>        -0.0511
       7  C7          3.0750   33.4690   57.3880  C.3       1 <0>        -0.0511
       8  C8          3.6060   33.6990   55.9670  C.3       1 <0>        -0.1159
       9  C9          5.1260   33.8430   55.9790  C.3       1 <0>        -0.1457
      10  C10         5.5580   35.0290   56.8300  C.3       1 <0>         0.1456
      11  C11         4.9330   34.9690   58.2070  C.3       1 <0>        -0.0636
      12  C12         5.2510   36.2530   58.9800  C.3       1 <0>        -0.1119
      13  C13         6.1900   35.9280   60.1440  C.3       1 <0>        -0.1422
      14  C14         7.4030   36.8590   60.0960  C.3       1 <0>         0.1399
      15  C15         7.2060   37.8960   58.9880  C.3       1 <0>        -0.1429
      16  C16         8.6640   36.0400   59.8090  C.3       1 <0>         0.0206
      17  C17         9.5450   35.9190   61.0740  C.3       1 <0>        -0.1445
      18  C18        10.0740   34.5000   60.9720  C.2       1 <0>         0.1335
      19  N1          9.3590   33.8640   60.1050  N.2       1 <0>        -0.2919
      20  O1          8.3350   34.6620   59.5440  O.3       1 <0>        -0.1899
      21  C19        11.2090   33.9440   61.7330  C.ar      1 <0>        -0.0858
      22  C20        12.3740   34.6970   61.9030  C.ar      1 <0>        -0.0440
      23  C21        13.4320   34.1730   62.6140  C.ar      1 <0>        -0.1545
      24  C22        13.3420   32.9000   63.1610  C.ar      1 <0>         0.1504
      25  C23        12.1840   32.1480   62.9940  C.ar      1 <0>        -0.2125
      26  C24        11.1210   32.6660   62.2900  C.ar      1 <0>        -0.0358
      27  O2         14.3860   32.3870   63.8610  O.3       1 <0>        -0.3132
      28  C25        15.3560   33.3140   64.3520  C.3       1 <0>         0.0238
      29  O3          7.5440   37.5240   61.3520  O.3       1 <0>        -0.5544
      30  C26         5.2560   36.3460   56.1200  C.3       1 <0>        -0.1835
      31  O4          6.9930   34.9480   56.9890  O.3       1 <0>        -0.5622
      32  C27         1.2930   32.1510   56.2080  C.3       1 <0>        -0.1504
      33  C28         1.0550   32.5370   58.6130  C.3       1 <0>        -0.1488
@<TRIPOS>BOND
     1     1     2 1
     2     2     7 1
     3     2    11 1
     4     2     3 1
     5     3     4 1
     6     4     5 1
     7     5     6 1
     8     6     7 1
     9     6    32 1
    10     6    33 1
    11     7     8 1
    12     8     9 1
    13     9    10 1
    14    10    11 1
    15    10    30 1
    16    10    31 1
    17    11    12 1
    18    12    13 1
    19    13    14 1
    20    14    15 1
    21    14    16 1
    22    14    29 1
    23    16    20 1
    24    16    17 1
    25    17    18 1
    26    18    19 2
    27    18    21 1
    28    19    20 1
    29    21    26 ar
    30    21    22 ar
    31    22    23 ar
    32    23    24 ar
    33    24    25 ar
    34    24    27 1
    35    25    26 ar
    36    27    28 1

@<TRIPOS>MOLECULE
ZINC40245199_replica-1.pdb
 21 24 0 0 0
SMALL
GASTEIGER

@<TRIPOS>ATOM
       1  C1          7.0010   32.8440   55.8860  C.3       1 <0>        -0.1043
       2  C2          5.9380   33.9090   55.8150  C.2       1 <0>        -0.1059
       3  C3          4.6000   33.5720   55.9060  C.2       1 <0>        -0.1548
       4  C4          3.6690   34.5550   55.8390  C.2       1 <0>        -0.1628
       5  S1          4.6820   36.0110   55.6410  S.3       1 <0>         0.0400
       6  C5          6.2780   35.2130   55.6670  C.2       1 <0>        -0.1855
       7  C6          7.6490   35.8290   55.5520  C.3       1 <0>         0.2427
       8  C7          8.0570   36.3990   56.8850  C.ar      1 <0>        -0.1336
       9  C8          7.5900   37.6430   57.2770  C.ar      1 <0>        -0.0707
      10  C9          7.9550   38.1780   58.4950  C.ar      1 <0>        -0.1062
      11  C10         8.7990   37.4690   59.3420  C.ar      1 <0>         0.0883
      12  C11         9.2680   36.2100   58.9430  C.ar      1 <0>        -0.1169
      13  C12         8.8900   35.6780   57.7160  C.ar      1 <0>        -0.0436
      14  C13        10.1240   35.7350   60.0480  C.ar      1 <0>        -0.1217
      15  C14        10.8690   34.5810   60.2650  C.ar      1 <0>        -0.0623
      16  C15        11.5810   34.4380   61.4380  C.ar      1 <0>        -0.1362
      17  C16        11.5520   35.4390   62.3960  C.ar      1 <0>        -0.0817
      18  C17        10.8160   36.5870   62.1910  C.ar      1 <0>        -0.1139
      19  C18        10.0940   36.7500   61.0150  C.ar      1 <0>         0.0824
      20  O1          9.3050   37.7500   60.5640  O.3       1 <0>        -0.1990
      21  O2          7.6220   36.8710   54.5750  O.3       1 <0>        -0.5390
@<TRIPOS>BOND
     1     1     2 1
     2     2     6 2
     3     2     3 1
     4     3     4 2
     5     4     5 1
     6     5     6 1
     7     6     7 1
     8     7     8 1
     9     7    21 1
    10     8    13 ar
    11     8     9 ar
    12     9    10 ar
    13    10    11 ar
    14    11    20 1
    15    11    12 ar
    16    12    13 ar
    17    12    14 1
    18    14    19 ar
    19    14    15 ar
    20    15    16 ar
    21    16    17 ar
    22    17    18 ar
    23    18    19 ar
    24    19    20 1

@<TRIPOS>MOLECULE
ZINC33373327_replica-1.pdb
 21 22 0 0 0
SMALL
GASTEIGER

@<TRIPOS>ATOM
       1  C1         -1.0870   25.7960   51.1400  C.ar      1 <0>        -0.1179
       2  C2         -1.6710   27.0570   51.0610  C.ar      1 <0>        -0.1403
       3  C3         -1.5510   27.9500   52.0850  C.ar      1 <0>        -0.0930
       4  C4         -0.8350   27.5930   53.2330  C.ar      1 <0>        -0.0363
       5  C5         -0.2370   26.3130   53.3150  C.ar      1 <0>        -0.0578
       6  C6         -0.3800   25.4170   52.2410  C.ar      1 <0>        -0.1243
       7  C7          0.4860   25.9600   54.4680  C.ar      1 <0>        -0.1173
       8  C8          0.6180   26.8370   55.5010  C.ar      1 <0>        -0.1182
       9  C9          0.0520   28.1030   55.4650  C.ar      1 <0>        -0.0970
      10  C10        -0.6760   28.5200   54.3530  C.ar      1 <0>        -0.0932
      11  C11        -1.2750   29.8580   54.3100  C.2       1 <0>         0.3898
      12  O1         -2.4620   29.9840   54.0870  O.3       1 <0>        -0.5110
      13  C12        -0.4180   31.0760   54.5420  C.2       1 <0>        -0.5960
      14  C13        -0.4640   31.4510   56.0010  C.2       1 <0>         0.3353
      15  O2         -1.5120   31.4270   56.5980  O.2       1 <0>        -0.4712
      16  C14         0.8000   31.8570   56.7140  C.3       1 <0>         0.2121
      17  C15         0.4760   32.9240   57.7600  C.3       1 <0>         0.2420
      18  F1          1.5270   33.0110   58.6790  F         1 <0>        -0.2041
      19  F2          0.3060   34.1610   57.1280  F         1 <0>        -0.1852
      20  F3          1.3590   30.7400   57.3450  F         1 <0>        -0.1798
      21  F4          1.7120   32.3730   55.7880  F         1 <0>        -0.1836
@<TRIPOS>BOND
     1     1     6 ar
     2     1     2 ar
     3     2     3 ar
     4     3     4 ar
     5     4    10 ar
     6     4     5 ar
     7     5     6 ar
     8     5     7 ar
     9     7     8 ar
    10     8     9 ar
    11     9    10 ar
    12    10    11 1
    13    11    12 1
    14    11    13 2
    15    13    14 1
    16    14    15 2
    17    14    16 1
    18    16    17 1
    19    16    20 1
    20    16    21 1
    21    17    18 1
    22    17    19 1

@<TRIPOS>MOLECULE
ZINC36618878_replica-1.pdb
 29 33 0 0 0
SMALL
GASTEIGER

@<TRIPOS>ATOM
       1  C1          1.2440   32.5570   58.3830  C.3       1 <0>        -0.1405
       2  C2          2.6390   32.2900   58.9530  C.3       1 <0>        -0.1128
       3  S1          3.8070   32.0220   57.5920  S.3       1 <0>         0.0187
       4  C3          5.3480   32.5870   58.2340  C.2       1 <0>         0.3805
       5  N1          5.8960   31.9270   59.2460  N.2       1 <0>        -0.4797
       6  C4          7.0540   32.3730   59.7080  C.2       1 <0>         0.0987
       7  C5          7.7340   33.5060   59.1900  C.2       1 <0>        -0.2509
       8  C6          8.9540   33.8420   59.7970  C.2       1 <0>        -0.0318
       9  C7          9.3700   33.0530   60.8410  C.2       1 <0>        -0.1629
      10  S2          8.1160   31.8180   61.0070  S.3       1 <0>         0.1988
      11  C8         10.5980   33.2840   61.5970  C.ar      1 <0>         0.0002
      12  C9         11.1550   32.3350   62.4460  C.ar      1 <0>        -0.1043
      13  C10        12.3370   32.6160   63.1040  C.ar      1 <0>        -0.1172
      14  C11        12.9610   33.8360   62.9150  C.ar      1 <0>        -0.1128
      15  C12        12.4050   34.7890   62.0810  C.ar      1 <0>        -0.1128
      16  C13        11.2180   34.5320   61.4290  C.ar      1 <0>        -0.0648
      17  C14        10.5630   35.5850   60.5780  C.3       1 <0>        -0.0801
      18  C15         9.8450   35.0020   59.3670  C.3       1 <0>        -0.0645
      19  C16         7.1080   34.1930   58.0950  C.2       1 <0>         0.5740
      20  O1          7.6100   35.1770   57.5780  O.2       1 <0>        -0.4957
      21  N2          5.9310   33.6810   57.6690  N.am      1 <0>        -0.4559
      22  C17         5.2780   34.3090   56.5970  C.ar      1 <0>         0.0467
      23  C18         5.4860   33.8640   55.3000  C.ar      1 <0>        -0.0476
      24  C19         4.8410   34.4840   54.2460  C.ar      1 <0>        -0.1473
      25  C20         3.9890   35.5470   54.4820  C.ar      1 <0>        -0.0537
      26  C21         3.7770   35.9950   55.7720  C.ar      1 <0>        -0.2032
      27  C22         4.4160   35.3760   56.8350  C.ar      1 <0>         0.1628
      28  O2          4.2040   35.8120   58.1050  O.3       1 <0>        -0.3101
      29  C23         2.8450   35.9600   58.5220  C.3       1 <0>         0.0254
@<TRIPOS>BOND
     1     1     2 1
     2     2     3 1
     3     3     4 1
     4     4    21 1
     5     4     5 2
     6     5     6 1
     7     6    10 1
     8     6     7 2
     9     7     8 1
    10     7    19 1
    11     8    18 1
    12     8     9 2
    13     9    10 1
    14     9    11 1
    15    11    16 ar
    16    11    12 ar
    17    12    13 ar
    18    13    14 ar
    19    14    15 ar
    20    15    16 ar
    21    16    17 1
    22    17    18 1
    23    19    20 2
    24    19    21 am
    25    21    22 1
    26    22    27 ar
    27    22    23 ar
    28    23    24 ar
    29    24    25 ar
    30    25    26 ar
    31    26    27 ar
    32    27    28 1
    33    28    29 1

@<TRIPOS>MOLECULE
ZINC08021183_replica-1.pdb
 24 25 0 0 0
SMALL
GASTEIGER

@<TRIPOS>ATOM
       1  C1          8.4230   31.5080   58.6050  C.3       1 <0>        -0.1546
       2  C2          6.9970   31.0090   58.3660  C.3       1 <0>         0.0634
       3  O1          6.6770   31.1160   56.9530  O.3       1 <0>        -0.3484
       4  C3          6.5000   32.3580   56.4580  C.2       1 <0>         0.5363
       5  O2          7.2300   32.7720   55.5780  O.2       1 <0>        -0.5218
       6  C4          5.4250   33.2110   56.9830  C.ar      1 <0>        -0.3195
       7  C5          4.0790   32.8680   56.8010  C.ar      1 <0>         0.2647
       8  N1          3.1430   33.6610   57.2860  N.ar      1 <0>        -0.5683
       9  C6          3.4570   34.7740   57.9410  C.ar      1 <0>         0.3574
      10  N2          4.7160   35.1390   58.1430  N.ar      1 <0>        -0.5489
      11  C7          5.7190   34.4030   57.6830  C.ar      1 <0>         0.4923
      12  N3          7.0280   34.7890   57.8910  N.pl3     1 <0>        -0.6187
      13  C8          7.4330   36.0870   57.5640  C.ar      1 <0>         0.1450
      14  C9          6.9360   36.7050   56.4240  C.ar      1 <0>        -0.1214
      15  C10         7.3430   37.9840   56.1020  C.ar      1 <0>        -0.1033
      16  C11         8.2400   38.6520   56.9150  C.ar      1 <0>        -0.1327
      17  C12         8.7330   38.0420   58.0540  C.ar      1 <0>        -0.1016
      18  C13         8.3300   36.7610   58.3820  C.ar      1 <0>        -0.0977
      19  C14         8.8670   36.0970   59.6230  C.3       1 <0>        -0.0306
      20  C15         9.6270   37.1250   60.4630  C.3       1 <0>        -0.1415
      21  C16         9.8140   34.9630   59.2240  C.3       1 <0>        -0.1527
      22  C17         7.7060   35.5280   60.4400  C.3       1 <0>        -0.1474
      23  S1          2.1620   35.7920   58.5660  S.3       1 <0>         0.0328
      24  C18         0.7370   35.0090   57.7710  C.3       1 <0>        -0.1502
@<TRIPOS>BOND
     1     1     2 1
     2     2     3 1
     3     3     4 1
     4     4     5 2
     5     4     6 1
     6     6    11 ar
     7     6     7 ar
     8     7     8 ar
     9     8     9 ar
    10     9    10 ar
    11     9    23 1
    12    10    11 ar
    13    11    12 1
    14    12    13 1
    15    13    18 ar
    16    13    14 ar
    17    14    15 ar
    18    15    16 ar
    19    16    17 ar
    20    17    18 ar
    21    18    19 1
    22    19    20 1
    23    19    21 1
    24    19    22 1
    25    23    24 1

@<TRIPOS>MOLECULE
ZINC61339335_replica-1.pdb
 25 28 0 0 0
SMALL
GASTEIGER

@<TRIPOS>ATOM
       1  C1         10.7920   33.0010   62.0690  C.ar      1 <0>        -0.0975
       2  C2         11.5640   32.0670   62.7330  C.ar      1 <0>        -0.0920
       3  C3         12.8620   32.3690   63.0870  C.ar      1 <0>        -0.1265
       4  C4         13.4000   33.6110   62.7810  C.ar      1 <0>        -0.1347
       5  C5         12.6390   34.5500   62.1220  C.ar      1 <0>        -0.0602
       6  C6         11.3260   34.2490   61.7590  C.ar      1 <0>        -0.0177
       7  C7         10.5010   35.2550   61.0470  C.2       1 <0>         0.1172
       8  C8         10.4050   36.5320   61.5240  C.2       1 <0>        -0.2342
       9  S1          9.3210   37.2620   60.3040  S.3       1 <0>         0.1322
      10  C9          9.1090   35.8030   59.2940  C.2       1 <0>         0.3136
      11  N1          9.8540   34.9240   59.9390  N.2       1 <0>        -0.5281
      12  N2          8.3620   35.6380   58.1340  N.am      1 <0>        -0.6038
      13  C10         7.0850   35.2150   58.2100  C.2       1 <0>         0.5654
      14  O1          6.5870   34.9770   59.2920  O.2       1 <0>        -0.4740
      15  C11         6.2920   35.0400   56.9770  C.ar      1 <0>        -0.1482
      16  C12         5.3430   35.9970   56.6100  C.ar      1 <0>        -0.0916
      17  C13         4.6060   35.8250   55.4560  C.ar      1 <0>         0.0892
      18  C14         4.8040   34.7070   54.6610  C.ar      1 <0>        -0.0862
      19  C15         5.7410   33.7560   55.0170  C.ar      1 <0>        -0.1299
      20  C16         6.4920   33.9160   56.1670  C.ar      1 <0>         0.1626
      21  F1          7.4120   32.9890   56.5100  F         1 <0>        -0.1044
      22  F2          3.6870   36.7510   55.1000  F         1 <0>        -0.1252
      23  C17        14.8200   33.6250   63.2980  C.3       1 <0>         0.0911
      24  O2         14.9060   32.5460   64.2470  O.3       1 <0>        -0.3599
      25  C18        13.9370   31.5810   63.8020  C.3       1 <0>         0.0892
@<TRIPOS>BOND
     1     1     6 ar
     2     1     2 ar
     3     2     3 ar
     4     3    25 1
     5     3     4 ar
     6     4     5 ar
     7     4    23 1
     8     5     6 ar
     9     6     7 1
    10     7    11 1
    11     7     8 2
    12     8     9 1
    13     9    10 1
    14    10    11 2
    15    10    12 1
    16    12    13 am
    17    13    14 2
    18    13    15 1
    19    15    20 ar
    20    15    16 ar
    21    16    17 ar
    22    17    18 ar
    23    17    22 1
    24    18    19 ar
    25    19    20 ar
    26    20    21 1
    27    23    24 1
    28    24    25 1

@<TRIPOS>MOLECULE
ZINC37078014_replica-1.pdb
 21 22 0 0 0
SMALL
GASTEIGER

@<TRIPOS>ATOM
       1  C1         16.1920   34.1040   64.9900  C.3       1 <0>        -0.1532
       2  C2         15.7540   33.8040   63.5560  C.3       1 <0>         0.0747
       3  O1         14.8550   32.6930   63.5550  O.3       1 <0>        -0.3120
       4  C3         13.5720   32.9370   63.1820  C.ar      1 <0>         0.2720
       5  C4         12.6970   31.8720   62.9840  C.ar      1 <0>         0.1557
       6  C5         11.3860   32.1350   62.6030  C.ar      1 <0>        -0.1189
       7  C6         10.9980   33.4550   62.4350  C.ar      1 <0>        -0.1305
       8  C7         11.9240   34.4680   62.6500  C.ar      1 <0>         0.0839
       9  N1         13.1660   34.1850   63.0170  N.ar      1 <0>        -0.4941
      10  S1         11.4400   36.1480   62.4370  S.3       1 <0>         0.0188
      11  C8         10.4700   36.1290   60.9660  C.ar      1 <0>        -0.1243
      12  C9          9.6170   37.1890   60.6800  C.ar      1 <0>        -0.0555
      13  C10         8.8590   37.1710   59.5260  C.ar      1 <0>        -0.1266
      14  C11         8.9480   36.1000   58.6550  C.ar      1 <0>        -0.0388
      15  C12         9.7950   35.0440   58.9360  C.ar      1 <0>        -0.1322
      16  C13        10.5610   35.0580   60.0850  C.ar      1 <0>        -0.0564
      17  C14         8.1170   36.0840   57.3980  C.3       1 <0>        -0.0336
      18  C15         6.6460   35.8800   57.7610  C.3       1 <0>        -0.1396
      19  C16         8.2810   37.4160   56.6630  C.3       1 <0>        -0.1460
      20  C17         8.5830   34.9420   56.4920  C.3       1 <0>        -0.1388
      21  N2         13.1320   30.5510   63.1660  N.pl3     1 <0>        -0.8661
@<TRIPOS>BOND
     1     1     2 1
     2     2     3 1
     3     3     4 1
     4     4     9 ar
     5     4     5 ar
     6     5     6 ar
     7     5    21 1
     8     6     7 ar
     9     7     8 ar
    10     8     9 ar
    11     8    10 1
    12    10    11 1
    13    11    16 ar
    14    11    12 ar
    15    12    13 ar
    16    13    14 ar
    17    14    15 ar
    18    14    17 1
    19    15    16 ar
    20    17    18 1
    21    17    19 1
    22    17    20 1

@<TRIPOS>MOLECULE
ZINC00206926_replica-1.pdb
 24 27 0 0 0
SMALL
GASTEIGER

@<TRIPOS>ATOM
       1  C1          7.9540   34.3510   56.2670  C.3       1 <0>         0.0922
       2  N1          8.9920   35.1250   56.9520  N.pl3     1 <0>        -0.7418
       3  C2          8.6740   36.3440   57.5450  C.ar      1 <0>         0.2551
       4  C3          8.2140   37.3980   56.7680  C.ar      1 <0>        -0.1992
       5  C4          7.8950   38.6050   57.3590  C.ar      1 <0>        -0.0542
       6  C5          8.0390   38.7760   58.7260  C.ar      1 <0>        -0.1809
       7  C6          8.4950   37.7400   59.5120  C.ar      1 <0>        -0.0330
       8  C7          8.8170   36.5130   58.9300  C.ar      1 <0>        -0.1217
       9  C8          9.3060   35.3990   59.7680  C.2       1 <0>         0.1716
      10  C9          8.4460   34.2230   60.0050  C.2       1 <0>         0.4982
      11  O1          7.3340   34.1640   59.5160  O.2       1 <0>        -0.4912
      12  N2          8.9090   33.2130   60.7730  N.am      1 <0>        -0.5269
      13  C10        10.1820   33.3070   61.3190  C.ar      1 <0>         0.1473
      14  C11        10.6540   32.2740   62.1030  C.ar      1 <0>        -0.1533
      15  C12        11.9350   32.3510   62.6630  C.ar      1 <0>        -0.0014
      16  C13        12.4550   31.3230   63.4690  C.ar      1 <0>        -0.1205
      17  C14        13.7060   31.4470   63.9890  C.ar      1 <0>        -0.0898
      18  C15        14.4930   32.5700   63.7440  C.ar      1 <0>        -0.1254
      19  C16        14.0490   33.5990   62.9740  C.ar      1 <0>        -0.0829
      20  C17        12.7610   33.5340   62.4060  C.ar      1 <0>        -0.0820
      21  C18        12.2560   34.5620   61.6080  C.ar      1 <0>        -0.0049
      22  C19        10.9760   34.4510   61.0670  C.ar      1 <0>         0.0281
      23  N3         10.5050   35.4530   60.2940  N.2       1 <0>        -0.3965
      24  C20         8.0780   32.0340   61.0270  C.3       1 <0>         0.0621
@<TRIPOS>BOND
     1     1     2 1
     2     2     3 1
     3     3     8 ar
     4     3     4 ar
     5     4     5 ar
     6     5     6 ar
     7     6     7 ar
     8     7     8 ar
     9     8     9 1
    10     9    23 2
    11     9    10 1
    12    10    11 2
    13    10    12 am
    14    12    13 1
    15    12    24 1
    16    13    22 ar
    17    13    14 ar
    18    14    15 ar
    19    15    20 ar
    20    15    16 ar
    21    16    17 ar
    22    17    18 ar
    23    18    19 ar
    24    19    20 ar
    25    20    21 ar
    26    21    22 ar
    27    22    23 1

@<TRIPOS>MOLECULE
ZINC14075620_replica-1.pdb
 25 28 0 0 0
SMALL
GASTEIGER

@<TRIPOS>ATOM
       1  C1          7.7650   36.5150   54.9600  C.3       1 <0>        -0.1731
       2  C2          7.0550   37.5500   55.8340  C.3       1 <0>         0.1089
       3  N1          6.6600   36.9310   57.1020  N.pl3     1 <0>        -0.5036
       4  C3          7.3430   37.0710   58.2970  C.ar      1 <0>         0.1470
       5  C4          8.4970   37.7690   58.6400  C.ar      1 <0>        -0.1437
       6  C5          8.9650   37.7340   59.9360  C.ar      1 <0>        -0.0812
       7  C6          8.2980   37.0020   60.9070  C.ar      1 <0>        -0.1521
       8  C7          7.1510   36.3090   60.5870  C.ar      1 <0>        -0.0593
       9  C8          6.6660   36.3360   59.2820  C.ar      1 <0>        -0.1070
      10  C9          5.5030   35.7190   58.6200  C.ar      1 <0>        -0.0883
      11  C10         5.5500   36.1200   57.2770  C.ar      1 <0>         0.1409
      12  C11         4.5630   35.6840   56.3970  C.ar      1 <0>        -0.1172
      13  C12         3.5500   34.8640   56.8470  C.ar      1 <0>        -0.1117
      14  C13         3.5020   34.4660   58.1790  C.ar      1 <0>         0.1074
      15  C14         4.4750   34.8910   59.0660  C.ar      1 <0>        -0.0670
      16  N2          2.4670   33.6330   58.6230  N.pl3     1 <0>        -1.0489
      17  S1          0.9920   34.2770   59.0080  S.o2      1 <0>         2.7271
      18  O1          1.2120   35.6480   59.3080  O.2       1 <0>        -0.9445
      19  O2          0.0870   33.8550   57.9960  O.2       1 <0>        -0.9408
      20  C15         0.4640   33.5130   60.5060  C.2       1 <0>        -0.7723
      21  C16        -0.1270   34.0750   61.5890  C.2       1 <0>         0.0047
      22  C17        -0.4570   33.2720   62.6640  C.2       1 <0>        -0.2025
      23  C18        -0.1800   31.9460   62.6040  C.2       1 <0>        -0.0975
      24  S2          0.5640   31.7970   60.9890  S.3       1 <0>         0.1715
      25  C19        -0.4390   30.8750   63.6320  C.3       1 <0>        -0.0829
@<TRIPOS>BOND
     1     1     2 1
     2     2     3 1
     3     3    11 1
     4     3     4 1
     5     4     9 ar
     6     4     5 ar
     7     5     6 ar
     8     6     7 ar
     9     7     8 ar
    10     8     9 ar
    11     9    10 1
    12    10    15 ar
    13    10    11 ar
    14    11    12 ar
    15    12    13 ar
    16    13    14 ar
    17    14    15 ar
    18    14    16 1
    19    16    17 1
    20    17    18 2
    21    17    19 2
    22    17    20 1
    23    20    24 1
    24    20    21 2
    25    21    22 1
    26    22    23 2
    27    23    24 1
    28    23    25 1

@<TRIPOS>MOLECULE
ZINC49374149_replica-1.pdb
 21 21 0 0 0
SMALL
GASTEIGER

@<TRIPOS>ATOM
       1  C1         12.4420   29.4840   64.8160  C.3       1 <0>        -0.1534
       2  C2         12.8820   30.1790   63.5270  C.3       1 <0>         0.0598
       3  O1         12.9960   31.5850   63.7580  O.3       1 <0>        -0.3448
       4  C3         12.1680   32.3850   63.0680  C.2       1 <0>         0.4600
       5  O2         10.9750   32.1930   63.1010  O.2       1 <0>        -0.4978
       6  C4         12.7260   33.5240   62.2540  C.3       1 <0>         0.1532
       7  C5         14.2060   33.7130   62.5870  C.3       1 <0>        -0.1675
       8  N1         11.9930   34.7520   62.5670  N.pl3     1 <0>        -0.7192
       9  C6         11.1370   35.3160   61.6180  C.ar      1 <0>         0.2854
      10  C7         10.5870   36.5740   61.8380  C.ar      1 <0>        -0.2180
      11  C8          9.7410   37.1290   60.8970  C.ar      1 <0>         0.0403
      12  C9          9.4410   36.4360   59.7390  C.ar      1 <0>        -0.7114
      13  C10         9.9870   35.1840   59.5180  C.ar      1 <0>         0.0390
      14  C11        10.8390   34.6260   60.4510  C.ar      1 <0>        -0.2051
      15  S1          8.3610   37.1470   58.5430  S.o2      1 <0>         2.4917
      16  O3          8.7100   38.5230   58.5120  O.2       1 <0>        -0.8640
      17  O4          8.5150   36.3340   57.3870  O.2       1 <0>        -0.8642
      18  C12         6.6980   36.9400   59.2350  C.3       1 <0>        -0.0236
      19  F1          6.2740   38.1460   59.8030  F         1 <0>        -0.1583
      20  F2          5.8120   36.5670   58.2180  F         1 <0>        -0.1607
      21  F3          6.7220   35.9440   60.2180  F         1 <0>        -0.1586
@<TRIPOS>BOND
     1     1     2 1
     2     2     3 1
     3     3     4 1
     4     4     5 2
     5     4     6 1
     6     6     7 1
     7     6     8 1
     8     8     9 1
     9     9    14 ar
    10     9    10 ar
    11    10    11 ar
    12    11    12 ar
    13    12    13 ar
    14    12    15 1
    15    13    14 ar
    16    15    16 2
    17    15    17 2
    18    15    18 1
    19    18    19 1
    20    18    20 1
    21    18    21 1

@<TRIPOS>MOLECULE
ZINC38710968_replica-1.pdb
 21 24 0 0 0
SMALL
GASTEIGER

@<TRIPOS>ATOM
       1  C1          0.2520   30.5880   59.2490  C.3       1 <0>        -0.1155
       2  C2          0.5630   31.8720   58.5230  C.ar      1 <0>        -0.1261
       3  C3          0.4080   33.0840   59.1660  C.ar      1 <0>        -0.0934
       4  C4          0.6930   34.2620   58.5010  C.ar      1 <0>        -0.1416
       5  C5          1.1350   34.2310   57.1920  C.ar      1 <0>        -0.0962
       6  C6          1.2930   33.0220   56.5420  C.ar      1 <0>        -0.1533
       7  C7          1.0120   31.8360   57.2090  C.ar      1 <0>         0.1629
       8  N1          1.1770   30.6110   56.5580  N.pl3     1 <0>        -0.6053
       9  C8          0.2920   30.2310   55.5610  C.2       1 <0>         0.3590
      10  N2          0.2770   29.1280   54.8330  N.2       1 <0>        -0.5452
      11  C9         -0.6520   28.9090   53.8990  C.2       1 <0>         0.1283
      12  C10        -1.6120   29.8830   53.7350  C.2       1 <0>        -0.2113
      13  S1         -1.1390   31.1000   54.9250  S.3       1 <0>         0.0326
      14  C11        -2.7450   29.8290   52.7730  C.3       1 <0>        -0.0243
      15  C12        -2.3300   29.0260   51.5380  C.3       1 <0>        -0.0741
      16  C13        -1.5990   27.7650   51.9100  C.ar      1 <0>        -0.0670
      17  C14        -0.7690   27.6980   53.0270  C.ar      1 <0>        -0.0157
      18  C15        -0.0730   26.5370   53.3310  C.ar      1 <0>        -0.0856
      19  C16        -0.2200   25.4240   52.5250  C.ar      1 <0>        -0.1238
      20  C17        -1.0600   25.4780   51.4270  C.ar      1 <0>        -0.1110
      21  C18        -1.7440   26.6380   51.1190  C.ar      1 <0>        -0.1187
@<TRIPOS>BOND
     1     1     2 1
     2     2     7 ar
     3     2     3 ar
     4     3     4 ar
     5     4     5 ar
     6     5     6 ar
     7     6     7 ar
     8     7     8 1
     9     8     9 1
    10     9    13 1
    11     9    10 2
    12    10    11 1
    13    11    17 1
    14    11    12 2
    15    12    13 1
    16    12    14 1
    17    14    15 1
    18    15    16 1
    19    16    21 ar
    20    16    17 ar
    21    17    18 ar
    22    18    19 ar
    23    19    20 ar
    24    20    21 ar

@<TRIPOS>MOLECULE
ZINC08042189_replica-1.pdb
 24 27 0 0 0
SMALL
GASTEIGER

@<TRIPOS>ATOM
       1  C1         -1.9540   26.7960   50.8020  C.3       1 <0>         0.0758
       2  N1         -1.1400   26.7220   52.0170  N.am      1 <0>        -0.5541
       3  C2         -0.9740   27.7830   52.9090  C.ar      1 <0>         0.1513
       4  C3         -1.4900   29.0790   52.8850  C.ar      1 <0>        -0.1368
       5  C4         -1.1840   29.9670   53.8920  C.ar      1 <0>        -0.0648
       6  C5         -0.3540   29.5780   54.9430  C.ar      1 <0>        -0.0470
       7  C6          0.1670   28.2830   54.9660  C.ar      1 <0>        -0.0291
       8  C7         -0.1480   27.4020   53.9600  C.ar      1 <0>        -0.1456
       9  C8          0.2380   25.9650   53.6970  C.3       1 <0>        -0.1132
      10  C9         -0.4670   25.6250   52.4010  C.2       1 <0>         0.5252
      11  O1         -0.4310   24.5610   51.8200  O.2       1 <0>        -0.4993
      12  C10        -0.0240   30.5350   56.0270  C.2       1 <0>         0.1392
      13  C11         0.1900   30.0890   57.3000  C.2       1 <0>        -0.2335
      14  S1          0.5440   31.6280   58.1380  S.3       1 <0>         0.0198
      15  C12         0.3720   32.7020   56.7200  C.2       1 <0>         0.3642
      16  N2          0.0730   31.8370   55.7670  N.2       1 <0>        -0.5530
      17  N3          0.5150   34.0790   56.6410  N.pl3     1 <0>        -0.6104
      18  C13         1.7290   34.6770   56.9930  C.ar      1 <0>         0.1489
      19  C14         1.8220   35.4300   58.1560  C.ar      1 <0>        -0.1287
      20  C15         3.0230   36.0170   58.5030  C.ar      1 <0>        -0.1154
      21  C16         4.1320   35.8640   57.6870  C.ar      1 <0>         0.0839
      22  C17         4.0400   35.1190   56.5240  C.ar      1 <0>        -0.1199
      23  C18         2.8420   34.5260   56.1750  C.ar      1 <0>        -0.1127
      24  F1          5.3030   36.4430   58.0260  F         1 <0>        -0.1353
@<TRIPOS>BOND
     1     1     2 1
     2     2    10 am
     3     2     3 1
     4     3     8 ar
     5     3     4 ar
     6     4     5 ar
     7     5     6 ar
     8     6     7 ar
     9     6    12 1
    10     7     8 ar
    11     8     9 1
    12     9    10 1
    13    10    11 2
    14    12    16 1
    15    12    13 2
    16    13    14 1
    17    14    15 1
    18    15    16 2
    19    15    17 1
    20    17    18 1
    21    18    23 ar
    22    18    19 ar
    23    19    20 ar
    24    20    21 ar
    25    21    22 ar
    26    21    24 1
    27    22    23 ar

@<TRIPOS>MOLECULE
ZINC07145224_replica-1.pdb
 21 21 0 0 0
SMALL
GASTEIGER

@<TRIPOS>ATOM
       1  C1         12.5380   29.5090   64.9010  C.3       1 <0>        -0.1667
       2  C2         12.7800   29.8260   63.4240  C.3       1 <0>         0.1143
       3  N1         13.2920   31.1940   63.2960  N.am      1 <0>        -0.7261
       4  C3         12.4400   32.2140   63.0790  C.2       1 <0>         0.5166
       5  O1         11.2490   32.0020   62.9880  O.2       1 <0>        -0.5142
       6  C4         12.9670   33.6210   62.9470  C.3       1 <0>         0.0715
       7  C5         14.4910   33.5830   62.8160  C.3       1 <0>        -0.1665
       8  O2         12.3950   34.2440   61.7670  O.3       1 <0>        -0.3229
       9  C6         11.6450   35.3470   61.9610  C.2       1 <0>         0.5130
      10  O3         11.8190   36.0340   62.9480  O.2       1 <0>        -0.4988
      11  C7         10.6160   35.7200   60.9760  C.ar      1 <0>        -0.1199
      12  C8          9.8100   36.8430   61.1940  C.ar      1 <0>        -0.0305
      13  C9          8.8570   37.1870   60.2780  C.ar      1 <0>        -0.0953
      14  C10         8.6860   36.4200   59.1280  C.ar      1 <0>        -0.0710
      15  C11         9.4820   35.2970   58.9100  C.ar      1 <0>        -0.1362
      16  C12        10.4410   34.9530   59.8190  C.ar      1 <0>        -0.0317
      17  S1          7.4540   36.8670   57.9490  S.3       1 <0>        -0.0081
      18  C13         7.8340   38.5950   57.5510  C.3       1 <0>         0.4504
      19  F1          7.3130   39.4290   58.5460  F         1 <0>        -0.1605
      20  F2          7.2610   38.9270   56.3180  F         1 <0>        -0.1608
      21  F3          9.2220   38.7640   57.4810  F         1 <0>        -0.1418
@<TRIPOS>BOND
     1     1     2 1
     2     2     3 1
     3     3     4 am
     4     4     5 2
     5     4     6 1
     6     6     7 1
     7     6     8 1
     8     8     9 1
     9     9    10 2
    10     9    11 1
    11    11    16 ar
    12    11    12 ar
    13    12    13 ar
    14    13    14 ar
    15    14    15 ar
    16    14    17 1
    17    15    16 ar
    18    17    18 1
    19    18    19 1
    20    18    20 1
    21    18    21 1

@<TRIPOS>MOLECULE
CHEMBL429332_replica-1.pdb
 21 22 0 0 0
SMALL
GASTEIGER

@<TRIPOS>ATOM
       1  C1         12.9830   30.5610   63.5610  C.3       1 <0>        -0.1546
       2  C2         12.4890   31.8710   62.9440  C.3       1 <0>        -0.1258
       3  C3         13.5500   32.9560   63.1310  C.3       1 <0>        -0.1214
       4  C4         12.8860   34.3340   63.0770  C.3       1 <0>        -0.1206
       5  C5         11.9810   34.4170   61.8460  C.3       1 <0>        -0.1142
       6  C6         11.1880   35.7240   61.8840  C.3       1 <0>        -0.0838
       7  C7         10.3570   35.8440   60.6330  C.ar      1 <0>        -0.0303
       8  C8         10.3490   34.8150   59.7090  C.ar      1 <0>        -0.1425
       9  C9          9.5880   34.9190   58.5600  C.ar      1 <0>        -0.0671
      10  C10         8.8320   36.0570   58.3310  C.ar      1 <0>         0.0547
      11  C11         8.8400   37.0930   59.2600  C.ar      1 <0>         0.1398
      12  C12         9.6000   36.9800   60.4130  C.ar      1 <0>        -0.1977
      13  O1          8.0990   38.2120   59.0400  O.3       1 <0>        -0.3089
      14  C13         6.7980   38.2550   59.6280  C.3       1 <0>         0.0260
      15  O2          8.0840   36.1620   57.2000  O.3       1 <0>        -0.2176
      16  C14         7.1240   35.2300   56.9840  C.ar      1 <0>         0.4999
      17  N1          7.2120   34.4460   55.9210  N.ar      1 <0>        -0.5551
      18  C15         6.2920   33.5260   55.6800  C.ar      1 <0>         0.1848
      19  C16         5.2270   33.3900   56.5570  C.ar      1 <0>        -0.2675
      20  C17         5.1670   34.2280   57.6590  C.ar      1 <0>         0.1865
      21  N2          6.1240   35.1230   57.8430  N.ar      1 <0>        -0.5219
@<TRIPOS>BOND
     1     1     2 1
     2     2     3 1
     3     3     4 1
     4     4     5 1
     5     5     6 1
     6     6     7 1
     7     7    12 ar
     8     7     8 ar
     9     8     9 ar
    10     9    10 ar
    11    10    11 ar
    12    10    15 1
    13    11    12 ar
    14    11    13 1
    15    13    14 1
    16    15    16 1
    17    16    21 ar
    18    16    17 ar
    19    17    18 ar
    20    18    19 ar
    21    19    20 ar
    22    20    21 ar

@<TRIPOS>MOLECULE
ZINC08415898_replica-1.pdb
 25 28 0 0 0
SMALL
GASTEIGER

@<TRIPOS>ATOM
       1  C1          3.7140   32.1830   57.8420  C.3       1 <0>        -0.1202
       2  C2          2.8970   33.4070   58.1640  C.ar      1 <0>        -0.0576
       3  C3          3.5120   34.6380   58.2830  C.ar      1 <0>        -0.1115
       4  C4          2.7630   35.7620   58.5770  C.ar      1 <0>        -0.0935
       5  C5          1.3950   35.6580   58.7530  C.ar      1 <0>        -0.1148
       6  C6          0.7730   34.4290   58.6340  C.ar      1 <0>        -0.0882
       7  C7          1.5230   33.3000   58.3390  C.ar      1 <0>         0.0845
       8  N1          0.8960   32.0520   58.2170  N.am      1 <0>        -0.5315
       9  C8          0.5020   31.6630   57.0160  C.2       1 <0>         0.5193
      10  O1          0.6640   32.3470   56.0280  O.2       1 <0>        -0.4374
      11  C9         -0.1660   30.2960   56.9590  C.3       1 <0>         0.1731
      12  S1         -0.0940   29.8370   58.7360  S.3       1 <0>        -0.1338
      13  C10         0.7220   31.3130   59.3280  C.2       1 <0>         0.5549
      14  O2          1.0450   31.5850   60.4670  O.2       1 <0>        -0.4009
      15  N2          0.5990   29.3580   56.1340  N.pl3     1 <0>        -0.7236
      16  C11         0.0360   28.8360   54.9680  C.ar      1 <0>         0.2024
      17  C12        -0.8020   29.6370   54.1820  C.ar      1 <0>        -0.1494
      18  C13        -1.3580   29.1550   53.0400  C.ar      1 <0>        -0.0645
      19  C14        -1.1020   27.8320   52.6390  C.ar      1 <0>        -0.0811
      20  C15        -1.6680   27.3060   51.4650  C.ar      1 <0>        -0.0941
      21  C16        -1.4020   26.0200   51.1050  C.ar      1 <0>        -0.1292
      22  C17        -0.5730   25.2140   51.8840  C.ar      1 <0>        -0.1041
      23  C18        -0.0060   25.6890   53.0260  C.ar      1 <0>        -0.1175
      24  C19        -0.2590   27.0110   53.4310  C.ar      1 <0>        -0.0084
      25  C20         0.3080   27.5350   54.6040  C.ar      1 <0>        -0.1699
@<TRIPOS>BOND
     1     1     2 1
     2     2     7 ar
     3     2     3 ar
     4     3     4 ar
     5     4     5 ar
     6     5     6 ar
     7     6     7 ar
     8     7     8 1
     9     8    13 am
    10     8     9 am
    11     9    10 2
    12     9    11 1
    13    11    12 1
    14    11    15 1
    15    12    13 1
    16    13    14 2
    17    15    16 1
    18    16    25 ar
    19    16    17 ar
    20    17    18 ar
    21    18    19 ar
    22    19    24 ar
    23    19    20 ar
    24    20    21 ar
    25    21    22 ar
    26    22    23 ar
    27    23    24 ar
    28    24    25 ar

@<TRIPOS>MOLECULE
ZINC25819075_replica-1.pdb
 28 30 0 0 0
SMALL
GASTEIGER

@<TRIPOS>ATOM
       1  C1         -0.5580   26.0600   57.4400  C.3       1 <0>        -0.1690
       2  C2          0.6820   26.8160   56.9600  C.3       1 <0>         0.1210
       3  N1          0.8350   26.6360   55.5140  N.pl3     1 <0>        -0.7036
       4  C3          0.1200   27.4290   54.6420  C.ar      1 <0>         0.4894
       5  C4         -0.3700   26.9050   53.4180  C.ar      1 <0>        -0.2043
       6  C5         -0.1560   25.5750   53.0420  C.ar      1 <0>        -0.0633
       7  C6         -0.6500   25.1250   51.8530  C.ar      1 <0>        -0.1406
       8  C7         -1.3650   25.9700   51.0100  C.ar      1 <0>        -0.0699
       9  C8         -1.5910   27.2720   51.3480  C.ar      1 <0>        -0.1158
      10  C9         -1.0970   27.7670   52.5620  C.ar      1 <0>         0.2011
      11  N2         -1.2920   29.0390   52.9400  N.ar      1 <0>        -0.5633
      12  C10        -0.8130   29.4760   54.0910  C.ar      1 <0>         0.3402
      13  N3         -0.1200   28.7010   54.9220  N.ar      1 <0>        -0.5817
      14  S1         -1.0950   31.1560   54.5400  S.3       1 <0>         0.1010
      15  C11        -1.9880   30.9190   56.0970  C.3       1 <0>        -0.1166
      16  C12        -2.9440   29.7320   55.9610  C.3       1 <0>        -0.1472
      17  C13        -1.0030   30.6450   57.2040  C.2       1 <0>         0.5335
      18  O1         -1.1910   29.7230   57.9690  O.2       1 <0>        -0.5257
      19  N4          0.0870   31.4260   57.3450  N.am      1 <0>        -0.7323
      20  C14         1.0440   31.1600   58.4220  C.3       1 <0>         0.1889
      21  C15         2.4470   31.5720   57.9700  C.3       1 <0>        -0.1602
      22  C16         0.6580   31.9520   59.6440  C.ar      1 <0>        -0.1016
      23  C17         0.3620   31.2980   60.8260  C.ar      1 <0>        -0.0860
      24  C18         0.0130   32.0220   61.9490  C.ar      1 <0>        -0.1482
      25  C19        -0.0510   33.4040   61.8880  C.ar      1 <0>         0.1004
      26  C20         0.2400   34.0580   60.7040  C.ar      1 <0>        -0.1478
      27  C21         0.5950   33.3320   59.5830  C.ar      1 <0>        -0.0771
      28  F1         -0.3980   34.1130   62.9850  F         1 <0>        -0.1377
@<TRIPOS>BOND
     1     1     2 1
     2     2     3 1
     3     3     4 1
     4     4    13 ar
     5     4     5 ar
     6     5    10 ar
     7     5     6 ar
     8     6     7 ar
     9     7     8 ar
    10     8     9 ar
    11     9    10 ar
    12    10    11 ar
    13    11    12 ar
    14    12    13 ar
    15    12    14 1
    16    14    15 1
    17    15    16 1
    18    15    17 1
    19    17    18 2
    20    17    19 am
    21    19    20 1
    22    20    21 1
    23    20    22 1
    24    22    27 ar
    25    22    23 ar
    26    23    24 ar
    27    24    25 ar
    28    25    26 ar
    29    25    28 1
    30    26    27 ar

@<TRIPOS>MOLECULE
ZINC40018675_replica-1.pdb
 26 29 0 0 0
SMALL
GASTEIGER

@<TRIPOS>ATOM
       1  C1         11.5350   34.3020   61.6720  C.3       1 <0>        -0.1186
       2  C2         10.6660   35.1880   60.8180  C.ar      1 <0>        -0.0707
       3  C3         10.2330   34.7470   59.5820  C.ar      1 <0>        -0.1278
       4  C4          9.4350   35.5590   58.7980  C.ar      1 <0>        -0.0894
       5  C5          9.0710   36.8130   59.2510  C.ar      1 <0>        -0.1309
       6  C6          9.5040   37.2550   60.4870  C.ar      1 <0>        -0.0880
       7  C7         10.2970   36.4400   61.2720  C.ar      1 <0>        -0.1258
       8  C8          8.2030   37.7000   58.3960  C.3       1 <0>         0.1267
       9  N1          6.9600   36.9960   58.0690  N.am      1 <0>        -0.5151
      10  C9          6.0040   36.9140   58.9790  C.2       1 <0>         0.5481
      11  O1          6.1290   37.4100   60.0840  O.2       1 <0>        -0.4574
      12  C10         4.7760   36.1930   58.5870  C.2       1 <0>        -0.2568
      13  C11         3.6480   35.9550   59.3030  C.2       1 <0>         0.1049
      14  C12         2.6240   35.0430   58.7770  C.ar      1 <0>        -0.1356
      15  C13         1.5040   35.5480   58.1070  C.ar      1 <0>        -0.0449
      16  C14         0.5500   34.6910   57.6120  C.ar      1 <0>        -0.1370
      17  C15         0.6870   33.3110   57.7720  C.ar      1 <0>         0.1461
      18  C16         1.7990   32.8130   58.4450  C.ar      1 <0>        -0.1804
      19  C17         2.7640   33.6580   58.9350  C.ar      1 <0>        -0.0209
      20  C18         1.6570   31.3030   58.4800  C.3       1 <0>        -0.1074
      21  C19         0.1680   31.1140   58.1060  C.3       1 <0>         0.0749
      22  O2         -0.1250   32.3030   57.3540  O.3       1 <0>        -0.2939
      23  C20        -0.0190   29.8630   57.2450  C.3       1 <0>        -0.1522
      24  S1          5.1860   35.7190   56.9140  S.3       1 <0>         0.0769
      25  C21         6.8140   36.4500   56.8440  C.2       1 <0>         0.2640
      26  S2          7.9230   36.4540   55.5400  S.2       1 <0>        -0.3415
@<TRIPOS>BOND
     1     1     2 1
     2     2     7 ar
     3     2     3 ar
     4     3     4 ar
     5     4     5 ar
     6     5     6 ar
     7     5     8 1
     8     6     7 ar
     9     8     9 1
    10     9    25 1
    11     9    10 am
    12    10    11 2
    13    10    12 1
    14    12    13 2
    15    12    24 1
    16    13    14 1
    17    14    19 ar
    18    14    15 ar
    19    15    16 ar
    20    16    17 ar
    21    17    22 1
    22    17    18 ar
    23    18    19 ar
    24    18    20 1
    25    20    21 1
    26    21    22 1
    27    21    23 1
    28    24    25 1
    29    25    26 2

@<TRIPOS>MOLECULE
ZINC35316383_replica-1.pdb
 24 27 0 0 0
SMALL
GASTEIGER

@<TRIPOS>ATOM
       1  C1         12.0580   33.4590   62.5800  C.3       1 <0>         0.0255
       2  O1         12.1170   34.8570   62.2900  O.3       1 <0>        -0.3159
       3  C2         11.1680   35.3540   61.4520  C.ar      1 <0>         0.1365
       4  C3         10.7760   34.6270   60.3370  C.ar      1 <0>        -0.2056
       5  C4          9.8120   35.1340   59.4880  C.ar      1 <0>        -0.0608
       6  C5          9.2380   36.3640   59.7470  C.ar      1 <0>        -0.1323
       7  C6          9.6250   37.0900   60.8580  C.ar      1 <0>        -0.0654
       8  C7         10.5860   36.5850   61.7150  C.ar      1 <0>        -0.1466
       9  C8          8.1860   36.9150   58.8190  C.3       1 <0>         0.0507
      10  C9          8.5360   36.5540   57.3690  C.3       1 <0>        -0.1269
      11  C10         7.3350   36.7000   56.4780  C.2       1 <0>         0.5239
      12  O2          7.4930   37.1390   55.3590  O.2       1 <0>        -0.5209
      13  N1          6.0900   36.3650   56.8680  N.am      1 <0>        -0.6428
      14  C11         5.8700   36.0530   58.2350  C.2       1 <0>         0.0764
      15  C12         6.8580   36.3090   59.1460  C.2       1 <0>        -0.2694
      16  S1          6.2300   35.8070   60.6000  S.3       1 <0>         0.4100
      17  N2          4.7150   35.3000   60.0980  N.2       1 <0>        -0.4418
      18  C13         4.7120   35.5130   58.7950  C.2       1 <0>         0.1307
      19  C14         3.5270   35.1960   57.9620  C.ar      1 <0>        -0.0359
      20  C15         3.4810   34.0070   57.2350  C.ar      1 <0>        -0.1061
      21  C16         2.3750   33.7160   56.4630  C.ar      1 <0>        -0.1151
      22  C17         1.3140   34.6010   56.4090  C.ar      1 <0>        -0.1047
      23  C18         1.3540   35.7830   57.1270  C.ar      1 <0>        -0.1170
      24  C19         2.4530   36.0820   57.9080  C.ar      1 <0>        -0.0812
@<TRIPOS>BOND
     1     1     2 1
     2     2     3 1
     3     3     8 ar
     4     3     4 ar
     5     4     5 ar
     6     5     6 ar
     7     6     7 ar
     8     6     9 1
     9     7     8 ar
    10     9    15 1
    11     9    10 1
    12    10    11 1
    13    11    12 2
    14    11    13 am
    15    13    14 1
    16    14    18 1
    17    14    15 2
    18    15    16 1
    19    16    17 1
    20    17    18 2
    21    18    19 1
    22    19    24 ar
    23    19    20 ar
    24    20    21 ar
    25    21    22 ar
    26    22    23 ar
    27    23    24 ar

@<TRIPOS>MOLECULE
ZINC02252229_replica-1.pdb
 29 32 0 0 0
SMALL
GASTEIGER

@<TRIPOS>ATOM
       1  C1         -0.2210   32.9940   62.9260  C.3       1 <0>        -0.1204
       2  C2          0.5110   33.2350   61.6310  C.ar      1 <0>        -0.0602
       3  C3          1.4760   32.3410   61.2070  C.ar      1 <0>        -0.1106
       4  C4          2.1480   32.5590   60.0200  C.ar      1 <0>        -0.0808
       5  C5          1.8540   33.6780   59.2530  C.ar      1 <0>         0.0801
       6  C6          0.8840   34.5740   59.6820  C.ar      1 <0>        -0.0811
       7  C7          0.2150   34.3500   60.8690  C.ar      1 <0>        -0.1106
       8  N1          2.5340   33.9010   58.0490  N.am      1 <0>        -0.4690
       9  C8          3.7010   34.5720   58.0650  C.2       1 <0>         0.5609
      10  O1          4.1640   34.9810   59.1160  O.2       1 <0>        -0.5029
      11  C9          4.3940   34.7930   56.8340  C.2       1 <0>        -0.2521
      12  C10         5.6630   35.4830   56.6160  C.2       1 <0>        -0.0341
      13  C11         6.1090   35.5660   55.3440  C.2       1 <0>        -0.2293
      14  S1          4.8800   34.7410   54.3720  S.3       1 <0>         0.1753
      15  C12         3.7700   34.2850   55.6800  C.2       1 <0>         0.1201
      16  N2          2.6130   33.6360   55.7300  N.2       1 <0>        -0.4983
      17  C13         1.9970   33.4400   56.8790  C.2       1 <0>         0.3777
      18  S2          0.4640   32.5730   56.9090  S.3       1 <0>         0.0440
      19  C14         0.7550   31.3760   55.5830  C.3       1 <0>        -0.0765
      20  C15        -0.5560   30.7640   55.1620  C.2       1 <0>        -0.1294
      21  C16        -0.6150   30.0160   54.0890  C.2       1 <0>        -0.1541
      22  C17        -1.7990   31.0110   55.9780  C.3       1 <0>        -0.1217
      23  C18         7.3770   36.2220   54.8890  C.3       1 <0>         0.1502
      24  O2          8.1880   36.4630   56.0500  O.3       1 <0>        -0.3613
      25  C19         7.4780   37.0890   57.1220  C.3       1 <0>         0.0927
      26  C20         6.4860   36.1020   57.7430  C.3       1 <0>        -0.0863
      27  C21         8.4730   37.5480   58.1900  C.3       1 <0>        -0.0870
      28  C22         7.7490   38.4160   59.2220  C.3       1 <0>        -0.1450
      29  C23         9.0770   36.3260   58.8840  C.3       1 <0>        -0.1510
@<TRIPOS>BOND
     1     1     2 1
     2     2     7 ar
     3     2     3 ar
     4     3     4 ar
     5     4     5 ar
     6     5     6 ar
     7     5     8 1
     8     6     7 ar
     9     8    17 1
    10     8     9 am
    11     9    10 2
    12     9    11 1
    13    11    15 2
    14    11    12 1
    15    12    26 1
    16    12    13 2
    17    13    14 1
    18    13    23 1
    19    14    15 1
    20    15    16 1
    21    16    17 2
    22    17    18 1
    23    18    19 1
    24    19    20 1
    25    20    21 2
    26    20    22 1
    27    23    24 1
    28    24    25 1
    29    25    26 1
    30    25    27 1
    31    27    28 1
    32    27    29 1

@<TRIPOS>MOLECULE
ZINC01930692_replica-1.pdb
 27 29 0 0 0
SMALL
GASTEIGER

@<TRIPOS>ATOM
       1  C1          8.4340   38.7570   57.4350  C.3       1 <0>        -0.1533
       2  C2          8.2400   37.5720   56.4870  C.3       1 <0>         0.0578
       3  O1          8.7060   36.3570   57.1310  O.3       1 <0>        -0.3501
       4  C3          7.8160   35.3500   57.2550  C.2       1 <0>         0.5312
       5  O2          7.9180   34.3590   56.5560  O.2       1 <0>        -0.4934
       6  C4          6.7290   35.4500   58.2310  C.2       1 <0>        -0.2024
       7  C5          5.3440   35.5760   57.8070  C.2       1 <0>        -0.0627
       8  C6          4.4420   35.6580   58.8070  C.2       1 <0>        -0.2033
       9  S1          5.4020   35.5710   60.2920  S.3       1 <0>         0.2458
      10  C7          6.9810   35.4230   59.5960  C.2       1 <0>         0.0754
      11  N1          8.2010   35.3070   60.2440  N.am      1 <0>        -0.6172
      12  C8          8.7950   36.3990   60.7640  C.2       1 <0>         0.5077
      13  O3          8.2630   37.4850   60.6650  O.2       1 <0>        -0.4903
      14  C9         10.1220   36.2730   61.4680  C.3       1 <0>         0.1159
      15  N2         10.9220   35.2330   60.8200  N.pl3     1 <0>        -0.7396
      16  C10        11.5380   34.2430   61.5910  C.ar      1 <0>         0.2096
      17  C11        10.8330   33.1020   61.9500  C.ar      1 <0>        -0.1958
      18  C12        11.4460   32.1240   62.7090  C.ar      1 <0>        -0.0722
      19  C13        12.7570   32.2840   63.1180  C.ar      1 <0>        -0.1413
      20  C14        13.4590   33.4220   62.7670  C.ar      1 <0>        -0.0711
      21  C15        12.8540   34.4020   62.0040  C.ar      1 <0>        -0.1841
      22  C16        13.4210   31.2180   63.9500  C.3       1 <0>        -0.1086
      23  C17         2.9560   35.7920   58.6750  C.3       1 <0>        -0.0315
      24  C18         2.5660   35.4450   57.2310  C.3       1 <0>        -0.0868
      25  C19         3.4940   36.2010   56.2750  C.3       1 <0>        -0.1140
      26  C20         4.9060   35.6160   56.3480  C.3       1 <0>        -0.0632
      27  C21         1.1150   35.8600   56.9770  C.3       1 <0>        -0.1478
@<TRIPOS>BOND
     1     1     2 1
     2     2     3 1
     3     3     4 1
     4     4     5 2
     5     4     6 1
     6     6    10 2
     7     6     7 1
     8     7    26 1
     9     7     8 2
    10     8     9 1
    11     8    23 1
    12     9    10 1
    13    10    11 1
    14    11    12 am
    15    12    13 2
    16    12    14 1
    17    14    15 1
    18    15    16 1
    19    16    21 ar
    20    16    17 ar
    21    17    18 ar
    22    18    19 ar
    23    19    20 ar
    24    19    22 1
    25    20    21 ar
    26    23    24 1
    27    24    25 1
    28    24    27 1
    29    25    26 1

@<TRIPOS>MOLECULE
ZINC36874499_replica-1.pdb
 26 29 0 0 0
SMALL
GASTEIGER

@<TRIPOS>ATOM
       1  C1          6.5710   37.5580   55.8380  C.3       1 <0>        -0.1615
       2  C2          6.3700   36.2510   56.6080  C.3       1 <0>         0.1855
       3  C3          4.9190   36.1120   56.9900  C.ar      1 <0>        -0.1076
       4  C4          4.5670   35.9520   58.3170  C.ar      1 <0>        -0.0851
       5  C5          3.2370   35.8250   58.6690  C.ar      1 <0>        -0.1480
       6  C6          2.2570   35.8570   57.6910  C.ar      1 <0>         0.1028
       7  C7          2.6100   36.0170   56.3620  C.ar      1 <0>        -0.1482
       8  C8          3.9410   36.1490   56.0140  C.ar      1 <0>        -0.0747
       9  F1          0.9550   35.7310   58.0340  F         1 <0>        -0.1369
      10  N1          7.1940   36.2660   57.8180  N.am      1 <0>        -0.7150
      11  C9          8.3660   35.5990   57.8440  C.2       1 <0>         0.6084
      12  O1          8.7380   34.9850   56.8620  O.2       1 <0>        -0.5061
      13  C10         9.1920   35.6130   59.0570  C.2       1 <0>        -0.0513
      14  C11         9.4340   36.7100   59.8530  C.2       1 <0>        -0.1147
      15  C12        10.2640   36.2810   60.8940  C.2       1 <0>        -0.1313
      16  C13        10.4960   34.9380   60.6930  C.2       1 <0>         0.0733
      17  O2          9.8370   34.5540   59.5850  O.3       1 <0>        -0.1492
      18  C14        11.3210   34.0700   61.5490  C.2       1 <0>         0.2112
      19  N2         11.0030   32.9240   62.1140  N.2       1 <0>        -0.4742
      20  C15        11.8610   32.2320   62.8760  C.ar      1 <0>         0.0767
      21  C16        11.6450   30.9970   63.5360  C.ar      1 <0>        -0.0513
      22  C17        12.6280   30.4220   64.2770  C.ar      1 <0>        -0.1118
      23  C18        13.8760   31.0140   64.4200  C.ar      1 <0>        -0.0824
      24  C19        14.1300   32.2190   63.7920  C.ar      1 <0>        -0.0701
      25  C20        13.1430   32.8100   63.0400  C.ar      1 <0>        -0.1383
      26  S1         13.0130   34.2980   62.0790  S.3       1 <0>         0.0294
@<TRIPOS>BOND
     1     1     2 1
     2     2     3 1
     3     2    10 1
     4     3     8 ar
     5     3     4 ar
     6     4     5 ar
     7     5     6 ar
     8     6     7 ar
     9     6     9 1
    10     7     8 ar
    11    10    11 am
    12    11    12 2
    13    11    13 1
    14    13    17 1
    15    13    14 2
    16    14    15 1
    17    15    16 2
    18    16    17 1
    19    16    18 1
    20    18    26 1
    21    18    19 2
    22    19    20 1
    23    20    25 ar
    24    20    21 ar
    25    21    22 ar
    26    22    23 ar
    27    23    24 ar
    28    24    25 ar
    29    25    26 1

@<TRIPOS>MOLECULE
ZINC43220899_replica-1.pdb
 26 30 0 0 0
SMALL
GASTEIGER

@<TRIPOS>ATOM
       1  C1          2.5000   31.4200   58.3720  C.3       1 <0>         0.0358
       2  N1          3.3160   32.0460   57.3240  N.3       1 <0>        -0.6832
       3  C2          2.4700   32.7350   56.3400  C.3       1 <0>         0.0365
       4  P1          4.4500   33.1010   57.9900  P.3       1 <0>         0.7416
       5  O1          5.8730   32.3570   57.9190  O.3       1 <0>        -0.4163
       6  C3          6.8900   32.8030   58.6820  C.ar      1 <0>         0.1365
       7  C4          7.5490   31.7960   59.3810  C.ar      1 <0>        -0.1432
       8  C5          8.6140   32.0890   60.1830  C.ar      1 <0>        -0.0903
       9  C6          9.0220   33.4080   60.3070  C.ar      1 <0>        -0.1010
      10  C7          8.3720   34.4260   59.6350  C.ar      1 <0>        -0.0248
      11  C8          7.2980   34.1380   58.7900  C.ar      1 <0>        -0.1190
      12  C9          6.5670   35.1830   57.9980  C.3       1 <0>        -0.0333
      13  C10         7.2120   36.5140   57.8590  C.ar      1 <0>        -0.0602
      14  C11         7.1000   37.4370   58.8930  C.ar      1 <0>        -0.0970
      15  C12         7.7630   38.6440   58.8370  C.ar      1 <0>        -0.1323
      16  C13         8.4940   38.9880   57.7190  C.ar      1 <0>        -0.1087
      17  C14         8.5080   38.1320   56.6320  C.ar      1 <0>        -0.1222
      18  C15         7.8090   36.9410   56.6870  C.ar      1 <0>        -0.0737
      19  C16         7.5760   36.1640   55.4180  C.3       1 <0>        -0.0792
      20  C17         6.1860   35.5450   55.4890  C.3       1 <0>        -0.1080
      21  C18         6.0530   34.6330   56.6790  C.3       1 <0>         0.1076
      22  O2          4.6500   34.2960   56.8920  O.3       1 <0>        -0.4556
      23  C19         8.7920   35.8540   59.8480  C.3       1 <0>        -0.0958
      24  C20         9.9510   36.0530   60.8160  C.3       1 <0>        -0.1210
      25  C21        10.9490   34.8980   60.7040  C.3       1 <0>        -0.1205
      26  C22        10.2160   33.6510   61.2020  C.3       1 <0>        -0.0801
@<TRIPOS>BOND
     1     1     2 1
     2     2     3 1
     3     2     4 1
     4     4    22 1
     5     4     5 1
     6     5     6 1
     7     6    11 ar
     8     6     7 ar
     9     7     8 ar
    10     8     9 ar
    11     9    26 1
    12     9    10 ar
    13    10    11 ar
    14    10    23 1
    15    11    12 1
    16    12    21 1
    17    12    13 1
    18    13    18 ar
    19    13    14 ar
    20    14    15 ar
    21    15    16 ar
    22    16    17 ar
    23    17    18 ar
    24    18    19 1
    25    19    20 1
    26    20    21 1
    27    21    22 1
    28    23    24 1
    29    24    25 1
    30    25    26 1

@<TRIPOS>MOLECULE
ZINC48417804_replica-1.pdb
 26 29 0 0 0
SMALL
GASTEIGER

@<TRIPOS>ATOM
       1  C1          7.6500   31.2430   61.2740  C.3       1 <0>        -0.0449
       2  N1          7.2770   32.2700   60.2920  N.4       1 <0>        -0.3820
       3  C2          8.3070   33.3110   60.2620  C.3       1 <0>         0.0583
       4  C3          8.0010   34.3530   59.2230  C.ar      1 <0>        -0.2059
       5  C4          8.5450   35.6240   59.3450  C.ar      1 <0>         0.0074
       6  C5          8.2190   36.6000   58.3040  C.ar      1 <0>        -0.0876
       7  C6          8.7200   37.9050   58.3440  C.ar      1 <0>        -0.0691
       8  C7          8.3930   38.7840   57.3540  C.ar      1 <0>        -0.1191
       9  C8          7.5640   38.3980   56.3030  C.ar      1 <0>        -0.0895
      10  C9          7.0570   37.1360   56.2330  C.ar      1 <0>        -0.1007
      11  C10         7.3750   36.2010   57.2370  C.ar      1 <0>         0.1378
      12  N2          6.8930   34.9590   57.1960  N.ar      1 <0>        -0.4549
      13  C11         7.1710   34.0610   58.1230  C.ar      1 <0>         0.1916
      14  C12         6.5960   32.7000   58.0180  C.2       1 <0>        -0.1534
      15  C13         5.6330   32.4090   57.1280  C.2       1 <0>         0.0062
      16  C14         4.9710   33.4920   56.3790  C.ar      1 <0>        -0.0967
      17  C15         3.9890   34.2740   56.9930  C.ar      1 <0>        -0.0127
      18  C16         3.3750   35.2850   56.2850  C.ar      1 <0>        -0.1389
      19  C17         3.7280   35.5280   54.9690  C.ar      1 <0>        -0.0726
      20  C18         4.6980   34.7600   54.3520  C.ar      1 <0>        -0.1637
      21  C19         5.3280   33.7470   55.0490  C.ar      1 <0>         0.1215
      22  F1          6.2810   33.0010   54.4480  F         1 <0>        -0.1380
      23  C20         7.1480   31.6510   58.9630  C.3       1 <0>         0.0533
      24  C21         9.4180   35.9770   60.4810  C.2       1 <0>         0.5180
      25  O1         10.6260   35.7980   60.4040  O.co2     1 <0>        -0.6555
      26  O2          8.9340   36.4500   61.5010  O.co2     1 <0>        -0.6589
@<TRIPOS>BOND
     1     1     2 1
     2     2    23 1
     3     2     3 1
     4     3     4 1
     5     4    13 ar
     6     4     5 ar
     7     5     6 ar
     8     5    24 1
     9     6    11 ar
    10     6     7 ar
    11     7     8 ar
    12     8     9 ar
    13     9    10 ar
    14    10    11 ar
    15    11    12 ar
    16    12    13 ar
    17    13    14 1
    18    14    15 2
    19    14    23 1
    20    15    16 1
    21    16    21 ar
    22    16    17 ar
    23    17    18 ar
    24    18    19 ar
    25    19    20 ar
    26    20    21 ar
    27    21    22 1
    28    24    25 2
    29    24    26 1

@<TRIPOS>MOLECULE
ZINC51020142_replica-1.pdb
 20 22 0 0 0
SMALL
GASTEIGER

@<TRIPOS>ATOM
       1  C1          8.5810   34.5230   56.7720  C.ar      1 <0>        -0.0821
       2  C2          8.0600   33.2490   56.8990  C.ar      1 <0>        -0.1356
       3  C3          8.1180   32.5940   58.1190  C.ar      1 <0>        -0.0601
       4  C4          8.6970   33.2210   59.2060  C.ar      1 <0>        -0.1481
       5  C5          9.2240   34.5090   59.0820  C.ar      1 <0>         0.1916
       6  C6          9.1610   35.1540   57.8570  C.ar      1 <0>        -0.1487
       7  N1          9.8140   35.1400   60.1840  N.pl3     1 <0>        -0.5806
       8  C7         10.5850   34.4350   61.1140  C.ar      1 <0>         0.1916
       9  C8         11.7140   35.0170   61.6700  C.ar      1 <0>        -0.1487
      10  C9         12.4730   34.3140   62.5890  C.ar      1 <0>        -0.0821
      11  C10        12.1140   33.0320   62.9590  C.ar      1 <0>        -0.1355
      12  C11        10.9870   32.4410   62.4100  C.ar      1 <0>        -0.0601
      13  C12        10.2270   33.1390   61.4910  C.ar      1 <0>        -0.1480
      14  S1          8.7860   32.4130   60.7730  S.3       1 <0>         0.0029
      15  C13         9.6180   36.5800   60.3670  C.3       1 <0>         0.1218
      16  C14         8.2000   36.8410   60.8790  C.3       1 <0>        -0.1354
      17  C15         7.4860   37.8080   59.9330  C.3       1 <0>        -0.1128
      18  C16         8.5190   38.5250   59.0610  C.3       1 <0>        -0.1204
      19  C17         7.9720   38.6750   57.6400  C.3       1 <0>         0.0747
      20  O1          9.0400   39.0030   56.7510  O.3       1 <0>        -0.5761
@<TRIPOS>BOND
     1     1     6 ar
     2     1     2 ar
     3     2     3 ar
     4     3     4 ar
     5     4    14 1
     6     4     5 ar
     7     5     6 ar
     8     5     7 1
     9     7     8 1
    10     7    15 1
    11     8    13 ar
    12     8     9 ar
    13     9    10 ar
    14    10    11 ar
    15    11    12 ar
    16    12    13 ar
    17    13    14 1
    18    15    16 1
    19    16    17 1
    20    17    18 1
    21    18    19 1
    22    19    20 1

@<TRIPOS>MOLECULE
ZINC43224558_replica-1.pdb
 23 24 0 0 0
SMALL
GASTEIGER

@<TRIPOS>ATOM
       1  C1          9.7410   36.5490   60.3060  C.3       1 <0>        -0.1537
       2  C2         10.0420   35.2350   59.5820  C.3       1 <0>        -0.1212
       3  C3          9.2800   35.1980   58.2550  C.3       1 <0>        -0.1372
       4  C4          8.3980   36.4430   58.1400  C.3       1 <0>         0.0963
       5  N1          7.0640   36.0560   57.6760  N.pl3     1 <0>        -0.4282
       6  C5          6.6860   36.0040   56.3830  C.2       1 <0>         0.0753
       7  C6          5.3820   35.6030   56.3240  C.2       1 <0>        -0.2103
       8  C7          4.9540   35.4020   57.7200  C.2       1 <0>        -0.0980
       9  C8          6.0340   35.6910   58.4890  C.2       1 <0>         0.0472
      10  C9          6.0850   35.6240   59.9940  C.3       1 <0>        -0.0530
      11  C10         6.4940   34.2150   60.4270  C.3       1 <0>        -0.1198
      12  C11         5.3240   33.5420   61.1470  C.3       1 <0>        -0.1541
      13  C12         3.6160   34.9650   58.1890  C.ar      1 <0>        -0.0191
      14  C13         2.6690   35.9110   58.5770  C.ar      1 <0>        -0.0794
      15  C14         1.4260   35.5000   59.0120  C.ar      1 <0>        -0.1542
      16  C15         1.1180   34.1510   59.0630  C.ar      1 <0>         0.0964
      17  C16         2.0560   33.2070   58.6790  C.ar      1 <0>        -0.1517
      18  C17         3.3010   33.6080   58.2360  C.ar      1 <0>        -0.0715
      19  F1         -0.1010   33.7530   59.4910  F         1 <0>        -0.1405
      20  C18         4.5680   35.4130   55.1120  C.2       1 <0>         0.6022
      21  O1          4.8600   34.5420   54.3150  O.2       1 <0>        -0.5392
      22  N2          3.5000   36.2030   54.8870  N.am      1 <0>        -0.8491
      23  C19         7.5580   36.3330   55.1990  C.3       1 <0>        -0.0921
@<TRIPOS>BOND
     1     1     2 1
     2     2     3 1
     3     3     4 1
     4     4     5 1
     5     5     9 1
     6     5     6 1
     7     6     7 2
     8     6    23 1
     9     7     8 1
    10     7    20 1
    11     8     9 2
    12     8    13 1
    13     9    10 1
    14    10    11 1
    15    11    12 1
    16    13    18 ar
    17    13    14 ar
    18    14    15 ar
    19    15    16 ar
    20    16    17 ar
    21    16    19 1
    22    17    18 ar
    23    20    21 2
    24    20    22 am

@<TRIPOS>MOLECULE
ZINC05247887_replica-1.pdb
 22 23 0 0 0
SMALL
GASTEIGER

@<TRIPOS>ATOM
       1  C1          7.9500   32.4870   59.5170  C.3       1 <0>        -0.1247
       2  C2          9.0900   32.9610   60.3810  C.2       1 <0>         0.0131
       3  C3          9.6090   32.1470   61.3200  C.2       1 <0>        -0.1993
       4  C4         10.7110   32.6080   62.1630  C.2       1 <0>         0.4060
       5  O1         11.1760   31.8700   63.0160  O.2       1 <0>        -0.4365
       6  C5         11.2590   33.9520   61.9860  C.2       1 <0>        -0.1283
       7  C6         10.7490   34.7710   61.0450  C.2       1 <0>        -0.1004
       8  C7          9.6410   34.3110   60.1960  C.2       1 <0>         0.1272
       9  N1          9.1420   35.1050   59.2780  N.2       1 <0>        -0.2890
      10  O2          9.5970   36.2260   59.1300  O.3       1 <0>        -0.1005
      11  C8          8.7680   37.1600   58.6220  C.2       1 <0>         0.4962
      12  O3          8.7660   38.2840   59.0810  O.2       1 <0>        -0.4132
      13  C9          7.8650   36.8160   57.5060  C.ar      1 <0>        -0.0991
      14  C10         8.3450   36.7930   56.1950  C.ar      1 <0>        -0.0585
      15  C11         7.4950   36.4700   55.1580  C.ar      1 <0>        -0.1124
      16  C12         6.1670   36.1750   55.4130  C.ar      1 <0>        -0.0722
      17  C13         5.6850   36.1900   56.7090  C.ar      1 <0>        -0.0922
      18  C14         6.5240   36.5120   57.7570  C.ar      1 <0>        -0.0542
      19  I1          5.7900   36.5420   59.7190  I         1 <0>         0.0133
      20  C15        12.3960   34.4230   62.8570  C.3       1 <0>        -0.0480
      21  C16        13.7240   34.1700   62.1420  C.3       1 <0>        -0.1515
      22  C17        12.2410   35.9200   63.1300  C.3       1 <0>        -0.1515
@<TRIPOS>BOND
     1     1     2 1
     2     2     8 1
     3     2     3 2
     4     3     4 1
     5     4     5 2
     6     4     6 1
     7     6     7 2
     8     6    20 1
     9     7     8 1
    10     8     9 2
    11     9    10 1
    12    10    11 1
    13    11    12 2
    14    11    13 1
    15    13    18 ar
    16    13    14 ar
    17    14    15 ar
    18    15    16 ar
    19    16    17 ar
    20    17    18 ar
    21    18    19 1
    22    20    21 1
    23    20    22 1

@<TRIPOS>MOLECULE
ZINC41570392_replica-1.pdb
 23 24 0 0 0
SMALL
GASTEIGER

@<TRIPOS>ATOM
       1  C1          7.8970   35.9210   60.7830  C.3       1 <0>        -0.1549
       2  C2          9.2530   36.3380   60.2120  C.3       1 <0>        -0.0886
       3  C3          9.1820   37.7920   59.7390  C.3       1 <0>        -0.1156
       4  C4          8.1120   37.9240   58.6550  C.3       1 <0>        -0.1183
       5  C5          8.4680   37.0190   57.4730  C.3       1 <0>        -0.0762
       6  C6          8.5390   35.5660   57.9460  C.3       1 <0>         0.0927
       7  C7          9.6100   35.4340   59.0310  C.3       1 <0>        -0.1349
       8  O1          7.2710   35.1760   58.4800  O.3       1 <0>        -0.3230
       9  C8          6.7470   34.0270   58.0270  C.2       1 <0>         0.4815
      10  O2          7.2350   33.4770   57.0670  O.2       1 <0>        -0.4845
      11  C9          5.5520   33.4200   58.7170  C.3       1 <0>        -0.0928
      12  C10         6.0150   32.2890   59.6370  C.3       1 <0>        -0.1490
      13  S1          4.7110   34.6920   59.6990  S.3       1 <0>        -0.0319
      14  C11         3.3430   35.1690   58.6950  C.ar      1 <0>        -0.2116
      15  C12         3.5530   35.8090   57.4740  C.ar      1 <0>        -0.0068
      16  C13         2.4510   36.1640   56.7190  C.ar      1 <0>        -0.2177
      17  C14         1.1780   35.8730   57.1980  C.ar      1 <0>         0.4019
      18  N1          1.0160   35.2640   58.3610  N.ar      1 <0>        -0.5287
      19  C15         2.0450   34.9060   59.1060  C.ar      1 <0>         0.1419
      20  N2          0.0610   36.2280   56.4440  N.pl3     1 <0>        -0.8502
      21  C16         7.3960   37.1510   56.3890  C.3       1 <0>        -0.0929
      22  C17         7.2220   38.6260   56.0210  C.3       1 <0>        -0.1491
      23  C18         7.8250   36.3630   55.1500  C.3       1 <0>        -0.1538
@<TRIPOS>BOND
     1     1     2 1
     2     2     7 1
     3     2     3 1
     4     3     4 1
     5     4     5 1
     6     5     6 1
     7     5    21 1
     8     6     7 1
     9     6     8 1
    10     8     9 1
    11     9    10 2
    12     9    11 1
    13    11    12 1
    14    11    13 1
    15    13    14 1
    16    14    19 ar
    17    14    15 ar
    18    15    16 ar
    19    16    17 ar
    20    17    18 ar
    21    17    20 1
    22    18    19 ar
    23    21    22 1
    24    21    23 1

@<TRIPOS>MOLECULE
ZINC48884706_replica-1.pdb
 21 21 0 0 0
SMALL
GASTEIGER

@<TRIPOS>ATOM
       1  C1          1.8620   32.5950   56.2590  C.3       1 <0>        -0.1542
       2  C2          0.9580   31.3750   56.4470  C.3       1 <0>         0.0801
       3  O1          0.9930   30.9620   57.8140  O.3       1 <0>        -0.3613
       4  C3          0.7130   29.6700   58.0690  C.2       1 <0>         0.6575
       5  O2          1.2160   29.1180   59.0280  O.2       1 <0>        -0.5591
       6  N1         -0.1240   28.9880   57.2620  N.am      1 <0>        -0.7003
       7  C4         -0.4270   27.5830   57.5400  C.3       1 <0>         0.1828
       8  C5         -1.9440   27.3870   57.5760  C.3       1 <0>        -0.1034
       9  C6         -2.4160   27.3290   59.0310  C.3       1 <0>        -0.1600
      10  C7         -2.6260   28.5570   56.8660  C.3       1 <0>        -0.1381
      11  C8          0.1640   26.7170   56.4580  C.2       1 <0>         0.4622
      12  O3          0.1250   25.5140   56.5580  O.2       1 <0>        -0.4749
      13  O4          0.7350   27.2820   55.3810  O.3       1 <0>        -0.2750
      14  C9          0.0720   27.2130   54.1970  C.ar      1 <0>         0.0977
      15  C10        -0.6400   28.3100   53.7340  C.ar      1 <0>        -0.0969
      16  C11        -1.3140   28.2400   52.5300  C.ar      1 <0>        -0.1085
      17  C12        -1.2800   27.0740   51.7850  C.ar      1 <0>         0.0778
      18  C13        -0.5700   25.9760   52.2450  C.ar      1 <0>         0.0855
      19  C14         0.1100   26.0460   53.4470  C.ar      1 <0>        -0.1243
      20  F1         -0.5370   24.8390   51.5160  F         1 <0>        -0.1184
      21  F2         -1.9400   27.0070   50.6070  F         1 <0>        -0.1203
@<TRIPOS>BOND
     1     1     2 1
     2     2     3 1
     3     3     4 1
     4     4     5 2
     5     4     6 am
     6     6     7 1
     7     7     8 1
     8     7    11 1
     9     8     9 1
    10     8    10 1
    11    11    12 2
    12    11    13 1
    13    13    14 1
    14    14    19 ar
    15    14    15 ar
    16    15    16 ar
    17    16    17 ar
    18    17    18 ar
    19    17    21 1
    20    18    19 ar
    21    18    20 1

@<TRIPOS>MOLECULE
ZINC63659177_replica-1.pdb
 29 32 0 0 0
SMALL
GASTEIGER

@<TRIPOS>ATOM
       1  C1          7.5110   36.4050   54.8510  C.3       1 <0>        -0.1273
       2  C2          7.9110   36.9580   56.1950  C.ar      1 <0>        -0.1133
       3  C3          7.7060   38.3180   56.4620  C.ar      1 <0>         0.0590
       4  C4          8.0360   38.8880   57.6390  C.ar      1 <0>        -0.2077
       5  C5          8.6190   38.1090   58.6760  C.ar      1 <0>         0.3337
       6  N1          9.0200   38.4240   59.8850  N.pl3     1 <0>        -0.5863
       7  C6          9.5490   37.2170   60.5310  C.3       1 <0>         0.0975
       8  C7          9.4040   36.1060   59.5150  C.2       1 <0>         0.0820
       9  C8          8.8470   36.6700   58.4200  C.ar      1 <0>        -0.1688
      10  C9          8.4530   36.1260   57.1140  C.ar      1 <0>        -0.0328
      11  C10         9.8020   34.6620   59.6900  C.3       1 <0>        -0.1091
      12  C11         8.6640   33.8990   60.3680  C.3       1 <0>         0.1025
      13  N2          7.9630   33.0820   59.3730  N.pl3     1 <0>        -0.5757
      14  C12         8.6370   31.9330   58.7630  C.3       1 <0>         0.1772
      15  C13         7.8060   30.6940   58.9720  C.2       1 <0>        -0.0638
      16  C14         7.3580   29.8740   58.0050  C.2       1 <0>        -0.1738
      17  C15         6.6260   28.8470   58.6440  C.2       1 <0>        -0.2109
      18  C16         6.6700   29.1010   59.9640  C.2       1 <0>        -0.0177
      19  O1          7.3910   30.2170   60.1580  O.3       1 <0>        -0.1716
      20  C17         6.6990   33.3880   59.0200  C.2       1 <0>         0.5636
      21  S1          5.4470   33.3360   60.1870  S.2       1 <0>        -0.6255
      22  N3          6.4200   33.7350   57.7480  N.pl3     1 <0>        -0.6701
      23  C18         5.0450   34.0670   57.3640  C.3       1 <0>         0.1405
      24  C19         4.7850   33.5890   55.9350  C.3       1 <0>        -0.1253
      25  C20         3.3490   33.9360   55.5340  C.3       1 <0>        -0.1151
      26  C21         3.1520   35.4520   55.6090  C.3       1 <0>        -0.1255
      27  C22         3.4120   35.9300   57.0390  C.3       1 <0>        -0.1146
      28  C23         4.8470   35.5820   57.4400  C.3       1 <0>        -0.1283
      29  C24         8.7370   36.8950   61.7880  C.3       1 <0>        -0.1552
@<TRIPOS>BOND
     1     1     2 1
     2     2    10 ar
     3     2     3 ar
     4     3     4 ar
     5     4     5 ar
     6     5     9 ar
     7     5     6 2
     8     6     7 1
     9     7     8 1
    10     7    29 1
    11     8     9 2
    12     8    11 1
    13     9    10 ar
    14    11    12 1
    15    12    13 1
    16    13    14 1
    17    13    20 1
    18    14    15 1
    19    15    19 1
    20    15    16 2
    21    16    17 1
    22    17    18 2
    23    18    19 1
    24    20    21 2
    25    20    22 1
    26    22    23 1
    27    23    28 1
    28    23    24 1
    29    24    25 1
    30    25    26 1
    31    26    27 1
    32    27    28 1

@<TRIPOS>MOLECULE
ZINC02948838_replica-1.pdb
 27 29 0 0 0
SMALL
GASTEIGER

@<TRIPOS>ATOM
       1  C1          3.1990   36.0360   57.2480  C.3       1 <0>        -0.1534
       2  C2          2.4030   35.7590   58.5260  C.3       1 <0>        -0.1224
       3  C3          0.9700   35.3700   58.1600  C.3       1 <0>        -0.1324
       4  C4          0.9090   34.9710   56.6840  C.3       1 <0>         0.1174
       5  N1          0.4030   33.6010   56.5680  N.am      1 <0>        -0.7247
       6  C5          1.2500   32.5920   56.2830  C.2       1 <0>         0.5302
       7  O1          2.4310   32.8180   56.1230  O.2       1 <0>        -0.5225
       8  C6          0.7290   31.1830   56.1640  C.3       1 <0>        -0.1543
       9  S1         -0.8400   31.1940   55.2630  S.3       1 <0>         0.0973
      10  C7         -0.7140   29.6580   54.4080  C.ar      1 <0>         0.3306
      11  N2         -1.4220   29.4870   53.3070  N.ar      1 <0>        -0.5575
      12  C8         -1.3540   28.3320   52.6280  C.ar      1 <0>         0.2033
      13  C9         -2.0920   28.1170   51.4560  C.ar      1 <0>        -0.1126
      14  C10        -1.9870   26.9250   50.8040  C.ar      1 <0>        -0.0675
      15  C11        -1.1560   25.9160   51.2830  C.ar      1 <0>        -0.1326
      16  C12        -0.4290   26.0910   52.4240  C.ar      1 <0>        -0.0676
      17  C13        -0.5100   27.3050   53.1150  C.ar      1 <0>        -0.1968
      18  C14         0.2270   27.5450   54.3020  C.ar      1 <0>         0.4804
      19  N3          0.0890   28.7190   54.8990  N.ar      1 <0>        -0.5627
      20  N4          1.0630   26.5800   54.8220  N.pl3     1 <0>        -0.6340
      21  C15         0.5670   25.6420   55.7330  C.ar      1 <0>         0.1377
      22  C16        -0.0090   26.0660   56.9240  C.ar      1 <0>        -0.0808
      23  C17        -0.5040   25.1380   57.8190  C.ar      1 <0>        -0.1308
      24  C18        -0.4160   23.7850   57.5370  C.ar      1 <0>         0.0863
      25  C19         0.1630   23.3600   56.3530  C.ar      1 <0>        -0.1330
      26  C20         0.6540   24.2850   55.4520  C.ar      1 <0>        -0.1163
      27  F1         -0.8960   22.8800   58.4170  F         1 <0>        -0.1382
@<TRIPOS>BOND
     1     1     2 1
     2     2     3 1
     3     3     4 1
     4     4     5 1
     5     5     6 am
     6     6     7 2
     7     6     8 1
     8     8     9 1
     9     9    10 1
    10    10    19 ar
    11    10    11 ar
    12    11    12 ar
    13    12    17 ar
    14    12    13 ar
    15    13    14 ar
    16    14    15 ar
    17    15    16 ar
    18    16    17 ar
    19    17    18 ar
    20    18    19 ar
    21    18    20 1
    22    20    21 1
    23    21    26 ar
    24    21    22 ar
    25    22    23 ar
    26    23    24 ar
    27    24    25 ar
    28    24    27 1
    29    25    26 ar

@<TRIPOS>MOLECULE
ZINC05028011_replica-1.pdb
 28 31 0 0 0
SMALL
GASTEIGER

@<TRIPOS>ATOM
       1  C1          0.9960   35.6020   56.9110  C.3       1 <0>        -0.1204
       2  C2          2.4800   35.6760   57.1610  C.ar      1 <0>        -0.0709
       3  C3          2.9520   36.0690   58.3990  C.ar      1 <0>        -0.1084
       4  C4          4.3120   36.1380   58.6310  C.ar      1 <0>        -0.1005
       5  C5          5.2050   35.8130   57.6190  C.ar      1 <0>         0.0971
       6  C6          4.7280   35.4190   56.3760  C.ar      1 <0>        -0.1010
       7  C7          3.3670   35.3470   56.1520  C.ar      1 <0>        -0.1083
       8  N1          6.5850   35.8820   57.8520  N.pl3     1 <0>        -0.3912
       9  C8          7.4300   36.7880   57.2750  C.2       1 <0>         0.0257
      10  C9          8.6800   36.5720   57.7180  C.2       1 <0>        -0.1771
      11  C10         8.6050   35.4350   58.6460  C.2       1 <0>        -0.1974
      12  C11         7.2730   35.0620   58.6830  C.2       1 <0>         0.1016
      13  C12         6.6900   33.9400   59.5030  C.3       1 <0>        -0.0979
      14  C13         9.7120   34.8250   59.3840  C.2       1 <0>         0.1142
      15  C14         9.9400   35.1760   60.6960  C.2       1 <0>        -0.0714
      16  C15         9.1930   36.2420   61.2940  C.1       1 <0>         0.2688
      17  N2          8.6000   37.0860   61.7670  N.1       1 <0>        -0.4208
      18  C16        10.9550   34.4550   61.4840  C.2       1 <0>         0.3504
      19  N3         10.9300   33.1140   61.7650  N.pl3     1 <0>        -0.5991
      20  C17        12.0520   32.8330   62.5210  C.ar      1 <0>         0.0471
      21  C18        12.5630   31.6770   63.0930  C.ar      1 <0>        -0.1078
      22  C19        13.7410   31.7300   63.8090  C.ar      1 <0>        -0.0989
      23  C20        14.4170   32.9320   63.9610  C.ar      1 <0>        -0.0923
      24  C21        13.9310   34.0810   63.4050  C.ar      1 <0>        -0.0669
      25  C22        12.7380   34.0510   62.6750  C.ar      1 <0>         0.0601
      26  N4         12.0240   34.9990   62.0180  N.2       1 <0>        -0.4833
      27  C23        15.7020   32.9700   64.7470  C.3       1 <0>        -0.1116
      28  C24         7.0250   37.8630   56.2980  C.3       1 <0>        -0.0876
@<TRIPOS>BOND
     1     1     2 1
     2     2     7 ar
     3     2     3 ar
     4     3     4 ar
     5     4     5 ar
     6     5     6 ar
     7     5     8 1
     8     6     7 ar
     9     8    12 1
    10     8     9 1
    11     9    10 2
    12     9    28 1
    13    10    11 1
    14    11    12 2
    15    11    14 1
    16    12    13 1
    17    14    15 2
    18    15    16 1
    19    15    18 1
    20    16    17 3
    21    18    26 2
    22    18    19 1
    23    19    20 1
    24    20    25 ar
    25    20    21 ar
    26    21    22 ar
    27    22    23 ar
    28    23    24 ar
    29    23    27 1
    30    24    25 ar
    31    25    26 1

@<TRIPOS>MOLECULE
ZINC49544262_replica-1.pdb
 21 22 0 0 0
SMALL
GASTEIGER

@<TRIPOS>ATOM
       1  C1         -2.4670   28.2180   57.1840  C.3       1 <0>        -0.1540
       2  C2         -1.5130   29.1330   57.9540  C.3       1 <0>        -0.1164
       3  C3         -0.5290   29.7820   56.9780  C.3       1 <0>        -0.1028
       4  C4         -0.9240   31.2410   56.7490  C.3       1 <0>         0.1715
       5  C5          0.0860   32.1450   57.4070  C.2       1 <0>        -0.1751
       6  C6         -0.0600   33.4260   57.8270  C.2       1 <0>        -0.1537
       7  C7          1.0170   34.0660   58.4120  C.2       1 <0>        -0.1562
       8  C8          2.1860   33.3940   58.5480  C.2       1 <0>        -0.1725
       9  S1          1.7830   31.8040   57.8440  S.3       1 <0>         0.0388
      10  N1         -0.9630   31.5180   55.3070  N.3       1 <0>        -0.6677
      11  C9         -0.4400   30.3810   54.5380  C.3       1 <0>         0.0309
      12  C10        -1.4850   29.9350   53.5130  C.3       1 <0>         0.1545
      13  C11        -1.1680   28.5360   53.0490  C.ar      1 <0>        -0.1641
      14  C12        -0.3730   27.7140   53.8250  C.ar      1 <0>        -0.0536
      15  C13        -0.0830   26.4310   53.4010  C.ar      1 <0>        -0.1586
      16  C14        -0.5870   25.9680   52.1980  C.ar      1 <0>         0.1332
      17  C15        -1.3830   26.7910   51.4190  C.ar      1 <0>        -0.1895
      18  C16        -1.6780   28.0730   51.8480  C.ar      1 <0>         0.1423
      19  F1         -2.4600   28.8750   51.0910  F         1 <0>        -0.1240
      20  F2         -0.3020   24.7150   51.7830  F         1 <0>        -0.1281
      21  O1         -2.7810   29.9550   54.1150  O.3       1 <0>        -0.5446
@<TRIPOS>BOND
     1     1     2 1
     2     2     3 1
     3     3     4 1
     4     4     5 1
     5     4    10 1
     6     5     9 1
     7     5     6 2
     8     6     7 1
     9     7     8 2
    10     8     9 1
    11    10    11 1
    12    11    12 1
    13    12    13 1
    14    12    21 1
    15    13    18 ar
    16    13    14 ar
    17    14    15 ar
    18    15    16 ar
    19    16    17 ar
    20    16    20 1
    21    17    18 ar
    22    18    19 1

@<TRIPOS>MOLECULE
ZINC19642013_replica-1.pdb
 32 36 0 0 0
SMALL
GASTEIGER

@<TRIPOS>ATOM
       1  C1         -0.8450   25.9040   51.6010  C.3       1 <0>        -0.1445
       2  C2         -0.7710   27.4210   51.7780  C.3       1 <0>        -0.0572
       3  C3         -1.9700   28.0750   51.0880  C.3       1 <0>        -0.1437
       4  C4         -0.7910   27.7580   53.2470  C.ar      1 <0>        -0.0775
       5  C5         -1.5890   28.7870   53.7090  C.ar      1 <0>        -0.1198
       6  C6         -1.6130   29.0920   55.0580  C.ar      1 <0>        -0.0911
       7  C7         -0.8330   28.3710   55.9420  C.ar      1 <0>        -0.0682
       8  C8         -0.0320   27.3440   55.4790  C.ar      1 <0>        -0.0975
       9  C9         -0.0080   27.0400   54.1310  C.ar      1 <0>        -0.1189
      10  C10        -0.8590   28.7020   57.4130  C.3       1 <0>         0.2144
      11  C11        -0.8330   27.4210   58.2070  C.2       1 <0>        -0.3152
      12  C12         0.3050   27.0150   58.8090  C.2       1 <0>         0.2469
      13  C13         0.3550   25.7380   59.6080  C.3       1 <0>        -0.0876
      14  C14        -0.6510   24.7350   59.0370  C.3       1 <0>        -0.0509
      15  C15        -2.0460   25.3700   59.0700  C.3       1 <0>        -0.1615
      16  C16        -2.0140   26.6650   58.3040  C.2       1 <0>         0.4082
      17  O1         -3.0240   27.0630   57.7600  O.2       1 <0>        -0.4684
      18  C17        -0.2750   24.3980   57.5930  C.3       1 <0>        -0.1532
      19  C18        -0.6420   23.4600   59.8820  C.3       1 <0>        -0.1436
      20  N1          1.4390   27.7760   58.6990  N.pl3     1 <0>        -0.6882
      21  C19         1.3420   29.0980   58.3250  C.2       1 <0>         0.5829
      22  N2          0.2840   29.5470   57.7300  N.2       1 <0>        -0.5325
      23  N3          2.3880   29.9550   58.5870  N.pl3     1 <0>        -0.6111
      24  C20         2.3020   31.2860   58.2150  C.2       1 <0>         0.4023
      25  N4          2.8930   31.9010   57.2170  N.2       1 <0>        -0.4952
      26  C21         2.7110   33.2170   56.9660  C.ar      1 <0>         0.1106
      27  C22         3.2800   33.9940   55.9310  C.ar      1 <0>        -0.0681
      28  C23         2.9940   35.3290   55.8200  C.ar      1 <0>        -0.1054
      29  C24         2.1440   35.9650   56.7130  C.ar      1 <0>        -0.1069
      30  C25         1.5710   35.2350   57.7390  C.ar      1 <0>        -0.0617
      31  C26         1.8510   33.8970   57.8570  C.ar      1 <0>        -0.1522
      32  S1          1.3640   32.6040   58.9740  S.3       1 <0>        -0.0147
@<TRIPOS>BOND
     1     1     2 1
     2     2     3 1
     3     2     4 1
     4     4     9 ar
     5     4     5 ar
     6     5     6 ar
     7     6     7 ar
     8     7     8 ar
     9     7    10 1
    10     8     9 ar
    11    10    22 1
    12    10    11 1
    13    11    16 1
    14    11    12 2
    15    12    13 1
    16    12    20 1
    17    13    14 1
    18    14    15 1
    19    14    18 1
    20    14    19 1
    21    15    16 1
    22    16    17 2
    23    20    21 1
    24    21    22 2
    25    21    23 1
    26    23    24 1
    27    24    32 1
    28    24    25 2
    29    25    26 1
    30    26    31 ar
    31    26    27 ar
    32    27    28 ar
    33    28    29 ar
    34    29    30 ar
    35    30    31 ar
    36    31    32 1

@<TRIPOS>MOLECULE
ZINC35745327_replica-1.pdb
 27 28 0 0 0
SMALL
GASTEIGER

@<TRIPOS>ATOM
       1  C1         -0.1990   31.2330   61.9870  C.3       1 <0>        -0.1549
       2  C2          0.2320   32.7020   61.9680  C.3       1 <0>        -0.1199
       3  C3          1.5000   32.8490   61.1240  C.3       1 <0>        -0.1090
       4  C4          1.1780   33.6430   59.8560  C.3       1 <0>         0.2106
       5  C5          2.2570   34.7030   59.6310  C.3       1 <0>        -0.1406
       6  C6          1.8020   35.6700   58.5350  C.3       1 <0>        -0.1232
       7  C7          2.9610   35.9300   57.5710  C.3       1 <0>        -0.1551
       8  C8          1.1380   32.7080   58.6750  C.2       1 <0>         0.0258
       9  C9          1.9400   31.6450   58.4860  C.2       1 <0>        -0.2115
      10  C10         1.5590   31.0570   57.2570  C.2       1 <0>        -0.1404
      11  C11         0.5480   31.7960   56.7700  C.2       1 <0>        -0.1014
      12  O1          0.2940   32.7920   57.6350  O.3       1 <0>        -0.1530
      13  C12        -0.1810   31.5480   55.4740  C.3       1 <0>         0.0872
      14  N1         -0.9010   30.2700   55.5540  N.4       1 <0>        -0.3881
      15  C13        -1.8000   30.1410   54.4000  C.3       1 <0>         0.0413
      16  C14        -1.3940   28.9460   53.5770  C.ar      1 <0>        -0.1281
      17  C15        -0.5180   28.0110   54.1000  C.ar      1 <0>        -0.1074
      18  C16        -0.1460   26.9140   53.3480  C.ar      1 <0>        -0.0791
      19  C17        -0.6480   26.7480   52.0710  C.ar      1 <0>        -0.1212
      20  C18        -1.5240   27.6820   51.5460  C.ar      1 <0>         0.1128
      21  C19        -1.9020   28.7790   52.3030  C.ar      1 <0>        -0.1347
      22  F1         -2.0160   27.5220   50.2980  F         1 <0>        -0.1244
      23  C20        -1.6860   30.2280   56.7940  C.3       1 <0>        -0.0172
      24  C21        -1.4490   28.8930   57.5030  C.3       1 <0>        -0.1229
      25  C22        -1.1270   29.1480   58.9770  C.3       1 <0>        -0.1482
      26  C23        -2.7080   28.0310   57.3990  C.3       1 <0>        -0.1633
      27  O2         -0.0930   34.2790   60.0020  O.3       1 <0>        -0.5258
@<TRIPOS>BOND
     1     1     2 1
     2     2     3 1
     3     3     4 1
     4     4     5 1
     5     4     8 1
     6     4    27 1
     7     5     6 1
     8     6     7 1
     9     8    12 1
    10     8     9 2
    11     9    10 1
    12    10    11 2
    13    11    12 1
    14    11    13 1
    15    13    14 1
    16    14    15 1
    17    14    23 1
    18    15    16 1
    19    16    21 ar
    20    16    17 ar
    21    17    18 ar
    22    18    19 ar
    23    19    20 ar
    24    20    21 ar
    25    20    22 1
    26    23    24 1
    27    24    25 1
    28    24    26 1

@<TRIPOS>MOLECULE
ZINC08769613_replica-1.pdb
 25 26 0 0 0
SMALL
GASTEIGER

@<TRIPOS>ATOM
       1  C1          3.4630   33.7820   55.6890  C.3       1 <0>        -0.1494
       2  C2          4.0470   34.7910   54.6990  C.3       1 <0>        -0.1200
       3  C3          4.1720   36.1570   55.3770  C.3       1 <0>        -0.1240
       4  C4          5.2240   36.0820   56.4850  C.3       1 <0>        -0.0951
       5  C5          6.5790   35.7140   55.8780  C.3       1 <0>        -0.1261
       6  C6          7.2550   34.6500   56.7450  C.3       1 <0>        -0.0517
       7  C7          7.2210   33.3030   56.0210  C.3       1 <0>        -0.1585
       8  C8          6.5100   34.5310   58.0770  C.3       1 <0>        -0.1105
       9  C9          7.4830   34.7110   59.2140  C.2       1 <0>         0.4887
      10  O1          7.1670   34.3830   60.3420  O.2       1 <0>        -0.5154
      11  N1          8.6830   35.2280   58.9860  N.2       1 <0>        -0.6016
      12  C10         9.5440   35.3880   59.9920  C.2       1 <0>         0.3976
      13  N2         10.3990   34.4780   60.5350  N.pl3     1 <0>        -0.6022
      14  C11        11.2040   34.8620   61.5690  C.2       1 <0>         0.1227
      15  C12        11.1060   36.1340   62.0160  C.2       1 <0>        -0.2446
      16  S1          9.8490   36.8070   60.9420  S.3       1 <0>         0.1481
      17  C13        12.1530   33.9110   62.1870  C.ar      1 <0>        -0.0378
      18  C14        13.5130   34.2180   62.2470  C.ar      1 <0>        -0.1114
      19  C15        14.3930   33.3270   62.8300  C.ar      1 <0>        -0.1118
      20  C16        13.9310   32.1300   63.3440  C.ar      1 <0>        -0.1109
      21  C17        12.5830   31.8170   63.2810  C.ar      1 <0>        -0.1134
      22  C18        11.6930   32.7000   62.7060  C.ar      1 <0>        -0.0924
      23  C19         7.4530   36.9410   55.8180  C.2       1 <0>         0.4701
      24  O2          8.5850   36.8960   56.2360  O.co2     1 <0>        -0.6365
      25  O3          6.9720   38.0820   55.3000  O.co2     1 <0>        -0.7618
@<TRIPOS>BOND
     1     1     2 1
     2     2     3 1
     3     3     4 1
     4     4     5 1
     5     5     6 1
     6     5    23 1
     7     6     7 1
     8     6     8 1
     9     8     9 1
    10     9    10 2
    11     9    11 1
    12    11    12 2
    13    12    16 1
    14    12    13 1
    15    13    14 1
    16    14    15 2
    17    14    17 1
    18    15    16 1
    19    17    22 ar
    20    17    18 ar
    21    18    19 ar
    22    19    20 ar
    23    20    21 ar
    24    21    22 ar
    25    23    24 2
    26    23    25 1

@<TRIPOS>MOLECULE
ZINC09376084_replica-1.pdb
 29 33 0 0 0
SMALL
GASTEIGER

@<TRIPOS>ATOM
       1  C1         10.4620   35.7910   61.0840  C.ar      1 <0>        -0.1123
       2  C2         10.4960   34.9770   59.9660  C.ar      1 <0>        -0.1277
       3  C3          9.7210   35.2770   58.8650  C.ar      1 <0>        -0.1027
       4  C4          8.9020   36.4060   58.8810  C.ar      1 <0>        -0.0452
       5  C5          8.8760   37.2260   60.0080  C.ar      1 <0>        -0.0543
       6  C6          9.6500   36.9110   61.1050  C.ar      1 <0>        -0.1222
       7  C7          8.0670   36.7350   57.7000  C.2       1 <0>        -0.0151
       8  C8          8.4740   37.6670   56.8050  C.2       1 <0>        -0.1824
       9  S1          7.1550   37.6900   55.6070  S.3       1 <0>         0.1503
      10  C9          6.0980   36.4620   56.3280  C.2       1 <0>         0.1015
      11  C10         6.7930   36.0610   57.4820  C.2       1 <0>        -0.2385
      12  C11         6.1520   35.0540   58.2730  C.2       1 <0>         0.5490
      13  O1          6.6770   34.6410   59.2920  O.2       1 <0>        -0.4867
      14  N1          4.9640   34.5670   57.8710  N.am      1 <0>        -0.5271
      15  C12         4.3630   35.0180   56.7400  C.2       1 <0>         0.3881
      16  N2          4.9220   35.9360   55.9980  N.2       1 <0>        -0.4922
      17  C13         4.3040   33.5320   58.6710  C.3       1 <0>         0.1629
      18  C14         2.8190   33.5770   58.4250  C.2       1 <0>         0.0348
      19  C15         2.0600   34.5370   59.0170  C.2       1 <0>        -0.1882
      20  S2          0.4420   34.1150   58.3850  S.3       1 <0>         0.0311
      21  C16         0.9490   32.7050   57.4100  C.2       1 <0>         0.1610
      22  N3          2.2540   32.6870   57.6430  N.2       1 <0>        -0.4715
      23  C17         0.1330   31.8010   56.5710  C.ar      1 <0>        -0.0330
      24  C18        -1.1770   31.4960   56.9400  C.ar      1 <0>        -0.0363
      25  C19        -1.9340   30.6550   56.1530  C.ar      1 <0>        -0.1536
      26  C20        -1.3930   30.1060   55.0000  C.ar      1 <0>         0.1230
      27  C21        -0.0900   30.4030   54.6320  C.ar      1 <0>        -0.1520
      28  C22         0.6740   31.2460   55.4100  C.ar      1 <0>        -0.0612
      29  F1         -2.1380   29.2800   54.2340  F         1 <0>        -0.1316
@<TRIPOS>BOND
     1     1     6 ar
     2     1     2 ar
     3     2     3 ar
     4     3     4 ar
     5     4     5 ar
     6     4     7 1
     7     5     6 ar
     8     7    11 1
     9     7     8 2
    10     8     9 1
    11     9    10 1
    12    10    16 1
    13    10    11 2
    14    11    12 1
    15    12    13 2
    16    12    14 am
    17    14    15 1
    18    14    17 1
    19    15    16 2
    20    17    18 1
    21    18    22 1
    22    18    19 2
    23    19    20 1
    24    20    21 1
    25    21    22 2
    26    21    23 1
    27    23    28 ar
    28    23    24 ar
    29    24    25 ar
    30    25    26 ar
    31    26    27 ar
    32    26    29 1
    33    27    28 ar

@<TRIPOS>MOLECULE
ZINC46983560_replica-1.pdb
 26 28 0 0 0
SMALL
GASTEIGER

@<TRIPOS>ATOM
       1  C1          2.9380   36.1630   58.7820  C.3       1 <0>        -0.1518
       2  C2          1.5170   35.7040   58.4510  C.3       1 <0>        -0.1455
       3  C3          1.4860   35.1190   57.0380  C.3       1 <0>         0.1094
       4  N1          2.0230   33.7560   57.0620  N.am      1 <0>        -0.6253
       5  C4          1.2820   32.6880   57.7380  C.3       1 <0>         0.1644
       6  C5         -0.0700   32.4910   57.0480  C.3       1 <0>        -0.1664
       7  C6         -0.6290   31.0690   56.9860  C.3       1 <0>        -0.1820
       8  C7         -0.0810   31.7300   55.7200  C.3       1 <0>        -0.1731
       9  C8          3.1990   33.4830   56.4610  C.2       1 <0>         0.7089
      10  O1          3.6440   32.3530   56.4800  O.2       1 <0>        -0.5843
      11  N2          3.8810   34.4660   55.8390  N.am      1 <0>        -0.7388
      12  C9          5.1580   34.1700   55.1860  C.3       1 <0>         0.2432
      13  C10         5.0510   34.4770   53.6920  C.3       1 <0>        -0.1581
      14  C11         6.2430   35.0200   55.7960  C.2       1 <0>        -0.2387
      15  C12         6.8390   36.1410   55.2080  C.2       1 <0>         0.0651
      16  N3          7.7340   36.6130   56.0400  N.2       1 <0>        -0.2802
      17  N4          7.7350   35.8060   57.1850  N.pl3     1 <0>        -0.3235
      18  C13         6.8070   34.8380   57.0130  C.2       1 <0>         0.1057
      19  C14         6.4640   33.7500   57.9980  C.3       1 <0>        -0.1026
      20  C15         8.5510   35.9760   58.3130  C.ar      1 <0>         0.1389
      21  C16         9.5030   35.0160   58.6330  C.ar      1 <0>        -0.0949
      22  C17        10.3060   35.1860   59.7430  C.ar      1 <0>        -0.1333
      23  C18        10.1640   36.3110   60.5380  C.ar      1 <0>         0.1038
      24  C19         9.2150   37.2690   60.2200  C.ar      1 <0>        -0.1351
      25  C20         8.4140   37.1060   59.1070  C.ar      1 <0>        -0.0767
      26  F1         10.9500   36.4750   61.6230  F         1 <0>        -0.1321
@<TRIPOS>BOND
     1     1     2 1
     2     2     3 1
     3     3     4 1
     4     4     5 1
     5     4     9 am
     6     5     6 1
     7     6     8 1
     8     6     7 1
     9     7     8 1
    10     9    10 2
    11     9    11 am
    12    11    12 1
    13    12    13 1
    14    12    14 1
    15    14    18 2
    16    14    15 1
    17    15    16 2
    18    16    17 1
    19    17    18 1
    20    17    20 1
    21    18    19 1
    22    20    25 ar
    23    20    21 ar
    24    21    22 ar
    25    22    23 ar
    26    23    24 ar
    27    23    26 1
    28    24    25 ar

@<TRIPOS>MOLECULE
ZINC58029326_replica-1.pdb
 23 23 0 0 0
SMALL
GASTEIGER

@<TRIPOS>ATOM
       1  C1         -1.4630   27.4240   57.4120  C.3       1 <0>        -0.1531
       2  C2         -2.6100   28.3850   57.0940  C.3       1 <0>         0.0587
       3  O1         -2.0970   29.7150   56.9760  O.3       1 <0>        -0.3544
       4  C3         -2.1270   30.2730   55.7550  C.2       1 <0>         0.4623
       5  O2         -3.0380   31.0040   55.4470  O.2       1 <0>        -0.4924
       6  C4         -1.0230   29.9870   54.7700  C.3       1 <0>        -0.0855
       7  C5         -1.6290   29.7020   53.3940  C.3       1 <0>        -0.0636
       8  C6         -1.2260   28.3220   52.9430  C.ar      1 <0>        -0.0917
       9  C7         -1.6400   27.8500   51.7110  C.ar      1 <0>        -0.1122
      10  C8         -1.2700   26.5850   51.2970  C.ar      1 <0>        -0.1155
      11  C9         -0.4860   25.7910   52.1130  C.ar      1 <0>        -0.1175
      12  C10        -0.0710   26.2630   53.3450  C.ar      1 <0>        -0.1175
      13  C11        -0.4380   27.5310   53.7580  C.ar      1 <0>        -0.1135
      14  C12        -0.0960   31.2000   54.6760  C.3       1 <0>         0.1273
      15  N1         -0.3690   32.1090   55.7920  N.am      1 <0>        -0.7257
      16  C13         0.6530   32.6740   56.4680  C.2       1 <0>         0.5393
      17  O3          1.7980   32.4270   56.1510  O.2       1 <0>        -0.5099
      18  C14         0.3730   33.6090   57.6150  C.3       1 <0>        -0.1444
      19  S1          0.6380   35.3210   57.0780  S.3       1 <0>        -0.0748
      20  C15         2.2550   35.7540   57.7750  C.3       1 <0>         0.4480
      21  F1          2.0750   36.4850   58.9530  F         1 <0>        -0.1702
      22  F2          2.9700   34.5850   58.0560  F         1 <0>        -0.1456
      23  F3          2.9690   36.5270   56.8520  F         1 <0>        -0.1705
@<TRIPOS>BOND
     1     1     2 1
     2     2     3 1
     3     3     4 1
     4     4     5 2
     5     4     6 1
     6     6     7 1
     7     6    14 1
     8     7     8 1
     9     8    13 ar
    10     8     9 ar
    11     9    10 ar
    12    10    11 ar
    13    11    12 ar
    14    12    13 ar
    15    14    15 1
    16    15    16 am
    17    16    17 2
    18    16    18 1
    19    18    19 1
    20    19    20 1
    21    20    21 1
    22    20    22 1
    23    20    23 1

@<TRIPOS>MOLECULE
ZINC57632881_replica-1.pdb
 23 23 0 0 0
SMALL
GASTEIGER

@<TRIPOS>ATOM
       1  C1          8.7110   37.0790   61.7390  C.3       1 <0>        -0.1311
       2  C2          8.6680   35.6970   61.0840  C.3       1 <0>        -0.1270
       3  C3          7.5230   35.6380   60.1080  C.2       1 <0>         0.5041
       4  O1          6.5050   36.2600   60.3280  O.2       1 <0>        -0.5040
       5  N1          7.6290   34.8940   58.9890  N.am      1 <0>        -0.7252
       6  C4          6.5160   34.8360   58.0390  C.3       1 <0>         0.1754
       7  C5          6.7130   33.6480   57.0950  C.3       1 <0>        -0.1696
       8  C6          5.2000   34.6690   58.8030  C.3       1 <0>        -0.1633
       9  C7          6.4720   36.1320   57.2250  C.3       1 <0>        -0.1147
      10  C8          7.8070   36.3250   56.5040  C.3       1 <0>        -0.0738
      11  C9          8.6600   35.0650   56.6630  C.3       1 <0>        -0.1697
      12  C10         7.5500   36.5830   55.0170  C.3       1 <0>        -0.1415
      13  C11         8.5450   37.5210   57.1090  C.3       1 <0>        -0.1747
      14  S1         10.2280   35.3960   60.2060  S.3       1 <0>        -0.0002
      15  C12        11.1080   34.2960   61.2650  C.ar      1 <0>        -0.0419
      16  C13        10.5120   33.1160   61.6920  C.ar      1 <0>        -0.1405
      17  C14        11.2040   32.2560   62.5220  C.ar      1 <0>        -0.0272
      18  C15        12.4900   32.5690   62.9270  C.ar      1 <0>        -0.0620
      19  C16        13.0850   33.7430   62.5040  C.ar      1 <0>        -0.0291
      20  C17        12.4010   34.6040   61.6690  C.ar      1 <0>        -0.1019
      21  N2         13.2290   31.6450   63.8160  N.pl3     1 <0>         0.0363
      22  O2         14.3950   31.8490   64.0640  O.2       1 <0>        -0.1612
      23  O3         12.6680   30.6870   64.2940  O.3       1 <0>        -0.1576
@<TRIPOS>BOND
     1     1     2 1
     2     2     3 1
     3     2    14 1
     4     3     4 2
     5     3     5 am
     6     5     6 1
     7     6     7 1
     8     6     8 1
     9     6     9 1
    10     9    10 1
    11    10    11 1
    12    10    12 1
    13    10    13 1
    14    14    15 1
    15    15    20 ar
    16    15    16 ar
    17    16    17 ar
    18    17    18 ar
    19    18    19 ar
    20    18    21 1
    21    19    20 ar
    22    21    22 2
    23    21    23 1

@<TRIPOS>MOLECULE
ZINC24879539_replica-1.pdb
 25 28 0 0 0
SMALL
GASTEIGER

@<TRIPOS>ATOM
       1  C1         10.6510   36.8880   62.0380  C.ar      1 <0>        -0.1180
       2  C2          9.9630   36.5120   60.8990  C.ar      1 <0>        -0.0641
       3  C3         10.2580   35.3140   60.2770  C.ar      1 <0>        -0.0892
       4  C4         11.2410   34.4900   60.7930  C.ar      1 <0>        -0.0664
       5  C5         11.9320   34.8670   61.9290  C.ar      1 <0>        -0.1817
       6  C6         11.6340   36.0630   62.5550  C.ar      1 <0>        -0.0702
       7  C7         13.0070   33.9720   62.4880  C.3       1 <0>         0.5074
       8  F1         14.1230   34.0000   61.6450  F         1 <0>        -0.1759
       9  F2         13.3740   34.4220   63.7620  F         1 <0>        -0.1762
      10  F3         12.5230   32.6620   62.5770  F         1 <0>        -0.1759
      11  C8          9.5080   34.9060   59.0350  C.3       1 <0>         0.0913
      12  N1          8.0660   34.8990   59.3140  N.3       1 <0>        -0.5260
      13  C9          7.6490   33.6200   59.9090  C.3       1 <0>         0.0486
      14  C10         6.2590   33.7960   60.5190  C.3       1 <0>        -0.0660
      15  C11         5.3260   34.4160   59.5060  C.ar      1 <0>         0.1798
      16  C12         5.8180   35.0620   58.3750  C.ar      1 <0>        -0.1124
      17  C13         4.9480   35.6200   57.4770  C.ar      1 <0>        -0.0430
      18  C14         3.5660   35.5210   57.7220  C.ar      1 <0>         0.0750
      19  C15         3.1350   34.8480   58.8910  C.ar      1 <0>         0.0839
      20  N2          4.0310   34.3260   59.7280  N.ar      1 <0>        -0.4708
      21  C16         1.7520   34.7450   59.1410  C.ar      1 <0>        -0.0452
      22  C17         0.8900   35.3010   58.2410  C.ar      1 <0>        -0.1588
      23  C18         1.3840   35.9500   57.1110  C.ar      1 <0>         0.1327
      24  N3          2.6710   36.0440   56.8810  N.ar      1 <0>        -0.4646
      25  C19         7.2940   35.1680   58.0970  C.3       1 <0>         0.0914
@<TRIPOS>BOND
     1     1     6 ar
     2     1     2 ar
     3     2     3 ar
     4     3     4 ar
     5     3    11 1
     6     4     5 ar
     7     5     6 ar
     8     5     7 1
     9     7     8 1
    10     7     9 1
    11     7    10 1
    12    11    12 1
    13    12    25 1
    14    12    13 1
    15    13    14 1
    16    14    15 1
    17    15    20 ar
    18    15    16 ar
    19    16    17 ar
    20    16    25 1
    21    17    18 ar
    22    18    24 ar
    23    18    19 ar
    24    19    20 ar
    25    19    21 ar
    26    21    22 ar
    27    22    23 ar
    28    23    24 ar

@<TRIPOS>MOLECULE
ZINC17478681_replica-1.pdb
 23 25 0 0 0
SMALL
GASTEIGER

@<TRIPOS>ATOM
       1  C1          4.8140   36.4240   55.9680  C.3       1 <0>        -0.1053
       2  C2          4.4730   35.6570   57.2190  C.2       1 <0>        -0.0617
       3  C3          3.1930   35.4990   57.5910  C.2       1 <0>        -0.1626
       4  S1          3.3130   34.5470   59.0940  S.3       1 <0>         0.1389
       5  C4          5.0790   34.3880   59.1770  C.2       1 <0>         0.0996
       6  C5          5.5240   35.0800   58.0370  C.2       1 <0>        -0.2395
       7  C6          6.9440   35.1150   57.8480  C.2       1 <0>         0.5543
       8  O1          7.4280   35.6900   56.8890  O.2       1 <0>        -0.5155
       9  N1          7.7360   34.5050   58.7510  N.am      1 <0>        -0.5279
      10  C7          7.2150   33.8550   59.8220  C.2       1 <0>         0.3851
      11  N2          5.9250   33.8060   60.0220  N.2       1 <0>        -0.4886
      12  C8          9.1890   34.5410   58.5700  C.3       1 <0>         0.1336
      13  C9          9.8300   35.1750   59.7780  C.ar      1 <0>        -0.1238
      14  C10         9.5030   36.4700   60.1350  C.ar      1 <0>        -0.0703
      15  C11        10.0890   37.0500   61.2440  C.ar      1 <0>        -0.1204
      16  C12        11.0080   36.3380   61.9930  C.ar      1 <0>        -0.0586
      17  C13        11.3390   35.0450   61.6320  C.ar      1 <0>        -0.1841
      18  C14        10.7510   34.4630   60.5240  C.ar      1 <0>        -0.0415
      19  C15        12.3420   34.2690   62.4470  C.3       1 <0>         0.5074
      20  F1         13.5140   34.0980   61.7040  F         1 <0>        -0.1746
      21  F2         12.6320   34.9720   63.6210  F         1 <0>        -0.1760
      22  F3         11.8090   33.0170   62.7730  F         1 <0>        -0.1731
      23  C16         1.9510   36.0060   56.9040  C.3       1 <0>        -0.0685
@<TRIPOS>BOND
     1     1     2 1
     2     2     6 1
     3     2     3 2
     4     3     4 1
     5     3    23 1
     6     4     5 1
     7     5    11 1
     8     5     6 2
     9     6     7 1
    10     7     8 2
    11     7     9 am
    12     9    10 1
    13     9    12 1
    14    10    11 2
    15    12    13 1
    16    13    18 ar
    17    13    14 ar
    18    14    15 ar
    19    15    16 ar
    20    16    17 ar
    21    17    18 ar
    22    17    19 1
    23    19    20 1
    24    19    21 1
    25    19    22 1

@<TRIPOS>MOLECULE
ZINC36978187_replica-1.pdb
 19 20 0 0 0
SMALL
GASTEIGER

@<TRIPOS>ATOM
       1  C1          8.0930   36.2040   55.5290  C.3       1 <0>        -0.1472
       2  C2          7.6090   36.9910   56.7490  C.3       1 <0>        -0.0976
       3  C3          8.4560   38.2550   56.9100  C.3       1 <0>        -0.1147
       4  C4          7.9730   39.0420   58.1280  C.3       1 <0>        -0.1216
       5  C5          8.1090   38.1750   59.3820  C.3       1 <0>        -0.1158
       6  C6          7.2610   36.9110   59.2220  C.3       1 <0>        -0.1377
       7  C7          7.7460   36.1240   58.0030  C.3       1 <0>         0.1575
       8  N1          9.1500   35.7500   58.1880  N.pl3     1 <0>        -0.7316
       9  C8          9.5170   34.9090   59.2450  C.ar      1 <0>         0.1374
      10  C9         10.4870   35.3100   60.1610  C.ar      1 <0>        -0.1191
      11  C10        10.8180   34.4450   61.1890  C.ar      1 <0>        -0.1369
      12  C11        10.1780   33.2170   61.2750  C.ar      1 <0>         0.2650
      13  N2          9.2610   32.8690   60.3880  N.ar      1 <0>        -0.5023
      14  C12         8.9150   33.6680   59.3960  C.ar      1 <0>         0.0615
      15  O1         10.4950   32.3620   62.2810  O.3       1 <0>        -0.3029
      16  C13        11.6800   32.6490   63.0270  C.3       1 <0>         0.0768
      17  C14        12.5010   31.3680   63.1930  C.3       1 <0>         0.0599
      18  O2         13.8750   31.7060   63.3900  O.3       1 <0>        -0.3857
      19  C15        14.2000   33.0520   63.0370  C.3       1 <0>         0.0303
@<TRIPOS>BOND
     1     1     2 1
     2     2     7 1
     3     2     3 1
     4     3     4 1
     5     4     5 1
     6     5     6 1
     7     6     7 1
     8     7     8 1
     9     8     9 1
    10     9    14 ar
    11     9    10 ar
    12    10    11 ar
    13    11    12 ar
    14    12    13 ar
    15    12    15 1
    16    13    14 ar
    17    15    16 1
    18    16    17 1
    19    17    18 1
    20    18    19 1

@<TRIPOS>MOLECULE
ZINC62771813_replica-1.pdb
 20 21 0 0 0
SMALL
GASTEIGER

@<TRIPOS>ATOM
       1  C1          8.6550   32.2070   60.3800  C.3       1 <0>        -0.1061
       2  C2          9.6530   33.2290   60.8630  C.ar      1 <0>        -0.1219
       3  C3         10.5720   32.8910   61.8370  C.ar      1 <0>        -0.1063
       4  C4         11.4890   33.8320   62.2810  C.ar      1 <0>         0.0783
       5  C5         11.4850   35.1120   61.7480  C.ar      1 <0>        -0.1659
       6  C6         10.5660   35.4520   60.7740  C.ar      1 <0>        -0.1567
       7  C7          9.6510   34.5090   60.3240  C.ar      1 <0>         0.1879
       8  N1          8.7240   34.8500   59.3330  N.pl3     1 <0>        -0.7418
       9  C8          9.1830   35.4420   58.0740  C.3       1 <0>         0.1533
      10  C9          8.7620   34.5450   56.9070  C.3       1 <0>        -0.1703
      11  C10         8.5570   36.8280   57.9030  C.3       1 <0>        -0.0488
      12  C11         7.3050   36.9190   58.7360  C.2       1 <0>        -0.0080
      13  C12         7.0810   37.8050   59.7230  C.2       1 <0>        -0.2100
      14  C13         5.7900   37.5350   60.2320  C.2       1 <0>        -0.2128
      15  C14         5.3020   36.4990   59.5250  C.2       1 <0>        -0.0407
      16  O1          6.2220   36.1350   58.6170  O.3       1 <0>        -0.1736
      17  O2         12.3940   33.4980   63.2410  O.3       1 <0>        -0.3147
      18  C15        13.4870   32.6680   62.8410  C.3       1 <0>         0.0792
      19  C16        14.7800   33.4840   62.8600  C.3       1 <0>        -0.1808
      20  C17        13.6120   31.4900   63.8100  C.3       1 <0>        -0.1494
@<TRIPOS>BOND
     1     1     2 1
     2     2     7 ar
     3     2     3 ar
     4     3     4 ar
     5     4     5 ar
     6     4    17 1
     7     5     6 ar
     8     6     7 ar
     9     7     8 1
    10     8     9 1
    11     9    10 1
    12     9    11 1
    13    11    12 1
    14    12    16 1
    15    12    13 2
    16    13    14 1
    17    14    15 2
    18    15    16 1
    19    17    18 1
    20    18    19 1
    21    18    20 1

@<TRIPOS>MOLECULE
ZINC37067691_replica-1.pdb
 20 20 0 0 0
SMALL
GASTEIGER

@<TRIPOS>ATOM
       1  C1          8.5090   38.6030   57.7820  C.3       1 <0>        -0.1728
       2  C2          8.0080   37.4170   58.6070  C.3       1 <0>         0.1472
       3  C3          6.6700   36.9310   58.0410  C.3       1 <0>        -0.1147
       4  C4          5.9280   36.1240   59.1090  C.3       1 <0>         0.1121
       5  C5          6.0560   36.8280   60.4610  C.3       1 <0>        -0.1820
       6  C6          4.4510   36.0140   58.7280  C.3       1 <0>        -0.1797
       7  O1          6.4970   34.8150   59.1970  O.3       1 <0>        -0.3699
       8  C7          6.5000   34.2720   60.5180  C.3       1 <0>         0.0267
       9  N1          8.9880   36.3290   58.5430  N.pl3     1 <0>        -0.7163
      10  C8          9.7520   36.0090   59.6720  C.ar      1 <0>         0.2451
      11  C9         10.3720   34.7710   59.7630  C.ar      1 <0>        -0.1893
      12  C10        11.1260   34.4560   60.8770  C.ar      1 <0>        -0.0290
      13  C11        11.2620   35.3780   61.9060  C.ar      1 <0>        -0.1738
      14  C12        10.6410   36.6180   61.8150  C.ar      1 <0>        -0.0665
      15  C13         9.8920   36.9340   60.6990  C.ar      1 <0>        -0.1763
      16  S1         12.2220   34.9770   63.3280  S.3       1 <0>        -0.0384
      17  C14        13.4130   33.7500   62.7220  C.3       1 <0>         0.4530
      18  F1         14.4280   33.5770   63.6690  F         1 <0>        -0.1651
      19  F2         12.7600   32.5310   62.5100  F         1 <0>        -0.1477
      20  F3         13.9710   34.1950   61.5180  F         1 <0>        -0.1653
@<TRIPOS>BOND
     1     1     2 1
     2     2     3 1
     3     2     9 1
     4     3     4 1
     5     4     5 1
     6     4     6 1
     7     4     7 1
     8     7     8 1
     9     9    10 1
    10    10    15 ar
    11    10    11 ar
    12    11    12 ar
    13    12    13 ar
    14    13    14 ar
    15    13    16 1
    16    14    15 ar
    17    16    17 1
    18    17    18 1
    19    17    19 1
    20    17    20 1

@<TRIPOS>MOLECULE
ZINC07002562_replica-1.pdb
 25 27 0 0 0
SMALL
GASTEIGER

@<TRIPOS>ATOM
       1  C1          0.9500   35.1690   59.0000  C.3       1 <0>        -0.1536
       2  C2          1.8010   34.2770   59.9060  C.3       1 <0>        -0.1183
       3  C3          1.0080   33.0230   60.2780  C.3       1 <0>        -0.0775
       4  C4          0.9990   32.8570   61.7990  C.3       1 <0>        -0.1473
       5  C5          1.6610   31.7970   59.6360  C.3       1 <0>        -0.0696
       6  C6          0.6060   30.7630   59.3380  C.2       1 <0>        -0.0538
       7  C7          0.3320   29.7960   60.2290  C.2       1 <0>        -0.1579
       8  S1         -0.9510   28.8500   59.4300  S.3       1 <0>         0.1426
       9  C8         -1.0810   29.7800   57.9240  C.2       1 <0>         0.1005
      10  C9         -0.1280   30.8020   58.0870  C.2       1 <0>        -0.2343
      11  C10        -0.0100   31.7190   56.9920  C.2       1 <0>         0.5572
      12  O1          0.7900   32.6370   57.0360  O.2       1 <0>        -0.5066
      13  N1         -0.8030   31.5540   55.9170  N.am      1 <0>        -0.6359
      14  C11        -1.7010   30.5380   55.8500  C.2       1 <0>         0.3992
      15  N2         -1.8280   29.6830   56.8290  N.2       1 <0>        -0.4863
      16  C12        -2.5680   30.3960   54.6260  C.3       1 <0>         0.1788
      17  N3         -1.7180   30.2370   53.4430  N.pl3     1 <0>        -0.7387
      18  C13        -1.4280   28.9590   52.9580  C.ar      1 <0>         0.2098
      19  C14        -1.9570   28.5390   51.7440  C.ar      1 <0>        -0.1972
      20  C15        -1.6650   27.2770   51.2650  C.ar      1 <0>        -0.0720
      21  C16        -0.8550   26.4280   51.9970  C.ar      1 <0>        -0.1423
      22  C17        -0.3300   26.8420   53.2080  C.ar      1 <0>        -0.0711
      23  C18        -0.6150   28.1040   53.6900  C.ar      1 <0>        -0.1843
      24  C19        -0.5420   25.0500   51.4740  C.3       1 <0>        -0.1086
      25  C20         0.9580   29.5660   61.5810  C.3       1 <0>        -0.0698
@<TRIPOS>BOND
     1     1     2 1
     2     2     3 1
     3     3     4 1
     4     3     5 1
     5     5     6 1
     6     6    10 1
     7     6     7 2
     8     7     8 1
     9     7    25 1
    10     8     9 1
    11     9    15 1
    12     9    10 2
    13    10    11 1
    14    11    12 2
    15    11    13 am
    16    13    14 1
    17    14    15 2
    18    14    16 1
    19    16    17 1
    20    17    18 1
    21    18    23 ar
    22    18    19 ar
    23    19    20 ar
    24    20    21 ar
    25    21    22 ar
    26    21    24 1
    27    22    23 ar

@<TRIPOS>MOLECULE
ZINC37953026_replica-1.pdb
 20 21 0 0 0
SMALL
GASTEIGER

@<TRIPOS>ATOM
       1  C1          0.5040   34.9700   57.6070  C.3       1 <0>         0.0287
       2  O1          1.2970   36.0610   57.1360  O.3       1 <0>        -0.3212
       3  C2          2.6340   36.0020   57.3770  C.ar      1 <0>         0.0749
       4  C3          3.5280   35.9550   56.3160  C.ar      1 <0>        -0.1585
       5  C4          4.8860   35.8950   56.5610  C.ar      1 <0>        -0.1462
       6  C5          5.3570   35.8810   57.8660  C.ar      1 <0>         0.1838
       7  C6          4.4620   35.9280   58.9260  C.ar      1 <0>        -0.1551
       8  C7          3.1040   35.9930   58.6820  C.ar      1 <0>        -0.1022
       9  N1          6.7340   35.8200   58.1140  N.pl3     1 <0>        -0.7250
      10  C8          7.5020   37.0560   58.2850  C.3       1 <0>         0.1712
      11  C9          8.7890   36.7540   59.0560  C.3       1 <0>        -0.0887
      12  C10         8.9820   35.2360   59.1620  C.3       1 <0>        -0.1196
      13  C11        10.3570   34.9650   59.7770  C.3       1 <0>        -0.0915
      14  C12        10.5400   35.7900   61.0180  C.2       1 <0>        -0.1509
      15  C13         9.8160   36.8200   61.3180  C.2       1 <0>        -0.1573
      16  C14         8.6890   37.3330   60.4680  C.3       1 <0>        -0.0893
      17  C15         7.8480   37.6230   56.9320  C.2       1 <0>         0.4365
      18  O2          7.5610   38.7650   56.6640  O.2       1 <0>        -0.4888
      19  O3          8.4770   36.8580   56.0250  O.3       1 <0>        -0.3498
      20  C16         7.7380   36.5000   54.8550  C.3       1 <0>         0.0298
@<TRIPOS>BOND
     1     1     2 1
     2     2     3 1
     3     3     8 ar
     4     3     4 ar
     5     4     5 ar
     6     5     6 ar
     7     6     7 ar
     8     6     9 1
     9     7     8 ar
    10     9    10 1
    11    10    11 1
    12    10    17 1
    13    11    16 1
    14    11    12 1
    15    12    13 1
    16    13    14 1
    17    14    15 2
    18    15    16 1
    19    17    18 2
    20    17    19 1
    21    19    20 1

@<TRIPOS>MOLECULE
ZINC02305115_replica-1.pdb
 29 32 0 0 0
SMALL
GASTEIGER

@<TRIPOS>ATOM
       1  C1          8.5190   38.7660   57.5970  C.3       1 <0>        -0.1513
       2  C2          8.4060   37.3860   58.2480  C.3       1 <0>        -0.1089
       3  C3          7.6850   36.4300   57.2960  C.3       1 <0>         0.1137
       4  C4          6.2690   36.1660   57.8160  C.3       1 <0>        -0.0791
       5  C5          5.5020   35.4080   56.7350  C.2       1 <0>        -0.0305
       6  C6          5.9640   35.4080   55.4660  C.2       1 <0>        -0.2270
       7  S1          4.8020   34.4320   54.5540  S.3       1 <0>         0.1734
       8  C7          3.6950   34.0270   55.8820  C.2       1 <0>         0.1201
       9  C8          4.2690   34.6660   56.9950  C.2       1 <0>        -0.2525
      10  C9          3.5710   34.5080   58.2340  C.2       1 <0>         0.5606
      11  O1          3.9940   35.0250   59.2520  O.2       1 <0>        -0.5026
      12  N1          2.4410   33.7760   58.2590  N.am      1 <0>        -0.4661
      13  C10         1.9550   33.1830   57.1280  C.2       1 <0>         0.3786
      14  N2          2.5760   33.3190   55.9730  N.2       1 <0>        -0.4984
      15  S2          0.4750   32.2300   57.2120  S.3       1 <0>         0.0430
      16  C11         0.5130   31.4450   55.5830  C.3       1 <0>        -0.0763
      17  C12        -0.8420   30.8630   55.2740  C.2       1 <0>        -0.1297
      18  C13        -1.8340   31.0320   56.1120  C.2       1 <0>        -0.1538
      19  C14        -1.0570   30.0850   54.0010  C.3       1 <0>        -0.1215
      20  C15         1.7530   33.6170   59.4690  C.ar      1 <0>         0.0836
      21  C16         0.7670   34.5230   59.8330  C.ar      1 <0>        -0.0824
      22  C17         0.0870   34.3590   61.0240  C.ar      1 <0>        -0.1153
      23  C18         0.3910   33.2970   61.8550  C.ar      1 <0>        -0.0908
      24  C19         1.3770   32.3960   61.4990  C.ar      1 <0>        -0.1127
      25  C20         2.0610   32.5540   60.3090  C.ar      1 <0>        -0.0496
      26  C21         3.1350   31.5720   59.9200  C.3       1 <0>        -0.1207
      27  C22         7.1980   36.0980   54.9720  C.3       1 <0>         0.1481
      28  O2          7.6290   37.0130   55.9900  O.3       1 <0>        -0.3556
      29  C23         8.4540   35.1090   57.2250  C.3       1 <0>        -0.1831
@<TRIPOS>BOND
     1     1     2 1
     2     2     3 1
     3     3    28 1
     4     3     4 1
     5     3    29 1
     6     4     5 1
     7     5     9 1
     8     5     6 2
     9     6     7 1
    10     6    27 1
    11     7     8 1
    12     8    14 1
    13     8     9 2
    14     9    10 1
    15    10    11 2
    16    10    12 am
    17    12    13 1
    18    12    20 1
    19    13    14 2
    20    13    15 1
    21    15    16 1
    22    16    17 1
    23    17    18 2
    24    17    19 1
    25    20    25 ar
    26    20    21 ar
    27    21    22 ar
    28    22    23 ar
    29    23    24 ar
    30    24    25 ar
    31    25    26 1
    32    27    28 1

@<TRIPOS>MOLECULE
ZINC13691027_replica-1.pdb
 26 29 0 0 0
SMALL
GASTEIGER

@<TRIPOS>ATOM
       1  C1         -3.0940   28.6280   56.3400  C.3       1 <0>        -0.1816
       2  C2         -1.8210   29.4620   56.1880  C.3       1 <0>         0.1487
       3  C3         -0.6500   28.6900   56.7390  C.2       1 <0>        -0.1978
       4  C4          0.0400   27.8430   55.9270  C.2       1 <0>         0.0079
       5  C5         -0.3820   27.7430   54.5220  C.ar      1 <0>        -0.1446
       6  C6          0.0310   26.6860   53.7110  C.ar      1 <0>        -0.0613
       7  C7         -0.3900   26.6310   52.3990  C.ar      1 <0>        -0.1509
       8  C8         -1.2180   27.6180   51.8880  C.ar      1 <0>        -0.0710
       9  C9         -1.6330   28.6720   52.6820  C.ar      1 <0>        -0.1483
      10  C10        -1.2210   28.7440   54.0000  C.ar      1 <0>         0.1472
      11  O1         -1.6090   29.7640   54.8050  O.3       1 <0>        -0.2994
      12  C11        -0.2780   28.8380   58.0880  C.2       1 <0>         0.1049
      13  C12         0.4070   29.9500   58.4880  C.2       1 <0>        -0.2431
      14  C13         0.7600   31.1600   57.7270  C.2       1 <0>         0.5343
      15  O2          0.4430   31.2950   56.5590  O.2       1 <0>        -0.4332
      16  N1          1.4320   32.0960   58.3760  N.am      1 <0>        -0.4780
      17  C14         1.7860   31.9400   59.6680  C.2       1 <0>         0.2710
      18  S1          2.6550   33.0220   60.6700  S.2       1 <0>        -0.3022
      19  S2          1.1220   30.3350   60.0810  S.3       1 <0>         0.0784
      20  C15         1.7890   33.2720   57.7050  C.ar      1 <0>         0.1083
      21  C16         3.0720   33.4170   57.1900  C.ar      1 <0>        -0.0901
      22  C17         3.4230   34.5740   56.5220  C.ar      1 <0>        -0.0886
      23  C18         2.5040   35.5960   56.3750  C.ar      1 <0>        -0.1217
      24  C19         1.2240   35.4590   56.8920  C.ar      1 <0>         0.1184
      25  C20         0.8650   34.2970   57.5580  C.ar      1 <0>        -0.1125
      26  O3          0.3210   36.4650   56.7480  O.3       1 <0>        -0.4926
@<TRIPOS>BOND
     1     1     2 1
     2     2    11 1
     3     2     3 1
     4     3     4 2
     5     3    12 1
     6     4     5 1
     7     5    10 ar
     8     5     6 ar
     9     6     7 ar
    10     7     8 ar
    11     8     9 ar
    12     9    10 ar
    13    10    11 1
    14    12    13 2
    15    13    19 1
    16    13    14 1
    17    14    15 2
    18    14    16 am
    19    16    17 1
    20    16    20 1
    21    17    18 2
    22    17    19 1
    23    20    25 ar
    24    20    21 ar
    25    21    22 ar
    26    22    23 ar
    27    23    24 ar
    28    24    25 ar
    29    24    26 1

@<TRIPOS>MOLECULE
ZINC03295089_replica-1.pdb
 23 24 0 0 0
SMALL
GASTEIGER

@<TRIPOS>ATOM
       1  C1         -0.6600   25.2820   52.0230  C.3       1 <0>        -0.1450
       2  C2         -0.6410   26.7830   51.7300  C.3       1 <0>        -0.0564
       3  C3         -1.8370   27.1480   50.8500  C.3       1 <0>        -0.1454
       4  C4         -0.7190   27.5480   53.0270  C.ar      1 <0>        -0.0907
       5  C5          0.0110   27.1240   54.1220  C.ar      1 <0>        -0.0888
       6  C6         -0.0580   27.8230   55.3120  C.ar      1 <0>        -0.1276
       7  C7         -0.8610   28.9520   55.4070  C.ar      1 <0>         0.1497
       8  C8         -1.5970   29.3730   54.3050  C.ar      1 <0>        -0.1432
       9  C9         -1.5180   28.6730   53.1170  C.ar      1 <0>        -0.0884
      10  N1         -0.9340   29.6620   56.6080  N.pl3     1 <0>        -0.6045
      11  C10        -0.1200   30.7710   56.8100  C.2       1 <0>         0.3361
      12  N2         -0.1800   31.9640   56.2510  N.2       1 <0>        -0.3524
      13  N3          0.7360   32.9300   56.6000  N.2       1 <0>        -0.2784
      14  C11         1.6690   32.6580   57.4930  C.2       1 <0>         0.0328
      15  S1          1.2880   30.9590   57.8930  S.3       1 <0>         0.0193
      16  S2          2.9520   33.6920   58.1170  S.3       1 <0>         0.0992
      17  C12         4.3750   33.3150   57.0570  C.3       1 <0>        -0.1729
      18  C13         5.1880   34.5670   56.8440  C.2       1 <0>         0.3853
      19  O1          5.8740   34.9990   57.7390  O.2       1 <0>        -0.4272
      20  C14         5.1450   35.2770   55.5160  C.3       1 <0>        -0.1022
      21  C15         6.5420   35.7970   55.1710  C.3       1 <0>        -0.1364
      22  C16         4.6810   34.3030   54.4310  C.3       1 <0>        -0.1443
      23  C17         4.1680   36.4520   55.5970  C.3       1 <0>        -0.1443
@<TRIPOS>BOND
     1     1     2 1
     2     2     3 1
     3     2     4 1
     4     4     9 ar
     5     4     5 ar
     6     5     6 ar
     7     6     7 ar
     8     7     8 ar
     9     7    10 1
    10     8     9 ar
    11    10    11 1
    12    11    15 1
    13    11    12 2
    14    12    13 1
    15    13    14 2
    16    14    15 1
    17    14    16 1
    18    16    17 1
    19    17    18 1
    20    18    19 2
    21    18    20 1
    22    20    21 1
    23    20    22 1
    24    20    23 1

@<TRIPOS>MOLECULE
ZINC37019483_replica-1.pdb
 21 22 0 0 0
SMALL
GASTEIGER

@<TRIPOS>ATOM
       1  C1          6.1130   35.1920   60.6050  C.3       1 <0>        -0.1492
       2  C2          6.0580   35.9810   59.2960  C.3       1 <0>        -0.0962
       3  C3          4.6010   36.1380   58.8560  C.3       1 <0>        -0.1503
       4  C4          6.6780   37.3640   59.5070  C.3       1 <0>        -0.1246
       5  C5          8.0930   37.3820   58.9250  C.3       1 <0>         0.1440
       6  C6          8.1790   38.4450   57.8280  C.3       1 <0>        -0.1334
       7  C7          8.2600   37.7630   56.4610  C.3       1 <0>        -0.0964
       8  C8          8.5600   36.2740   56.6500  C.3       1 <0>        -0.1487
       9  C9          6.9240   37.9250   55.7310  C.3       1 <0>        -0.1545
      10  N1          9.0540   37.6950   59.9860  N.pl3     1 <0>        -0.7288
      11  C10         9.8550   36.6830   60.5240  C.ar      1 <0>         0.1644
      12  C11        10.0150   35.4740   59.8490  C.ar      1 <0>        -0.1337
      13  C12        10.8160   34.5020   60.4190  C.ar      1 <0>        -0.1078
      14  C13        11.4320   34.7600   61.6380  C.ar      1 <0>         0.3028
      15  N2         11.2590   35.9190   62.2520  N.ar      1 <0>        -0.4631
      16  C14        10.5070   36.8720   61.7350  C.ar      1 <0>         0.0561
      17  N3         12.2460   33.7830   62.2230  N.pl3     1 <0>        -0.3174
      18  C15        11.8300   32.5930   62.7270  C.2       1 <0>         0.0766
      19  C16        12.9200   31.9440   63.1960  C.2       1 <0>        -0.2698
      20  C17        14.0360   32.7580   62.9730  C.2       1 <0>         0.0592
      21  N4         13.6350   33.8560   62.3850  N.2       1 <0>        -0.2898
@<TRIPOS>BOND
     1     1     2 1
     2     2     3 1
     3     2     4 1
     4     4     5 1
     5     5     6 1
     6     5    10 1
     7     6     7 1
     8     7     8 1
     9     7     9 1
    10    10    11 1
    11    11    16 ar
    12    11    12 ar
    13    12    13 ar
    14    13    14 ar
    15    14    15 ar
    16    14    17 1
    17    15    16 ar
    18    17    21 1
    19    17    18 1
    20    18    19 2
    21    19    20 1
    22    20    21 2

@<TRIPOS>MOLECULE
ZINC57670957_replica-1.pdb
 21 22 0 0 0
SMALL
GASTEIGER

@<TRIPOS>ATOM
       1  C1         12.7260   30.4570   64.2760  C.3       1 <0>        -0.1670
       2  C2         12.8650   31.3470   63.0400  C.3       1 <0>        -0.0164
       3  N1         13.1160   32.7320   63.4580  N.4       1 <0>        -0.2595
       4  C3         14.5170   33.0810   63.1880  C.3       1 <0>        -0.0111
       5  C4         15.2210   33.4220   64.5040  C.3       1 <0>        -0.1641
       6  C5         12.2760   33.5930   62.7450  C.ar      1 <0>        -0.3011
       7  C6         12.4590   34.9620   62.8310  C.ar      1 <0>        -0.1377
       8  C7         11.6330   35.8160   62.1290  C.ar      1 <0>        -0.1255
       9  C8         10.6150   35.3000   61.3360  C.ar      1 <0>         0.0134
      10  C9         10.4340   33.9250   61.2520  C.ar      1 <0>        -0.1317
      11  C10        11.2680   33.0760   61.9530  C.ar      1 <0>        -0.1334
      12  N2          9.7770   36.1610   60.6240  N.pl3     1 <0>        -0.7376
      13  C11         8.4280   35.7280   60.2520  C.3       1 <0>         0.2192
      14  C12         7.3960   36.5620   61.0130  C.3       1 <0>        -0.1596
      15  C13         8.2310   35.9160   58.7690  C.2       1 <0>        -0.1215
      16  C14         7.9660   37.1700   58.2510  C.2       1 <0>        -0.1474
      17  C15         7.7950   37.3050   56.9130  C.2       1 <0>        -0.1453
      18  S1          8.0080   35.6270   56.3420  S.3       1 <0>         0.0201
      19  C16         8.3180   34.8600   57.9250  C.2       1 <0>        -0.1440
      20  C17         8.5990   33.4140   58.2390  C.3       1 <0>        -0.0699
      21  C18         7.5000   38.5490   56.1150  C.3       1 <0>        -0.0696
@<TRIPOS>BOND
     1     1     2 1
     2     2     3 1
     3     3     4 1
     4     3     6 1
     5     4     5 1
     6     6    11 ar
     7     6     7 ar
     8     7     8 ar
     9     8     9 ar
    10     9    10 ar
    11     9    12 1
    12    10    11 ar
    13    12    13 1
    14    13    14 1
    15    13    15 1
    16    15    19 2
    17    15    16 1
    18    16    17 2
    19    17    18 1
    20    17    21 1
    21    18    19 1
    22    19    20 1

@<TRIPOS>MOLECULE
ZINC08185008_replica-1.pdb
 23 25 0 0 0
SMALL
GASTEIGER

@<TRIPOS>ATOM
       1  C1         -1.2060   26.9550   51.4250  C.ar      1 <0>        -0.1784
       2  C2         -1.4330   28.1150   52.1410  C.ar      1 <0>         0.0440
       3  C3         -0.9450   28.2400   53.4280  C.ar      1 <0>        -0.7419
       4  C4         -0.2270   27.2040   54.0010  C.ar      1 <0>         0.2345
       5  C5         -0.0040   26.0400   53.2870  C.ar      1 <0>        -0.2089
       6  C6         -0.4920   25.9160   51.9970  C.ar      1 <0>         0.1994
       7  F1         -0.2710   24.7820   51.2970  F         1 <0>        -0.1138
       8  F2          0.2540   27.3280   55.2570  F         1 <0>        -0.1090
       9  S1         -1.2350   29.7200   54.3390  S.o2      1 <0>         2.6841
      10  O1         -1.9100   29.3390   55.5300  O.2       1 <0>        -0.9119
      11  O2         -1.7780   30.6610   53.4230  O.2       1 <0>        -0.9059
      12  N1          0.2430   30.3100   54.8000  N.pl3     1 <0>        -0.9871
      13  C7          0.3820   30.9480   56.0170  C.2       1 <0>         0.3755
      14  N2          0.3280   32.2330   56.2830  N.2       1 <0>        -0.5157
      15  C8          0.4780   32.7200   57.5370  C.ar      1 <0>         0.0587
      16  C9          0.4410   34.0710   57.9570  C.ar      1 <0>         0.1894
      17  C10         0.6140   34.4000   59.2780  C.ar      1 <0>        -0.1771
      18  C11         0.8270   33.4240   60.2450  C.ar      1 <0>         0.1546
      19  C12         0.8680   32.0940   59.8670  C.ar      1 <0>        -0.1028
      20  C13         0.6970   31.7580   58.5460  C.ar      1 <0>        -0.1090
      21  S2          0.6730   30.2360   57.6300  S.3       1 <0>         0.0810
      22  F3          0.9940   33.7720   61.5400  F         1 <0>        -0.1145
      23  F4          0.2360   35.0490   57.0480  F         1 <0>        -0.1115
@<TRIPOS>BOND
     1     1     6 ar
     2     1     2 ar
     3     2     3 ar
     4     3     4 ar
     5     3     9 1
     6     4     5 ar
     7     4     8 1
     8     5     6 ar
     9     6     7 1
    10     9    10 2
    11     9    11 2
    12     9    12 1
    13    12    13 1
    14    13    21 1
    15    13    14 2
    16    14    15 1
    17    15    20 ar
    18    15    16 ar
    19    16    17 ar
    20    16    23 1
    21    17    18 ar
    22    18    19 ar
    23    18    22 1
    24    19    20 ar
    25    20    21 1

@<TRIPOS>MOLECULE
ZINC07292111_replica-1.pdb
 25 26 0 0 0
SMALL
GASTEIGER

@<TRIPOS>ATOM
       1  C1          0.6470   25.7510   54.6520  C.3       1 <0>        -0.1161
       2  C2         -0.1380   26.4950   53.6030  C.ar      1 <0>        -0.0593
       3  C3         -0.3940   25.9010   52.3800  C.ar      1 <0>        -0.1376
       4  C4         -1.1180   26.5790   51.4170  C.ar      1 <0>        -0.0862
       5  C5         -1.5840   27.8540   51.6710  C.ar      1 <0>        -0.1394
       6  C6         -1.3250   28.4560   52.8960  C.ar      1 <0>         0.1599
       7  C7         -0.5960   27.7720   53.8610  C.ar      1 <0>        -0.1496
       8  N1         -1.7930   29.7460   53.1560  N.pl3     1 <0>        -0.6050
       9  C8         -1.5020   30.3600   54.3690  C.2       1 <0>         0.3347
      10  N2         -2.2650   30.5100   55.4340  N.2       1 <0>        -0.3524
      11  N3         -1.7710   31.1530   56.5450  N.2       1 <0>        -0.2809
      12  C9         -0.5400   31.6270   56.5360  C.2       1 <0>         0.0286
      13  S1          0.0040   31.1620   54.8990  S.3       1 <0>         0.0205
      14  S2          0.3360   32.4880   57.7990  S.3       1 <0>         0.1308
      15  C10         0.6740   34.1130   57.0690  C.3       1 <0>        -0.1611
      16  C11         2.1460   34.2340   56.7720  C.2       1 <0>         0.5371
      17  O1          2.6900   33.4160   56.0620  O.2       1 <0>        -0.5213
      18  N4          2.8580   35.2510   57.2960  N.am      1 <0>        -0.7153
      19  C12         4.2900   35.3690   57.0070  C.3       1 <0>         0.1418
      20  C13         4.4970   36.3420   55.8450  C.3       1 <0>        -0.1660
      21  C14         5.0190   35.8920   58.2460  C.3       1 <0>        -0.1300
      22  C15         6.4750   36.1980   57.8900  C.3       1 <0>        -0.1160
      23  C16         7.0880   37.0900   58.9710  C.3       1 <0>        -0.0979
      24  C17         7.6460   38.3620   58.3290  C.3       1 <0>        -0.1506
      25  C18         6.0130   37.4650   59.9930  C.3       1 <0>        -0.1495
@<TRIPOS>BOND
     1     1     2 1
     2     2     7 ar
     3     2     3 ar
     4     3     4 ar
     5     4     5 ar
     6     5     6 ar
     7     6     7 ar
     8     6     8 1
     9     8     9 1
    10     9    13 1
    11     9    10 2
    12    10    11 1
    13    11    12 2
    14    12    13 1
    15    12    14 1
    16    14    15 1
    17    15    16 1
    18    16    17 2
    19    16    18 am
    20    18    19 1
    21    19    20 1
    22    19    21 1
    23    21    22 1
    24    22    23 1
    25    23    24 1
    26    23    25 1

@<TRIPOS>MOLECULE
ZINC49181380_replica-1.pdb
 20 21 0 0 0
SMALL
GASTEIGER

@<TRIPOS>ATOM
       1  C1          1.9590   36.0250   57.1240  C.3       1 <0>        -0.1380
       2  C2          0.5870   35.3830   57.3410  C.3       1 <0>        -0.0747
       3  C3          0.6870   34.3380   58.4220  C.2       1 <0>        -0.0259
       4  C4          0.6810   34.6640   59.7570  C.2       1 <0>        -0.1812
       5  C5          0.7740   33.6730   60.6780  C.2       1 <0>        -0.2166
       6  S1          0.8720   32.2670   59.7630  S.3       1 <0>         0.1949
       7  C6          0.7840   32.9840   58.1320  C.2       1 <0>        -0.2637
       8  C7          0.8110   32.3190   56.8270  C.2       1 <0>         0.6060
       9  O1          1.8720   31.9890   56.3330  O.2       1 <0>        -0.5188
      10  N1         -0.3420   32.0720   56.1730  N.am      1 <0>        -0.7283
      11  C8         -0.3160   31.4070   54.8680  C.3       1 <0>         0.1256
      12  C9         -1.6210   30.6350   54.6620  C.3       1 <0>        -0.0919
      13  C10        -1.3490   29.3950   53.8510  C.ar      1 <0>        -0.0920
      14  C11        -0.4170   28.4730   54.2900  C.ar      1 <0>        -0.1044
      15  C12        -0.1670   27.3350   53.5460  C.ar      1 <0>        -0.1251
      16  C13        -0.8500   27.1190   52.3640  C.ar      1 <0>        -0.0811
      17  C14        -1.7840   28.0390   51.9270  C.ar      1 <0>        -0.1203
      18  C15        -2.0370   29.1760   52.6730  C.ar      1 <0>        -0.0733
      19  C16        -3.0580   30.1770   52.1980  C.3       1 <0>        -0.1216
      20  C17        -0.5780   25.8780   51.5520  C.3       1 <0>        -0.1170
@<TRIPOS>BOND
     1     1     2 1
     2     2     3 1
     3     3     7 2
     4     3     4 1
     5     4     5 2
     6     5     6 1
     7     6     7 1
     8     7     8 1
     9     8     9 2
    10     8    10 am
    11    10    11 1
    12    11    12 1
    13    12    13 1
    14    13    18 ar
    15    13    14 ar
    16    14    15 ar
    17    15    16 ar
    18    16    17 ar
    19    16    20 1
    20    17    18 ar
    21    18    19 1

@<TRIPOS>MOLECULE
ZINC16855593_replica-1.pdb
 22 22 0 0 0
SMALL
GASTEIGER

@<TRIPOS>ATOM
       1  C1         11.5010   35.4320   62.0090  C.3       1 <0>        -0.1474
       2  C2         10.4590   36.4200   61.4810  C.3       1 <0>        -0.1214
       3  C3         10.0050   35.9870   60.0850  C.3       1 <0>        -0.1319
       4  C4          9.1980   37.1150   59.4380  C.3       1 <0>        -0.0871
       5  C5          8.5350   36.6000   58.1600  C.3       1 <0>        -0.0762
       6  C6          7.1840   36.0230   58.4910  C.2       1 <0>        -0.1729
       7  C7          6.8450   34.7670   58.0780  C.2       1 <0>         0.1357
       8  N1          5.6490   34.2660   58.3770  N.2       1 <0>        -0.5280
       9  C8          4.7680   34.9590   59.0720  C.2       1 <0>         0.3465
      10  N2          5.0510   36.2170   59.5100  N.am      1 <0>        -0.6205
      11  C9          6.2520   36.7700   59.2330  C.2       1 <0>         0.5384
      12  O1          6.5210   37.8950   59.6190  O.2       1 <0>        -0.4999
      13  S1          3.1960   34.2490   59.4320  S.3       1 <0>        -0.0383
      14  C10         2.5080   34.1420   57.7620  C.3       1 <0>        -0.0935
      15  C11         2.5200   35.5280   57.1150  C.3       1 <0>        -0.1043
      16  C12         3.1590   35.4380   55.7280  C.3       1 <0>        -0.0899
      17  C13         4.3860   36.3510   55.6700  C.3       1 <0>        -0.1529
      18  C14         3.5860   33.9930   55.4570  C.3       1 <0>        -0.1473
      19  C15         7.8270   33.9470   57.2810  C.3       1 <0>        -0.0970
      20  C16         8.3710   37.7380   57.1860  C.2       1 <0>         0.4797
      21  O2          8.7760   38.8390   57.4690  O.co2     1 <0>        -0.6295
      22  O3          7.7730   37.5260   56.0020  O.co2     1 <0>        -0.7602
@<TRIPOS>BOND
     1     1     2 1
     2     2     3 1
     3     3     4 1
     4     4     5 1
     5     5     6 1
     6     5    20 1
     7     6    11 1
     8     6     7 2
     9     7     8 1
    10     7    19 1
    11     8     9 2
    12     9    10 1
    13     9    13 1
    14    10    11 am
    15    11    12 2
    16    13    14 1
    17    14    15 1
    18    15    16 1
    19    16    17 1
    20    16    18 1
    21    20    21 2
    22    20    22 1

@<TRIPOS>MOLECULE
ZINC63685524_replica-1.pdb
 23 24 0 0 0
SMALL
GASTEIGER

@<TRIPOS>ATOM
       1  C1          0.7620   30.1200   60.1090  C.3       1 <0>        -0.1490
       2  C2          0.7150   29.8040   58.6130  C.3       1 <0>        -0.1054
       3  C3          0.8040   28.2900   58.4080  C.3       1 <0>        -0.1454
       4  C4         -0.5990   30.3210   58.0240  C.3       1 <0>        -0.1250
       5  C5         -0.2970   31.3170   56.9020  C.3       1 <0>         0.1761
       6  C6         -1.2470   31.0850   55.7560  C.2       1 <0>         0.4614
       7  O1         -2.4400   31.0720   55.9510  O.2       1 <0>        -0.4784
       8  O2         -0.7680   30.8940   54.5160  O.3       1 <0>        -0.2810
       9  C7         -0.6170   29.6150   54.0800  C.ar      1 <0>         0.0847
      10  C8          0.2180   28.7410   54.7830  C.ar      1 <0>        -0.1235
      11  C9          0.3900   27.4560   54.3720  C.ar      1 <0>        -0.0844
      12  C10        -0.2780   26.9970   53.2250  C.ar      1 <0>        -0.0505
      13  C11        -0.1240   25.6750   52.7720  C.ar      1 <0>        -0.1043
      14  C12        -0.7860   25.2620   51.6560  C.ar      1 <0>        -0.1111
      15  C13        -1.6190   26.1310   50.9540  C.ar      1 <0>        -0.1109
      16  C14        -1.7920   27.4180   51.3620  C.ar      1 <0>        -0.1035
      17  C15        -1.1250   27.8800   52.5100  C.ar      1 <0>        -0.0418
      18  C16        -1.2860   29.1990   52.9640  C.ar      1 <0>        -0.0974
      19  N1         -0.4630   32.6840   57.4040  N.am      1 <0>        -0.7014
      20  C17         0.5120   33.5940   57.2160  C.2       1 <0>         0.6551
      21  O3          1.4890   33.3090   56.5520  O.2       1 <0>        -0.5620
      22  O4          0.4040   34.8190   57.7630  O.3       1 <0>        -0.3615
      23  C18         1.4370   35.7590   57.4580  C.3       1 <0>         0.0530
@<TRIPOS>BOND
     1     1     2 1
     2     2     3 1
     3     2     4 1
     4     4     5 1
     5     5     6 1
     6     5    19 1
     7     6     7 2
     8     6     8 1
     9     8     9 1
    10     9    18 ar
    11     9    10 ar
    12    10    11 ar
    13    11    12 ar
    14    12    17 ar
    15    12    13 ar
    16    13    14 ar
    17    14    15 ar
    18    15    16 ar
    19    16    17 ar
    20    17    18 ar
    21    19    20 am
    22    20    21 2
    23    20    22 1
    24    22    23 1

@<TRIPOS>MOLECULE
ZINC19241374_replica-1.pdb
 27 29 0 0 0
SMALL
GASTEIGER

@<TRIPOS>ATOM
       1  C1         11.5370   32.9250   62.7460  C.3       1 <0>        -0.1461
       2  C2         12.0480   34.3510   62.5270  C.3       1 <0>        -0.0595
       3  C3         13.4780   34.3030   61.9860  C.3       1 <0>        -0.1462
       4  C4         11.1590   35.0550   61.5340  C.ar      1 <0>        -0.0725
       5  C5         10.7000   36.3310   61.8010  C.ar      1 <0>        -0.1132
       6  C6          9.8830   36.9760   60.8910  C.ar      1 <0>        -0.1017
       7  C7          9.5280   36.3470   59.7130  C.ar      1 <0>        -0.0924
       8  C8          9.9830   35.0680   59.4480  C.ar      1 <0>        -0.1127
       9  C9         10.8040   34.4250   60.3560  C.ar      1 <0>        -0.1097
      10  C10         8.6390   37.0510   58.7210  C.3       1 <0>         0.1962
      11  C11         7.8040   38.1090   59.4450  C.3       1 <0>        -0.0972
      12  C12         7.5180   39.2720   58.4930  C.3       1 <0>        -0.1483
      13  C13         6.4830   37.4890   59.9050  C.3       1 <0>        -0.1420
      14  N1          7.7470   36.0760   58.0870  N.am      1 <0>        -0.7287
      15  C14         7.7500   35.9310   56.7470  C.2       1 <0>         0.5390
      16  O1          8.4910   36.6080   56.0660  O.2       1 <0>        -0.5195
      17  C15         6.8340   34.9280   56.0950  C.3       1 <0>        -0.1612
      18  S1          5.2950   35.7490   55.5970  S.3       1 <0>         0.1239
      19  C16         4.2230   35.5180   56.9750  C.2       1 <0>         0.0230
      20  N2          4.5010   35.0780   58.1870  N.2       1 <0>        -0.2752
      21  N3          3.5000   34.9730   59.1250  N.2       1 <0>        -0.3857
      22  C17         2.2660   35.3110   58.8070  C.2       1 <0>         0.3596
      23  S2          2.4640   35.8070   57.1020  S.3       1 <0>        -0.0057
      24  N4          1.1160   35.2840   59.5890  N.pl3     1 <0>        -0.6747
      25  C18         0.5490   34.0020   60.0130  C.3       1 <0>         0.0059
      26  C19         1.2180   33.2880   61.1880  C.3       1 <0>        -0.1442
      27  C20        -0.1470   33.9530   61.3750  C.3       1 <0>        -0.1356
@<TRIPOS>BOND
     1     1     2 1
     2     2     3 1
     3     2     4 1
     4     4     9 ar
     5     4     5 ar
     6     5     6 ar
     7     6     7 ar
     8     7     8 ar
     9     7    10 1
    10     8     9 ar
    11    10    11 1
    12    10    14 1
    13    11    12 1
    14    11    13 1
    15    14    15 am
    16    15    16 2
    17    15    17 1
    18    17    18 1
    19    18    19 1
    20    19    23 1
    21    19    20 2
    22    20    21 1
    23    21    22 2
    24    22    23 1
    25    22    24 1
    26    24    25 1
    27    25    27 1
    28    25    26 1
    29    26    27 1

@<TRIPOS>MOLECULE
ZINC35254068_replica-1.pdb
 21 22 0 0 0
SMALL
GASTEIGER

@<TRIPOS>ATOM
       1  C1          5.7510   37.5180   60.3010  C.3       1 <0>        -0.1416
       2  C2          7.1840   37.3010   59.8130  C.3       1 <0>         0.0871
       3  C3          7.4830   38.2650   58.6630  C.3       1 <0>        -0.0422
       4  C4          7.6320   37.4880   57.3810  C.2       1 <0>        -0.1480
       5  C5          8.2070   36.2780   57.1770  C.2       1 <0>        -0.1573
       6  C6          8.2300   35.7530   55.8990  C.2       1 <0>        -0.1559
       7  C7          7.6770   36.4640   54.8860  C.2       1 <0>        -0.1737
       8  S1          7.0910   37.9220   55.7350  S.3       1 <0>         0.0337
       9  N1          8.1210   37.5510   60.9170  N.3       1 <0>        -0.6813
      10  C8          9.5130   37.5020   60.4480  C.3       1 <0>         0.0957
      11  C9         10.2060   36.3120   61.0590  C.ar      1 <0>        -0.0721
      12  C10         9.9080   35.0370   60.6170  C.ar      1 <0>        -0.0928
      13  C11        10.5400   33.9440   61.1760  C.ar      1 <0>        -0.0809
      14  C12        11.4800   34.1280   62.1830  C.ar      1 <0>        -0.1043
      15  C13        11.7780   35.4100   62.6250  C.ar      1 <0>        -0.1208
      16  C14        11.1450   36.4990   62.0580  C.ar      1 <0>        -0.0726
      17  S2         12.2900   32.7360   62.9000  S.3       1 <0>        -0.0266
      18  C15        14.0220   33.2580   63.0330  C.3       1 <0>         0.4524
      19  F1         14.8300   32.1380   63.2650  F         1 <0>        -0.1630
      20  F2         14.4140   33.8770   61.8420  F         1 <0>        -0.1445
      21  F3         14.1580   34.1580   64.0950  F         1 <0>        -0.1623
@<TRIPOS>BOND
     1     1     2 1
     2     2     3 1
     3     2     9 1
     4     3     4 1
     5     4     8 1
     6     4     5 2
     7     5     6 1
     8     6     7 2
     9     7     8 1
    10     9    10 1
    11    10    11 1
    12    11    16 ar
    13    11    12 ar
    14    12    13 ar
    15    13    14 ar
    16    14    15 ar
    17    14    17 1
    18    15    16 ar
    19    17    18 1
    20    18    19 1
    21    18    20 1
    22    18    21 1

@<TRIPOS>MOLECULE
ZINC38512005_replica-1.pdb
 26 28 0 0 0
SMALL
GASTEIGER

@<TRIPOS>ATOM
       1  C1          6.1040   37.0740   59.8580  C.3       1 <0>        -0.1149
       2  C2          5.8780   36.2140   58.6410  C.ar      1 <0>        -0.0821
       3  C3          6.2840   36.6600   57.3960  C.ar      1 <0>        -0.0951
       4  C4          6.0800   35.8770   56.2760  C.ar      1 <0>        -0.1722
       5  C5          5.4680   34.6390   56.3980  C.ar      1 <0>         0.1005
       6  C6          5.0590   34.1890   57.6510  C.ar      1 <0>         0.1338
       7  C7          5.2710   34.9800   58.7720  C.ar      1 <0>        -0.1252
       8  N1          4.4400   32.9400   57.7800  N.pl3     1 <0>        -0.6002
       9  C8          3.0580   32.8440   57.7340  C.2       1 <0>         0.3666
      10  N2          2.2990   32.1750   56.8890  N.2       1 <0>        -0.5510
      11  C9          0.9690   32.1940   56.9930  C.2       1 <0>         0.0363
      12  C10         0.3890   32.9240   58.0000  C.2       1 <0>        -0.1630
      13  S1          1.8400   33.5870   58.8080  S.3       1 <0>         0.0391
      14  C11         0.1350   31.4410   56.0400  C.2       1 <0>         0.5905
      15  O1         -1.0770   31.5430   56.0800  O.2       1 <0>        -0.5340
      16  N3          0.7140   30.6410   55.1240  N.am      1 <0>        -0.7139
      17  C12        -0.1150   29.8940   54.1760  C.3       1 <0>         0.1242
      18  C13        -0.1390   28.4150   54.5730  C.3       1 <0>        -0.0984
      19  C14        -0.5130   27.5800   53.3770  C.2       1 <0>        -0.1209
      20  C15        -0.0570   26.3700   53.3150  C.2       1 <0>        -0.1473
      21  C16        -0.3340   25.4240   52.1840  C.3       1 <0>        -0.0914
      22  C17        -1.5320   25.9140   51.3690  C.3       1 <0>        -0.1218
      23  C18        -1.3180   27.3960   51.0330  C.3       1 <0>        -0.1210
      24  C19        -1.3980   28.2000   52.3350  C.3       1 <0>        -0.0839
      25  O2          5.2670   33.8670   55.2970  O.3       1 <0>        -0.3181
      26  C20         4.6160   34.4820   54.1830  C.3       1 <0>         0.0280
@<TRIPOS>BOND
     1     1     2 1
     2     2     7 ar
     3     2     3 ar
     4     3     4 ar
     5     4     5 ar
     6     5     6 ar
     7     5    25 1
     8     6     7 ar
     9     6     8 1
    10     8     9 1
    11     9    13 1
    12     9    10 2
    13    10    11 1
    14    11    12 2
    15    11    14 1
    16    12    13 1
    17    14    15 2
    18    14    16 am
    19    16    17 1
    20    17    18 1
    21    18    19 1
    22    19    24 1
    23    19    20 2
    24    20    21 1
    25    21    22 1
    26    22    23 1
    27    23    24 1
    28    25    26 1

@<TRIPOS>MOLECULE
ZINC45213285_replica-1.pdb
 21 21 0 0 0
SMALL
GASTEIGER

@<TRIPOS>ATOM
       1  C1          8.3420   31.9940   60.5660  C.3       1 <0>        -0.1064
       2  C2          9.3640   33.0950   60.6700  C.ar      1 <0>        -0.1101
       3  C3         10.4070   32.9870   61.5700  C.ar      1 <0>        -0.0789
       4  C4         11.3460   33.9970   61.6670  C.ar      1 <0>        -0.1000
       5  C5         11.2440   35.1190   60.8640  C.ar      1 <0>        -0.0866
       6  C6         10.2040   35.2310   59.9620  C.ar      1 <0>        -0.2005
       7  C7          9.2640   34.2150   59.8590  C.ar      1 <0>         0.1239
       8  O1          8.2420   34.3220   58.9700  O.3       1 <0>        -0.3095
       9  C8          8.4850   35.0900   57.7890  C.3       1 <0>         0.0748
      10  C9          7.1560   35.5930   57.2240  C.3       1 <0>         0.2198
      11  C10         6.1120   34.4770   57.3100  C.3       1 <0>        -0.1400
      12  C11         7.3380   35.9860   55.8170  C.1       1 <0>         0.1726
      13  N1          7.4790   36.2900   54.7310  N.1       1 <0>        -0.4092
      14  N2          6.7000   36.7520   58.0020  N.3       1 <0>        -0.6531
      15  C12         7.8380   37.5650   58.4520  C.3       1 <0>         0.0650
      16  C13         7.9130   38.8440   57.6170  C.3       1 <0>        -0.1765
      17  C14         7.6540   37.9270   59.9260  C.3       1 <0>        -0.1377
      18  C15        12.4830   33.8780   62.6500  C.3       1 <0>        -0.0262
      19  C16        12.4510   32.4940   63.3000  C.3       1 <0>        -0.1397
      20  C17        13.8130   34.0680   61.9180  C.3       1 <0>        -0.1452
      21  C18        12.3370   34.9520   63.7300  C.3       1 <0>        -0.1392
@<TRIPOS>BOND
     1     1     2 1
     2     2     7 ar
     3     2     3 ar
     4     3     4 ar
     5     4     5 ar
     6     4    18 1
     7     5     6 ar
     8     6     7 ar
     9     7     8 1
    10     8     9 1
    11     9    10 1
    12    10    11 1
    13    10    12 1
    14    10    14 1
    15    12    13 3
    16    14    15 1
    17    15    16 1
    18    15    17 1
    19    18    19 1
    20    18    20 1
    21    18    21 1

@<TRIPOS>MOLECULE
ZINC35521351_replica-1.pdb
 29 31 0 0 0
SMALL
GASTEIGER

@<TRIPOS>ATOM
       1  C1          1.8620   33.0270   60.9320  C.3       1 <0>        -0.1881
       2  C2          0.7870   33.9190   60.3090  C.3       1 <0>        -0.0163
       3  N1          1.4280   35.0110   59.5630  N.4       1 <0>        -0.3865
       4  C3          2.8590   34.7210   59.4040  C.3       1 <0>        -0.0152
       5  C4          3.5100   35.8150   58.5560  C.3       1 <0>        -0.1881
       6  C5          0.8030   35.1320   58.2380  C.3       1 <0>        -0.0145
       7  C6          0.0780   33.8290   57.8970  C.3       1 <0>        -0.1515
       8  C7          0.6920   33.2210   56.6340  C.3       1 <0>        -0.1247
       9  C8          1.2550   31.8350   56.9580  C.3       1 <0>         0.1465
      10  C9          2.7670   31.9350   57.1670  C.3       1 <0>        -0.1700
      11  N2          0.9750   30.9220   55.8460  N.am      1 <0>        -0.7211
      12  C10        -0.1680   30.2090   55.8320  C.2       1 <0>         0.5960
      13  O1         -1.0090   30.3880   56.6940  O.2       1 <0>        -0.5326
      14  C11        -0.3980   29.2170   54.7790  C.2       1 <0>        -0.0294
      15  C12        -1.1210   29.4170   53.6430  C.2       1 <0>        -0.0920
      16  C13        -1.1010   28.2090   52.8840  C.2       1 <0>        -0.1846
      17  C14        -1.6190   27.6790   51.6290  C.2       1 <0>        -0.0996
      18  C15        -1.3370   26.4140   51.2910  C.2       1 <0>        -0.1802
      19  S1         -0.3440   25.8350   52.6540  S.3       1 <0>         0.1039
      20  C16        -0.3360   27.3120   53.6370  C.2       1 <0>         0.0190
      21  N3          0.0880   27.9210   54.7690  N.pl3     1 <0>        -0.3667
      22  C17         0.9190   27.3090   55.8110  C.3       1 <0>         0.1337
      23  C18         0.0660   26.4150   56.6720  C.ar      1 <0>        -0.1113
      24  C19        -0.9500   26.9570   57.4380  C.ar      1 <0>        -0.1003
      25  C20        -1.7320   26.1360   58.2290  C.ar      1 <0>        -0.1226
      26  C21        -1.4980   24.7730   58.2540  C.ar      1 <0>        -0.1088
      27  C22        -0.4840   24.2320   57.4880  C.ar      1 <0>        -0.0824
      28  C23         0.2960   25.0520   56.6940  C.ar      1 <0>        -0.0972
      29  C24        -0.2290   22.7470   57.5160  C.3       1 <0>        -0.1189
@<TRIPOS>BOND
     1     1     2 1
     2     2     3 1
     3     3     4 1
     4     3     6 1
     5     4     5 1
     6     6     7 1
     7     7     8 1
     8     8     9 1
     9     9    10 1
    10     9    11 1
    11    11    12 am
    12    12    13 2
    13    12    14 1
    14    14    21 1
    15    14    15 2
    16    15    16 1
    17    16    20 2
    18    16    17 1
    19    17    18 2
    20    18    19 1
    21    19    20 1
    22    20    21 1
    23    21    22 1
    24    22    23 1
    25    23    28 ar
    26    23    24 ar
    27    24    25 ar
    28    25    26 ar
    29    26    27 ar
    30    27    28 ar
    31    27    29 1

@<TRIPOS>MOLECULE
ZINC61892931_replica-1.pdb
 19 19 0 0 0
SMALL
GASTEIGER

@<TRIPOS>ATOM
       1  C1         12.9210   30.5610   63.4050  C.3       1 <0>        -0.1528
       2  C2         13.7960   31.7820   63.6960  C.3       1 <0>         0.0600
       3  O1         13.7170   32.6960   62.5990  O.3       1 <0>        -0.3527
       4  C3         12.9450   33.7810   62.7650  C.2       1 <0>         0.4676
       5  O2         13.1370   34.5230   63.7000  O.2       1 <0>        -0.4921
       6  C4         11.8400   34.0760   61.7840  C.3       1 <0>         0.1102
       7  C5         11.3920   35.5300   61.9410  C.3       1 <0>        -0.1143
       8  C6         10.3780   35.8610   60.8750  C.ar      1 <0>        -0.0769
       9  C7          9.4550   36.8670   61.0910  C.ar      1 <0>        -0.0901
      10  C8          8.5240   37.1730   60.1180  C.ar      1 <0>        -0.0766
      11  C9          8.5160   36.4680   58.9200  C.ar      1 <0>        -0.1048
      12  C10         9.4470   35.4580   58.7070  C.ar      1 <0>        -0.1149
      13  C11        10.3780   35.1620   59.6820  C.ar      1 <0>        -0.0964
      14  S1          7.3310   36.8550   57.6750  S.3       1 <0>        -0.0215
      15  C12         7.8420   38.4890   57.0740  C.3       1 <0>         0.4517
      16  F1          9.2380   38.5440   57.0040  F         1 <0>        -0.1629
      17  F2          7.3020   38.7080   55.8030  F         1 <0>        -0.1433
      18  F3          7.3810   39.4730   57.9540  F         1 <0>        -0.1623
      19  N1         10.7040   33.1820   62.0430  N.3       1 <0>        -0.8283
@<TRIPOS>BOND
     1     1     2 1
     2     2     3 1
     3     3     4 1
     4     4     5 2
     5     4     6 1
     6     6     7 1
     7     6    19 1
     8     7     8 1
     9     8    13 ar
    10     8     9 ar
    11     9    10 ar
    12    10    11 ar
    13    11    12 ar
    14    11    14 1
    15    12    13 ar
    16    14    15 1
    17    15    16 1
    18    15    17 1
    19    15    18 1

@<TRIPOS>MOLECULE
ZINC34386982_replica-1.pdb
 26 28 0 0 0
SMALL
GASTEIGER

@<TRIPOS>ATOM
       1  C1          5.6700   37.6540   60.3430  C.3       1 <0>        -0.1476
       2  C2          6.1540   36.2410   60.0080  C.3       1 <0>        -0.0678
       3  C3          6.1130   36.0370   58.5150  C.2       1 <0>         0.0460
       4  C4          5.0580   35.5530   57.8110  C.2       1 <0>        -0.0904
       5  C5          5.4840   35.5350   56.4010  C.2       1 <0>        -0.2122
       6  C6          6.7640   36.0120   56.3860  C.2       1 <0>         0.0736
       7  N1          7.1270   36.3140   57.6470  N.pl3     1 <0>        -0.4260
       8  C7          8.4300   36.8590   58.0330  C.3       1 <0>         0.0998
       9  C8          8.8820   36.2190   59.3470  C.3       1 <0>        -0.1015
      10  C9          9.5380   37.2810   60.2320  C.3       1 <0>        -0.1200
      11  C10         9.9900   36.6410   61.5460  C.3       1 <0>        -0.1186
      12  C11        10.9980   35.5290   61.2530  C.3       1 <0>        -0.1216
      13  C12        10.3420   34.4670   60.3680  C.3       1 <0>        -0.1183
      14  C13         9.8900   35.1070   59.0540  C.3       1 <0>        -0.1128
      15  C14         7.6250   36.1810   55.1600  C.3       1 <0>        -0.0923
      16  C15         4.6910   35.0920   55.2430  C.2       1 <0>         0.6034
      17  O1          4.9510   34.0380   54.6950  O.2       1 <0>        -0.5416
      18  N2          3.6760   35.8540   54.7910  N.am      1 <0>        -0.8494
      19  C16         3.7450   35.1290   58.3530  C.ar      1 <0>        -0.0456
      20  C17         3.5880   33.8500   58.8870  C.ar      1 <0>        -0.0693
      21  C18         2.3650   33.4580   59.3890  C.ar      1 <0>        -0.1522
      22  C19         1.2900   34.3350   59.3630  C.ar      1 <0>         0.1255
      23  C20         1.4410   35.6090   58.8320  C.ar      1 <0>        -0.2058
      24  C21         2.6640   36.0090   58.3340  C.ar      1 <0>        -0.0597
      25  O2          0.0860   33.9470   59.8590  O.3       1 <0>        -0.3188
      26  C22        -0.0550   33.9250   61.2800  C.3       1 <0>         0.0267
@<TRIPOS>BOND
     1     1     2 1
     2     2     3 1
     3     3     7 1
     4     3     4 2
     5     4     5 1
     6     4    19 1
     7     5     6 2
     8     5    16 1
     9     6     7 1
    10     6    15 1
    11     7     8 1
    12     8     9 1
    13     9    14 1
    14     9    10 1
    15    10    11 1
    16    11    12 1
    17    12    13 1
    18    13    14 1
    19    16    17 2
    20    16    18 am
    21    19    24 ar
    22    19    20 ar
    23    20    21 ar
    24    21    22 ar
    25    22    23 ar
    26    22    25 1
    27    23    24 ar
    28    25    26 1

@<TRIPOS>MOLECULE
ZINC13186005_replica-1.pdb
 26 27 0 0 0
SMALL
GASTEIGER

@<TRIPOS>ATOM
       1  C1          2.9620   35.6120   56.4430  C.3       1 <0>        -0.1566
       2  C2          4.0110   36.1470   55.4660  C.3       1 <0>        -0.1155
       3  C3          5.0200   35.0410   55.1450  C.3       1 <0>        -0.0593
       4  C4          4.8920   34.6460   53.6720  C.3       1 <0>        -0.1505
       5  C5          4.7380   33.8220   56.0260  C.3       1 <0>        -0.1456
       6  C6          6.4370   35.5490   55.4160  C.3       1 <0>        -0.0768
       7  C7          6.3670   36.9380   56.0540  C.3       1 <0>        -0.1181
       8  C8          7.7850   37.4460   56.3260  C.3       1 <0>        -0.1258
       9  C9          8.4980   36.4840   57.2770  C.3       1 <0>         0.1554
      10  C10         8.5680   35.0950   56.6410  C.3       1 <0>        -0.1391
      11  C11         7.1500   34.5870   56.3680  C.3       1 <0>        -0.1163
      12  N1          7.7570   36.4060   58.5390  N.pl3     1 <0>        -1.1098
      13  S1          8.2930   37.2370   59.8670  S.o2      1 <0>         2.6945
      14  O1          8.9190   38.4170   59.3810  O.2       1 <0>        -0.9659
      15  O2          7.2110   37.2730   60.7880  O.2       1 <0>        -0.9587
      16  C12         9.5600   36.2660   60.6140  C.ar      1 <0>        -0.6958
      17  C13         9.7480   34.9550   60.2120  C.ar      1 <0>        -0.0185
      18  C14        10.7410   34.1910   60.7880  C.ar      1 <0>        -0.1448
      19  C15        11.5510   34.7410   61.7880  C.ar      1 <0>         0.0301
      20  C16        11.3500   36.0640   62.1910  C.ar      1 <0>        -0.1394
      21  C17        10.3570   36.8170   61.6020  C.ar      1 <0>        -0.0165
      22  C18        12.6090   33.9300   62.4110  C.2       1 <0>        -0.1426
      23  C19        12.3660   32.6460   62.7460  C.2       1 <0>        -0.1164
      24  C20        13.4170   31.8390   63.3660  C.2       1 <0>         0.4702
      25  O3         14.5140   32.3240   63.5690  O.co2     1 <0>        -0.6288
      26  O4         13.1700   30.5590   63.7120  O.co2     1 <0>        -0.7552
@<TRIPOS>BOND
     1     1     2 1
     2     2     3 1
     3     3     4 1
     4     3     5 1
     5     3     6 1
     6     6    11 1
     7     6     7 1
     8     7     8 1
     9     8     9 1
    10     9    10 1
    11     9    12 1
    12    10    11 1
    13    12    13 1
    14    13    14 2
    15    13    15 2
    16    13    16 1
    17    16    21 ar
    18    16    17 ar
    19    17    18 ar
    20    18    19 ar
    21    19    20 ar
    22    19    22 1
    23    20    21 ar
    24    22    23 2
    25    23    24 1
    26    24    25 2
    27    24    26 1

@<TRIPOS>MOLECULE
ZINC03365553_replica-1.pdb
 30 33 0 0 0
SMALL
GASTEIGER

@<TRIPOS>ATOM
       1  C1         -0.1700   29.5660   56.8710  C.3       1 <0>        -0.1658
       2  C2          0.1560   30.5020   55.7050  C.3       1 <0>         0.1437
       3  C3          0.2820   29.6850   54.4170  C.3       1 <0>        -0.1211
       4  C4         -1.1140   29.3490   53.8890  C.3       1 <0>        -0.0817
       5  C5         -1.0460   28.0980   53.0500  C.ar      1 <0>        -0.0834
       6  C6         -1.6910   28.0500   51.8280  C.ar      1 <0>        -0.1179
       7  C7         -1.6270   26.9030   51.0590  C.ar      1 <0>        -0.1174
       8  C8         -0.9200   25.8050   51.5110  C.ar      1 <0>        -0.1247
       9  C9         -0.2750   25.8540   52.7330  C.ar      1 <0>        -0.1178
      10  C10        -0.3380   27.0000   53.5020  C.ar      1 <0>        -0.1184
      11  N1          1.4200   31.1920   55.9710  N.am      1 <0>        -0.7224
      12  C11         1.4140   32.4760   56.3800  C.2       1 <0>         0.5173
      13  O1          0.3610   33.0610   56.5280  O.2       1 <0>        -0.5134
      14  C12         2.7140   33.1860   56.6530  C.3       1 <0>         0.0484
      15  O2          3.3590   33.5170   55.3960  O.3       1 <0>        -0.3282
      16  C13         4.2170   34.5560   55.4020  C.2       1 <0>         0.5176
      17  O3          3.9020   35.6070   54.8800  O.2       1 <0>        -0.5103
      18  C14         5.5390   34.4180   56.0420  C.ar      1 <0>        -0.1578
      19  C15         6.4400   33.4460   55.5850  C.ar      1 <0>        -0.0453
      20  C16         7.6670   33.3090   56.1630  C.ar      1 <0>        -0.1394
      21  C17         8.0380   34.1310   57.2250  C.ar      1 <0>         0.1310
      22  C18         7.1390   35.1090   57.6990  C.ar      1 <0>        -0.1166
      23  C19         5.8880   35.2490   57.1030  C.ar      1 <0>         0.0102
      24  C20         7.8250   35.7810   58.8000  C.2       1 <0>        -0.1531
      25  C21         9.0370   35.2100   58.9240  C.2       1 <0>         0.0743
      26  N2          9.1770   34.2210   57.9900  N.pl3     1 <0>        -0.5833
      27  C22        10.0580   35.6290   59.9580  C.3       1 <0>        -0.0571
      28  C23         9.6670   37.0090   60.4970  C.3       1 <0>        -0.1153
      29  C24         8.1940   36.9970   60.9140  C.3       1 <0>        -0.1212
      30  C25         7.3130   36.9060   59.6610  C.3       1 <0>        -0.0494
@<TRIPOS>BOND
     1     1     2 1
     2     2     3 1
     3     2    11 1
     4     3     4 1
     5     4     5 1
     6     5    10 ar
     7     5     6 ar
     8     6     7 ar
     9     7     8 ar
    10     8     9 ar
    11     9    10 ar
    12    11    12 am
    13    12    13 2
    14    12    14 1
    15    14    15 1
    16    15    16 1
    17    16    17 2
    18    16    18 1
    19    18    23 ar
    20    18    19 ar
    21    19    20 ar
    22    20    21 ar
    23    21    26 1
    24    21    22 ar
    25    22    23 ar
    26    22    24 1
    27    24    30 1
    28    24    25 2
    29    25    26 1
    30    25    27 1
    31    27    28 1
    32    28    29 1
    33    29    30 1

@<TRIPOS>MOLECULE
ZINC09528310_replica-1.pdb
 23 25 0 0 0
SMALL
GASTEIGER

@<TRIPOS>ATOM
       1  C1          9.5790   37.1370   60.4640  C.3       1 <0>        -0.1464
       2  C2          8.3280   37.1130   59.5820  C.3       1 <0>        -0.0992
       3  C3          8.3560   38.3080   58.6270  C.3       1 <0>        -0.1521
       4  C4          8.2970   35.8150   58.7740  C.3       1 <0>         0.2205
       5  C5          7.8100   36.0910   57.3710  C.2       1 <0>         0.0012
       6  C6          8.4580   36.7340   56.3900  C.2       1 <0>        -0.1793
       7  C7          7.6070   36.7530   55.2650  C.2       1 <0>        -0.2017
       8  C8          6.4690   36.1130   55.6080  C.2       1 <0>        -0.0045
       9  N1          6.5850   35.6990   56.8990  N.pl3     1 <0>        -0.4431
      10  C9          5.5900   34.9540   57.6790  C.3       1 <0>         0.0888
      11  C10         5.9100   35.0950   59.1710  C.3       1 <0>         0.1181
      12  N2          7.3470   34.8660   59.3830  N.am      1 <0>        -0.6285
      13  C11         7.7820   33.8190   60.1120  C.2       1 <0>         0.7158
      14  O1          6.9900   32.9950   60.5250  O.2       1 <0>        -0.5839
      15  N3          9.0960   33.6860   60.3840  N.am      1 <0>        -0.7404
      16  C12         9.5570   32.6110   61.2660  C.3       1 <0>         0.1807
      17  C13        10.8590   33.0120   61.9080  C.ar      1 <0>        -0.1237
      18  C14        11.3720   34.2780   61.6980  C.ar      1 <0>        -0.0688
      19  C15        12.5640   34.6490   62.2920  C.ar      1 <0>        -0.1553
      20  C16        13.2510   33.7470   63.0870  C.ar      1 <0>         0.1094
      21  C17        12.7390   32.4770   63.2920  C.ar      1 <0>        -0.1555
      22  C18        11.5440   32.1110   62.7030  C.ar      1 <0>        -0.0686
      23  F1         14.4190   34.1060   63.6630  F         1 <0>        -0.1365
@<TRIPOS>BOND
     1     1     2 1
     2     2     3 1
     3     2     4 1
     4     4    12 1
     5     4     5 1
     6     5     9 1
     7     5     6 2
     8     6     7 1
     9     7     8 2
    10     8     9 1
    11     9    10 1
    12    10    11 1
    13    11    12 1
    14    12    13 am
    15    13    14 2
    16    13    15 am
    17    15    16 1
    18    16    17 1
    19    17    22 ar
    20    17    18 ar
    21    18    19 ar
    22    19    20 ar
    23    20    21 ar
    24    20    23 1
    25    21    22 ar

@<TRIPOS>MOLECULE
ZINC67139302_replica-1.pdb
 24 25 0 0 0
SMALL
GASTEIGER

@<TRIPOS>ATOM
       1  C1          5.4960   35.8330   60.6360  C.3       1 <0>        -0.1994
       2  C2          5.3940   35.6660   59.1180  C.3       1 <0>         0.1119
       3  C3          6.6820   35.0910   58.5880  C.2       1 <0>         0.5200
       4  O1          6.8620   33.8930   58.5990  O.2       1 <0>        -0.5153
       5  N1          7.6350   35.9120   58.1020  N.am      1 <0>        -0.5807
       6  C4          9.0220   35.4480   58.0060  C.3       1 <0>         0.1636
       7  C5          9.7020   35.6190   59.3400  C.ar      1 <0>        -0.1249
       8  C6          9.4880   36.7660   60.0820  C.ar      1 <0>        -0.0599
       9  C7         10.1110   36.9240   61.3060  C.ar      1 <0>        -0.1582
      10  C8         10.9480   35.9330   61.7900  C.ar      1 <0>         0.1044
      11  C9         11.1610   34.7840   61.0460  C.ar      1 <0>        -0.1592
      12  C10        10.5330   34.6260   59.8250  C.ar      1 <0>        -0.0732
      13  F1         11.5570   36.0870   62.9850  F         1 <0>        -0.1391
      14  C11         7.2850   37.2660   57.6700  C.3       1 <0>         0.0765
      15  C12         7.0090   37.4840   56.1800  C.3       1 <0>        -0.2810
      16  C13         8.3010   38.0170   56.8050  C.3       1 <0>        -0.1965
      17  N2          4.2880   34.7580   58.8010  N.am      1 <0>        -0.6987
      18  C14         3.4600   35.0370   57.7750  C.2       1 <0>         0.6558
      19  O2          3.6310   36.0430   57.1130  O.2       1 <0>        -0.5644
      20  O3          2.4440   34.2030   57.4820  O.3       1 <0>        -0.3548
      21  C15         1.1420   34.5860   57.9270  C.3       1 <0>         0.1343
      22  C16         0.5520   35.6110   56.9570  C.3       1 <0>        -0.1869
      23  C17         0.2370   33.3530   57.9800  C.3       1 <0>        -0.1415
      24  C18         1.2420   35.2050   59.3230  C.3       1 <0>        -0.1863
@<TRIPOS>BOND
     1     1     2 1
     2     2     3 1
     3     2    17 1
     4     3     4 2
     5     3     5 am
     6     5     6 1
     7     5    14 1
     8     6     7 1
     9     7    12 ar
    10     7     8 ar
    11     8     9 ar
    12     9    10 ar
    13    10    11 ar
    14    10    13 1
    15    11    12 ar
    16    14    16 1
    17    14    15 1
    18    15    16 1
    19    17    18 am
    20    18    19 2
    21    18    20 1
    22    20    21 1
    23    21    22 1
    24    21    23 1
    25    21    24 1

@<TRIPOS>MOLECULE
ZINC01583849_replica-1.pdb
 22 22 0 0 0
SMALL
GASTEIGER

@<TRIPOS>ATOM
       1  C1         13.3200   31.6380   63.2940  C.3       1 <0>        -0.1555
       2  C2         12.1500   32.5610   62.9500  C.3       1 <0>        -0.1162
       3  C3         12.6530   34.0020   62.8390  C.3       1 <0>        -0.0490
       4  C4         14.0420   34.0090   62.1970  C.3       1 <0>        -0.1464
       5  C5         11.7030   34.8030   61.9880  C.ar      1 <0>        -0.1132
       6  C6         11.3600   36.0900   62.3590  C.ar      1 <0>        -0.0773
       7  C7         10.4890   36.8260   61.5810  C.ar      1 <0>        -0.1475
       8  C8          9.9570   36.2730   60.4260  C.ar      1 <0>         0.1259
       9  C9         10.2960   34.9790   60.0580  C.ar      1 <0>        -0.2078
      10  C10        11.1730   34.2490   60.8370  C.ar      1 <0>        -0.0735
      11  O1          9.0980   36.9950   59.6580  O.3       1 <0>        -0.3029
      12  C11         8.5120   36.3290   58.5380  C.3       1 <0>         0.0642
      13  C12         7.0700   36.8100   58.3560  C.3       1 <0>         0.0866
      14  C13         6.7540   37.8790   59.4040  C.3       1 <0>        -0.1682
      15  O2          6.9130   37.3730   57.0270  O.3       1 <0>        -0.3370
      16  C14         6.7500   36.5080   56.0140  C.2       1 <0>         0.4654
      17  O3          7.4850   36.5540   55.0560  O.2       1 <0>        -0.5074
      18  C15         5.6510   35.4790   56.0710  C.3       1 <0>        -0.0815
      19  C16         4.2970   36.1670   55.8830  C.3       1 <0>        -0.1174
      20  C17         3.4580   35.9980   57.1520  C.3       1 <0>        -0.1596
      21  C18         5.8570   34.4490   54.9590  C.3       1 <0>        -0.1109
      22  C19         4.7380   34.5830   53.9250  C.3       1 <0>        -0.1548
@<TRIPOS>BOND
     1     1     2 1
     2     2     3 1
     3     3     4 1
     4     3     5 1
     5     5    10 ar
     6     5     6 ar
     7     6     7 ar
     8     7     8 ar
     9     8     9 ar
    10     8    11 1
    11     9    10 ar
    12    11    12 1
    13    12    13 1
    14    13    14 1
    15    13    15 1
    16    15    16 1
    17    16    17 2
    18    16    18 1
    19    18    19 1
    20    18    21 1
    21    19    20 1
    22    21    22 1

@<TRIPOS>MOLECULE
ZINC16756350_replica-1.pdb
 23 26 0 0 0
SMALL
GASTEIGER

@<TRIPOS>ATOM
       1  C1          0.9220   35.8960   57.0130  C.3       1 <0>        -0.0722
       2  C2          2.3140   35.6530   57.5380  C.2       1 <0>         0.1454
       3  N1          3.4490   36.0460   57.0310  N.2       1 <0>        -0.5119
       4  C3          4.6370   35.7610   57.6030  C.ar      1 <0>         0.0850
       5  C4          5.9370   36.1150   57.1760  C.ar      1 <0>        -0.0558
       6  C5          7.0310   35.7360   57.8850  C.ar      1 <0>        -0.0993
       7  C6          6.9160   34.9830   59.0600  C.ar      1 <0>        -0.0279
       8  C7          5.6500   34.6170   59.5100  C.ar      1 <0>        -0.0519
       9  C8          4.5460   35.0000   58.7930  C.ar      1 <0>        -0.1515
      10  S1          2.7920   34.7820   58.9620  S.3       1 <0>         0.0280
      11  C9          8.1280   34.5880   59.8190  C.ar      1 <0>        -0.0414
      12  C10         8.3010   33.2630   60.2140  C.ar      1 <0>        -0.0826
      13  C11         9.4300   32.8960   60.9150  C.ar      1 <0>        -0.1234
      14  C12        10.3900   33.8480   61.2370  C.ar      1 <0>         0.1143
      15  C13        10.2160   35.1720   60.8480  C.ar      1 <0>        -0.1233
      16  C14         9.0910   35.5420   60.1430  C.ar      1 <0>        -0.0804
      17  N2         11.5320   33.4750   61.9530  N.pl3     1 <0>        -0.4273
      18  C15        11.5400   32.2920   62.6220  C.2       1 <0>         0.1291
      19  C16        12.6290   31.9020   63.3180  C.2       1 <0>        -0.2723
      20  C17        13.7650   32.7440   63.3550  C.2       1 <0>         0.3866
      21  O1         14.7630   32.4180   63.9820  O.2       1 <0>        -0.5181
      22  C18        13.7240   33.9720   62.6530  C.2       1 <0>        -0.2722
      23  C19        12.6070   34.3050   61.9700  C.2       1 <0>         0.1290
@<TRIPOS>BOND
     1     1     2 1
     2     2    10 1
     3     2     3 2
     4     3     4 1
     5     4     9 ar
     6     4     5 ar
     7     5     6 ar
     8     6     7 ar
     9     7     8 ar
    10     7    11 1
    11     8     9 ar
    12     9    10 1
    13    11    16 ar
    14    11    12 ar
    15    12    13 ar
    16    13    14 ar
    17    14    15 ar
    18    14    17 1
    19    15    16 ar
    20    17    23 1
    21    17    18 1
    22    18    19 2
    23    19    20 1
    24    20    21 2
    25    20    22 1
    26    22    23 2

@<TRIPOS>MOLECULE
ZINC28724597_replica-1.pdb
 23 24 0 0 0
SMALL
GASTEIGER

@<TRIPOS>ATOM
       1  C1         10.9170   36.3430   61.8550  C.3       1 <0>        -0.1526
       2  C2         10.4990   35.5020   60.6460  C.3       1 <0>        -0.1221
       3  C3          9.5970   36.3350   59.7350  C.3       1 <0>        -0.0971
       4  C4          8.7730   35.4170   58.8690  C.2       1 <0>         0.1882
       5  C5          7.8770   35.9440   58.0060  C.2       1 <0>        -0.2320
       6  C6          7.0700   34.9850   57.1540  C.3       1 <0>         0.2263
       7  N1          7.3300   33.5470   57.3400  N.pl3     1 <0>        -0.6434
       8  C7          8.2570   33.1750   58.2440  C.2       1 <0>         0.5585
       9  S1          8.5710   31.5070   58.4700  S.2       1 <0>        -0.5928
      10  N2          8.9470   34.0670   58.9660  N.pl3     1 <0>        -0.5976
      11  C8          5.6100   35.2320   57.4350  C.ar      1 <0>        -0.1264
      12  C9          4.7900   35.7320   56.4410  C.ar      1 <0>        -0.0846
      13  C10         3.4500   35.9600   56.7000  C.ar      1 <0>        -0.1134
      14  C11         2.9320   35.6860   57.9520  C.ar      1 <0>        -0.0599
      15  C12         3.7530   35.1840   58.9460  C.ar      1 <0>        -0.1109
      16  C13         5.0910   34.9530   58.6860  C.ar      1 <0>        -0.0979
      17  C14         1.4730   35.9340   58.2350  C.3       1 <0>        -0.0605
      18  C15         0.6590   35.6890   56.9630  C.3       1 <0>        -0.1448
      19  C16         0.9980   34.9850   59.3360  C.3       1 <0>        -0.1455
      20  C17         7.7000   37.3430   57.9000  C.2       1 <0>         0.5459
      21  O1          7.0870   37.9450   58.7610  O.2       1 <0>        -0.4875
      22  O2          8.2110   38.0100   56.8430  O.3       1 <0>        -0.3393
      23  C18         7.2960   38.3950   55.8160  C.3       1 <0>         0.0304
@<TRIPOS>BOND
     1     1     2 1
     2     2     3 1
     3     3     4 1
     4     4    10 1
     5     4     5 2
     6     5     6 1
     7     5    20 1
     8     6     7 1
     9     6    11 1
    10     7     8 1
    11     8     9 2
    12     8    10 1
    13    11    16 ar
    14    11    12 ar
    15    12    13 ar
    16    13    14 ar
    17    14    15 ar
    18    14    17 1
    19    15    16 ar
    20    17    18 1
    21    17    19 1
    22    20    21 2
    23    20    22 1
    24    22    23 1

@<TRIPOS>MOLECULE
ZINC01182529_replica-1.pdb
 24 27 0 0 0
SMALL
GASTEIGER

@<TRIPOS>ATOM
       1  C1          2.1210   33.4830   59.8820  C.2       1 <0>        -0.0906
       2  C2          3.0580   32.9540   60.7860  C.2       1 <0>        -0.1472
       3  C3          4.3150   33.4390   60.8250  C.2       1 <0>         0.0754
       4  N1          4.6990   34.4500   59.9870  N.pl3     1 <0>        -0.3540
       5  C4          3.8050   34.9890   59.0940  C.2       1 <0>         0.2407
       6  C5          2.4850   34.4930   59.0460  C.2       1 <0>        -0.0857
       7  N2          4.4190   35.9370   58.4030  N.2       1 <0>        -0.4570
       8  C6          5.6910   36.0400   58.8220  C.2       1 <0>         0.1294
       9  C7          5.8870   35.1100   59.8250  C.2       1 <0>         0.1804
      10  N3          7.0670   34.8840   60.5330  N.am      1 <0>        -0.6269
      11  C8          8.0490   34.1400   59.9850  C.2       1 <0>         0.5520
      12  O1          7.8630   33.5740   58.9250  O.2       1 <0>        -0.5113
      13  C9          9.3500   34.0120   60.6740  C.ar      1 <0>        -0.1202
      14  C10         9.6860   32.8200   61.3200  C.ar      1 <0>        -0.0789
      15  C11        10.9040   32.7040   61.9560  C.ar      1 <0>        -0.0890
      16  C12        11.7880   33.7700   61.9660  C.ar      1 <0>        -0.0735
      17  C13        11.4590   34.9560   61.3310  C.ar      1 <0>        -0.0904
      18  C14        10.2460   35.0820   60.6860  C.ar      1 <0>        -0.0488
      19  I1         13.6330   33.5870   62.9420  I         1 <0>        -0.0246
      20  C15         6.7050   36.9810   58.3020  C.2       1 <0>        -0.0821
      21  C16         7.3650   37.9870   58.9560  C.2       1 <0>        -0.1200
      22  C17         8.2830   38.7410   58.2570  C.2       1 <0>        -0.1543
      23  C18         8.4970   38.4710   56.9440  C.2       1 <0>        -0.1651
      24  S1          7.3850   37.1060   56.6560  S.3       1 <0>         0.0498
@<TRIPOS>BOND
     1     1     6 2
     2     1     2 1
     3     2     3 2
     4     3     4 1
     5     4     9 1
     6     4     5 1
     7     5     6 1
     8     5     7 2
     9     7     8 1
    10     8     9 2
    11     8    20 1
    12     9    10 1
    13    10    11 am
    14    11    12 2
    15    11    13 1
    16    13    18 ar
    17    13    14 ar
    18    14    15 ar
    19    15    16 ar
    20    16    17 ar
    21    16    19 1
    22    17    18 ar
    23    20    24 1
    24    20    21 2
    25    21    22 1
    26    22    23 2
    27    23    24 1

@<TRIPOS>MOLECULE
ZINC18193104_replica-1.pdb
 24 27 0 0 0
SMALL
GASTEIGER

@<TRIPOS>ATOM
       1  C1          9.9350   32.3700   61.9720  C.3       1 <0>        -0.1061
       2  C2         11.2970   32.9380   62.2730  C.ar      1 <0>        -0.0763
       3  C3         12.1380   32.2890   63.1570  C.ar      1 <0>        -0.1106
       4  C4         13.3850   32.8130   63.4390  C.ar      1 <0>        -0.1135
       5  C5         13.7990   33.9860   62.8330  C.ar      1 <0>        -0.1114
       6  C6         12.9670   34.6370   61.9450  C.ar      1 <0>        -0.1061
       7  C7         11.7120   34.1120   61.6590  C.ar      1 <0>         0.1591
       8  N1         10.8650   34.7700   60.7590  N.am      1 <0>        -0.4191
       9  C8         10.3110   35.9820   60.9630  C.2       1 <0>         0.5308
      10  O1         10.4480   36.6950   61.9430  O.2       1 <0>        -0.5003
      11  C9          9.5060   36.2670   59.7690  C.2       1 <0>        -0.2690
      12  C10         8.7400   37.4000   59.5140  C.2       1 <0>         0.1470
      13  C11         8.1940   37.6080   58.2300  C.2       1 <0>        -0.2160
      14  C12         8.7270   38.3860   57.2170  C.2       1 <0>         0.1318
      15  N2          7.9200   38.3370   56.1410  N.pl3     1 <0>        -0.5696
      16  C13         6.8230   37.5340   56.3870  C.ar      1 <0>         0.0798
      17  C14         6.9400   37.0420   57.6960  C.ar      1 <0>        -0.0689
      18  C15         5.9630   36.1980   58.2150  C.ar      1 <0>        -0.0804
      19  C16         4.8810   35.8460   57.4360  C.ar      1 <0>        -0.1272
      20  C17         4.7660   36.3270   56.1410  C.ar      1 <0>        -0.1003
      21  C18         5.7240   37.1690   55.6170  C.ar      1 <0>        -0.1175
      22  C19         9.6880   35.0970   58.9000  C.2       1 <0>         0.1306
      23  N3         10.4770   34.2700   59.5160  N.2       1 <0>        -0.2373
      24  C20         9.0740   34.8940   57.5390  C.3       1 <0>        -0.0874
@<TRIPOS>BOND
     1     1     2 1
     2     2     7 ar
     3     2     3 ar
     4     3     4 ar
     5     4     5 ar
     6     5     6 ar
     7     6     7 ar
     8     7     8 1
     9     8    23 1
    10     8     9 am
    11     9    10 2
    12     9    11 1
    13    11    12 2
    14    11    22 1
    15    12    13 1
    16    13    17 1
    17    13    14 2
    18    14    15 1
    19    15    16 1
    20    16    21 ar
    21    16    17 ar
    22    17    18 ar
    23    18    19 ar
    24    19    20 ar
    25    20    21 ar
    26    22    23 2
    27    22    24 1

@<TRIPOS>MOLECULE
ZINC35361400_replica-1.pdb
 31 35 0 0 0
SMALL
GASTEIGER

@<TRIPOS>ATOM
       1  C1         -0.8450   26.9990   52.1600  C.3       1 <0>        -0.1271
       2  C2         -0.7350   27.9020   53.3620  C.ar      1 <0>        -0.0244
       3  C3         -1.3910   29.1190   53.3740  C.ar      1 <0>        -0.1420
       4  C4         -1.2910   29.9460   54.4770  C.ar      1 <0>        -0.0098
       5  C5         -0.5360   29.5570   55.5670  C.ar      1 <0>        -0.7099
       6  C6          0.1200   28.3400   55.5550  C.ar      1 <0>        -0.0201
       7  C7          0.0160   27.5110   54.4540  C.ar      1 <0>        -0.1418
       8  S1         -0.4080   30.6130   56.9720  S.o2      1 <0>         2.6932
       9  O1         -0.8970   31.8850   56.5690  O.2       1 <0>        -0.9641
      10  O2         -0.9590   29.8980   58.0690  O.2       1 <0>        -0.9364
      11  O3          1.0740   30.7920   57.2680  O.3       1 <0>        -0.7237
      12  C8          1.4990   32.1560   57.3070  C.3       1 <0>         0.1085
      13  C9          2.1790   32.4410   58.6450  C.3       1 <0>        -0.1510
      14  C10         2.7040   33.8720   58.6940  C.3       1 <0>        -0.1086
      15  C11         3.6890   34.1320   57.5440  C.3       1 <0>        -0.0410
      16  C12         2.9560   33.8620   56.2260  C.3       1 <0>        -0.0738
      17  C13         2.4750   32.4180   56.1570  C.3       1 <0>        -0.1138
      18  C14         3.8660   34.1900   55.0450  C.3       1 <0>        -0.1120
      19  C15         4.1640   35.6910   55.0680  C.3       1 <0>        -0.1146
      20  C16         4.8760   36.0710   56.3650  C.3       1 <0>        -0.0703
      21  C17         4.1190   35.5920   57.5850  C.3       1 <0>        -0.0609
      22  C18         4.8280   35.9710   58.8730  C.3       1 <0>        -0.1109
      23  C19         6.3060   35.6350   58.8850  C.3       1 <0>        -0.1039
      24  C20         7.0490   36.0230   57.6330  C.3       1 <0>        -0.1078
      25  C21         6.3340   35.6250   56.3320  C.3       1 <0>        -0.0662
      26  C22         7.0560   36.5280   55.2860  C.3       1 <0>        -0.1243
      27  C23         7.3610   37.8330   56.0490  C.3       1 <0>        -0.1858
      28  C24         7.2680   37.5140   57.5290  C.2       1 <0>         0.3791
      29  O4          7.3530   38.2960   58.4450  O.2       1 <0>        -0.4391
      30  C25         8.4210   35.3390   57.6590  C.3       1 <0>        -0.1396
      31  C26         4.8730   33.1820   57.6900  C.3       1 <0>        -0.1550
@<TRIPOS>BOND
     1     1     2 1
     2     2     7 ar
     3     2     3 ar
     4     3     4 ar
     5     4     5 ar
     6     5     6 ar
     7     5     8 1
     8     6     7 ar
     9     8     9 2
    10     8    10 2
    11     8    11 1
    12    11    12 1
    13    12    17 1
    14    12    13 1
    15    13    14 1
    16    14    15 1
    17    15    21 1
    18    15    16 1
    19    15    31 1
    20    16    17 1
    21    16    18 1
    22    18    19 1
    23    19    20 1
    24    20    25 1
    25    20    21 1
    26    21    22 1
    27    22    23 1
    28    23    24 1
    29    24    28 1
    30    24    25 1
    31    24    30 1
    32    25    26 1
    33    26    27 1
    34    27    28 1
    35    28    29 2

@<TRIPOS>MOLECULE
ZINC51662539_replica-1.pdb
 21 22 0 0 0
SMALL
GASTEIGER

@<TRIPOS>ATOM
       1  C1          0.6840   22.6390   55.2420  C.3       1 <0>        -0.0409
       2  C2          0.5610   24.0680   55.5730  C.1       1 <0>        -0.1798
       3  C3          0.4630   25.2080   55.8360  C.1       1 <0>        -0.1854
       4  C4          0.3390   26.6370   56.1650  C.3       1 <0>         0.1563
       5  O1          0.8490   27.4200   55.0840  O.3       1 <0>        -0.3074
       6  C5         -0.0580   28.0900   54.3270  C.ar      1 <0>        -0.0453
       7  C6         -0.5840   27.4990   53.1590  C.ar      1 <0>         0.0022
       8  C7         -0.1890   26.2150   52.7510  C.ar      1 <0>        -0.1987
       9  C8         -0.7170   25.6750   51.6190  C.ar      1 <0>        -0.1200
      10  C9         -1.6470   26.3790   50.8550  C.ar      1 <0>        -0.1606
      11  C10        -2.0520   27.6260   51.2200  C.ar      1 <0>        -0.1801
      12  C11        -1.5290   28.2150   52.3840  C.ar      1 <0>        -0.0052
      13  C12        -1.9250   29.5000   52.7930  C.ar      1 <0>        -0.2484
      14  C13        -1.3970   30.0410   53.9270  C.ar      1 <0>        -0.0961
      15  C14        -0.4730   29.3390   54.6940  C.ar      1 <0>        -0.2352
      16  C15         0.0840   29.9680   55.9450  C.3       1 <0>         0.0958
      17  C16         0.7190   31.3180   55.5990  C.3       1 <0>        -0.1623
      18  N1         -1.0000   30.1710   56.9150  N.4       1 <0>        -0.5023
      19  C17        -1.3000   28.9010   57.5880  C.3       1 <0>         0.0146
      20  C18        -1.2110   29.0920   59.1030  C.3       1 <0>        -0.1795
      21  C19        -2.7130   28.4480   57.2140  C.3       1 <0>        -0.1805
@<TRIPOS>BOND
     1     1     2 1
     2     2     3 3
     3     3     4 1
     4     4     5 1
     5     5     6 1
     6     6    15 ar
     7     6     7 ar
     8     7    12 ar
     9     7     8 ar
    10     8     9 ar
    11     9    10 ar
    12    10    11 ar
    13    11    12 ar
    14    12    13 ar
    15    13    14 ar
    16    14    15 ar
    17    15    16 1
    18    16    17 1
    19    16    18 1
    20    18    19 1
    21    19    20 1
    22    19    21 1

@<TRIPOS>MOLECULE
ZINC09334252_replica-1.pdb
 29 32 0 0 0
SMALL
GASTEIGER

@<TRIPOS>ATOM
       1  C1          6.1930   31.5000   57.0800  C.3       1 <0>        -0.1563
       2  C2          6.6070   32.9480   56.8100  C.3       1 <0>         0.0039
       3  C3          5.9700   33.4180   55.5700  C.1       1 <0>         0.2048
       4  N1          5.4770   33.7810   54.6130  N.1       1 <0>        -0.3873
       5  S1          6.0820   33.9930   58.1920  S.3       1 <0>         0.0958
       6  C4          7.5310   33.9270   59.1930  C.2       1 <0>         0.3737
       7  N2          7.7500   32.8720   59.9510  N.2       1 <0>        -0.4814
       8  C5          8.8320   32.7980   60.7180  C.2       1 <0>         0.1060
       9  C6          9.7900   33.8260   60.7590  C.2       1 <0>        -0.2370
      10  C7         10.9290   33.6030   61.6530  C.2       1 <0>        -0.0471
      11  C8         10.9460   32.4450   62.3440  C.2       1 <0>        -0.1665
      12  S2          9.4710   31.5930   61.8530  S.3       1 <0>         0.1583
      13  C9         11.9900   31.9830   63.3150  C.3       1 <0>        -0.0390
      14  C10        13.2380   32.8590   63.1370  C.3       1 <0>        -0.1151
      15  C11        12.8070   34.3280   63.1080  C.3       1 <0>        -0.1228
      16  C12        12.0520   34.6230   61.8110  C.3       1 <0>        -0.0620
      17  C13         9.5290   34.9570   59.9230  C.2       1 <0>         0.5639
      18  O1         10.3060   35.8960   59.8930  O.2       1 <0>        -0.4925
      19  N3          8.4150   34.9690   59.1680  N.am      1 <0>        -0.4822
      20  C14         8.1530   36.0740   58.3470  C.ar      1 <0>         0.1350
      21  C15         8.5620   36.0670   57.0210  C.ar      1 <0>        -0.0876
      22  C16         8.3020   37.1570   56.2140  C.ar      1 <0>        -0.0758
      23  C17         7.6400   38.2570   56.7270  C.ar      1 <0>        -0.0949
      24  C18         7.2260   38.2650   58.0470  C.ar      1 <0>        -0.0639
      25  C19         7.4840   37.1780   58.8580  C.ar      1 <0>        -0.1569
      26  C20         7.0370   37.1890   60.2980  C.3       1 <0>         0.5016
      27  F1          8.1260   37.4890   61.1220  F         1 <0>        -0.1695
      28  F2          6.0420   38.1580   60.4690  F         1 <0>        -0.1697
      29  F3          6.5270   35.9320   60.6380  F         1 <0>        -0.1679
@<TRIPOS>BOND
     1     1     2 1
     2     2     3 1
     3     2     5 1
     4     3     4 3
     5     5     6 1
     6     6    19 1
     7     6     7 2
     8     7     8 1
     9     8    12 1
    10     8     9 2
    11     9    10 1
    12     9    17 1
    13    10    16 1
    14    10    11 2
    15    11    12 1
    16    11    13 1
    17    13    14 1
    18    14    15 1
    19    15    16 1
    20    17    18 2
    21    17    19 am
    22    19    20 1
    23    20    25 ar
    24    20    21 ar
    25    21    22 ar
    26    22    23 ar
    27    23    24 ar
    28    24    25 ar
    29    25    26 1
    30    26    27 1
    31    26    28 1
    32    26    29 1

@<TRIPOS>MOLECULE
ZINC36617245_replica-1.pdb
 25 28 0 0 0
SMALL
GASTEIGER

@<TRIPOS>ATOM
       1  C1          1.2470   35.7990   57.9310  C.3       1 <0>        -0.1166
       2  C2          1.6490   34.7110   58.8920  C.ar      1 <0>        -0.0418
       3  C3          0.8980   34.4820   60.0290  C.ar      1 <0>        -0.1107
       4  C4          1.2660   33.4840   60.9130  C.ar      1 <0>        -0.0903
       5  C5          2.3860   32.7130   60.6630  C.ar      1 <0>        -0.1132
       6  C6          3.1410   32.9380   59.5290  C.ar      1 <0>        -0.0740
       7  C7          2.7710   33.9340   58.6360  C.ar      1 <0>         0.1223
       8  N1          3.5310   34.1610   57.4820  N.pl3     1 <0>        -0.4251
       9  C8          4.5970   35.0440   57.5280  C.ar      1 <0>         0.3919
      10  C9          5.3450   35.2530   56.3540  C.ar      1 <0>        -0.2073
      11  C10         6.4230   36.1370   56.3740  C.ar      1 <0>        -0.0258
      12  C11         6.7120   36.7780   57.5680  C.ar      1 <0>        -0.1628
      13  C12         5.9330   36.5240   58.6840  C.ar      1 <0>         0.2433
      14  N2          4.9170   35.6820   58.6400  N.ar      1 <0>        -0.4701
      15  C13         6.2520   37.2240   59.9800  C.3       1 <0>        -0.1243
      16  C14         7.3610   36.6280   60.8490  C.3       1 <0>        -0.1661
      17  C15         7.6040   37.9310   60.0860  C.3       1 <0>        -0.1515
      18  C16         7.2470   36.3870   55.1390  C.3       1 <0>         0.3211
      19  F1          7.2730   37.7580   54.8630  F         1 <0>        -0.1809
      20  F2          8.5530   35.9290   55.3490  F         1 <0>        -0.1811
      21  C17         4.9590   34.5240   55.1340  C.2       1 <0>         0.5501
      22  O1          5.5750   34.6720   54.0960  O.2       1 <0>        -0.4444
      23  N3          3.9020   33.6850   55.2000  N.am      1 <0>        -0.6114
      24  C18         3.2210   33.5160   56.3450  C.2       1 <0>         0.5265
      25  S1          1.8970   32.4310   56.3550  S.2       1 <0>        -0.4885
@<TRIPOS>BOND
     1     1     2 1
     2     2     7 ar
     3     2     3 ar
     4     3     4 ar
     5     4     5 ar
     6     5     6 ar
     7     6     7 ar
     8     7     8 1
     9     8     9 1
    10     8    24 1
    11     9    14 ar
    12     9    10 ar
    13    10    11 ar
    14    10    21 1
    15    11    12 ar
    16    11    18 1
    17    12    13 ar
    18    13    14 ar
    19    13    15 1
    20    15    17 1
    21    15    16 1
    22    16    17 1
    23    18    19 1
    24    18    20 1
    25    21    23 am
    26    21    22 2
    27    23    24 1
    28    24    25 2

@<TRIPOS>MOLECULE
ZINC37274037_replica-1.pdb
 21 22 0 0 0
SMALL
GASTEIGER

@<TRIPOS>ATOM
       1  C1         11.2670   31.3540   63.4410  C.ar      1 <0>        -0.0567
       2  C2         12.4230   30.7530   63.9040  C.ar      1 <0>        -0.1477
       3  C3         13.6440   31.3820   63.7490  C.ar      1 <0>        -0.0727
       4  C4         13.7120   32.6210   63.1280  C.ar      1 <0>        -0.1760
       5  C5         12.5460   33.2270   62.6610  C.ar      1 <0>         0.2509
       6  C6         11.3260   32.5890   62.8210  C.ar      1 <0>        -0.1791
       7  N1         12.6070   34.4770   62.0340  N.pl3     1 <0>        -0.7447
       8  C7         11.6640   35.5330   62.4090  C.3       1 <0>         0.2026
       9  C8         10.7540   35.8310   61.2450  C.2       1 <0>         0.0371
      10  C9         10.5400   35.0280   60.1890  C.2       1 <0>        -0.1838
      11  C10         9.6230   35.6970   59.3450  C.2       1 <0>        -0.0794
      12  C11         9.3330   36.8690   59.9380  C.2       1 <0>         0.0148
      13  O1         10.0160   36.9420   61.0910  O.3       1 <0>        -0.1418
      14  N2          8.4100   37.9000   59.4100  N.pl3     1 <0>         0.0668
      15  O2          7.3110   38.0340   59.8950  O.2       1 <0>        -0.1179
      16  O3          8.7560   38.6080   58.4940  O.3       1 <0>        -0.1240
      17  S1         15.2670   33.4260   62.9310  S.3       1 <0>        -0.0443
      18  C12        15.6580   34.0400   64.5920  C.3       1 <0>         0.4600
      19  F1         15.7710   32.9600   65.4750  F         1 <0>        -0.1615
      20  F2         16.8660   34.7430   64.5570  F         1 <0>        -0.1436
      21  F3         14.6360   34.8910   65.0270  F         1 <0>        -0.1611
@<TRIPOS>BOND
     1     1     6 ar
     2     1     2 ar
     3     2     3 ar
     4     3     4 ar
     5     4     5 ar
     6     4    17 1
     7     5     6 ar
     8     5     7 1
     9     7     8 1
    10     8     9 1
    11     9    13 1
    12     9    10 2
    13    10    11 1
    14    11    12 2
    15    12    13 1
    16    12    14 1
    17    14    15 2
    18    14    16 1
    19    17    18 1
    20    18    19 1
    21    18    20 1
    22    18    21 1

@<TRIPOS>MOLECULE
ZINC13153836_replica-1.pdb
 22 23 0 0 0
SMALL
GASTEIGER

@<TRIPOS>ATOM
       1  C1         11.8240   34.5920   61.7720  C.3       1 <0>        -0.1169
       2  C2         10.7930   35.3330   60.9600  C.ar      1 <0>        -0.0515
       3  C3         10.3970   36.6020   61.3400  C.ar      1 <0>        -0.1558
       4  C4          9.4510   37.2860   60.5980  C.ar      1 <0>        -0.0744
       5  C5          8.9010   36.7010   59.4720  C.ar      1 <0>        -0.1116
       6  C6          9.2970   35.4290   59.0890  C.ar      1 <0>         0.1351
       7  C7         10.2510   34.7470   59.8320  C.ar      1 <0>        -0.2081
       8  O1          8.7570   34.8530   57.9830  O.3       1 <0>        -0.3104
       9  C8          8.4400   33.4620   58.0650  C.3       1 <0>         0.0621
      10  C9          6.9460   33.2620   57.8010  C.3       1 <0>        -0.1156
      11  C10         6.1370   33.9490   58.9030  C.3       1 <0>         0.0595
      12  N1          5.1840   34.8890   58.2980  N.3       1 <0>        -0.5371
      13  C11         3.8590   34.7720   58.9240  C.3       1 <0>         0.0194
      14  C12         2.9150   35.8080   58.3080  C.3       1 <0>         0.0902
      15  O2          2.8640   35.6140   56.8910  O.3       1 <0>        -0.3796
      16  C13         4.1360   35.7230   56.2490  C.3       1 <0>         0.0903
      17  C14         5.0930   34.6860   56.8450  C.3       1 <0>         0.0237
      18  C15         3.9750   35.4680   54.7490  C.3       1 <0>        -0.1455
      19  C16         1.5150   35.6380   58.8990  C.3       1 <0>        -0.1458
      20  C17         7.8700   37.4460   58.6630  C.3       1 <0>        -0.0511
      21  C18         6.7660   37.9570   59.5920  C.3       1 <0>        -0.1429
      22  C19         8.5340   38.6310   57.9600  C.3       1 <0>        -0.1429
@<TRIPOS>BOND
     1     1     2 1
     2     2     7 ar
     3     2     3 ar
     4     3     4 ar
     5     4     5 ar
     6     5     6 ar
     7     5    20 1
     8     6     7 ar
     9     6     8 1
    10     8     9 1
    11     9    10 1
    12    10    11 1
    13    11    12 1
    14    12    17 1
    15    12    13 1
    16    13    14 1
    17    14    15 1
    18    14    19 1
    19    15    16 1
    20    16    17 1
    21    16    18 1
    22    20    21 1
    23    20    22 1

@<TRIPOS>MOLECULE
ZINC00154469_replica-1.pdb
 21 23 0 0 0
SMALL
GASTEIGER

@<TRIPOS>ATOM
       1  C1          8.4660   38.5670   57.7550  C.ar      1 <0>        -0.1195
       2  C2          8.6050   37.3740   57.0690  C.ar      1 <0>        -0.1183
       3  C3          8.8270   36.2000   57.7590  C.ar      1 <0>        -0.0953
       4  C4          8.9110   36.2180   59.1520  C.ar      1 <0>        -0.0455
       5  C5          8.7700   37.4240   59.8380  C.ar      1 <0>        -0.0990
       6  C6          8.5490   38.5910   59.1360  C.ar      1 <0>        -0.1230
       7  C7          9.1490   34.9610   59.8980  C.ar      1 <0>         0.0516
       8  C8         10.3460   34.7490   60.5800  C.ar      1 <0>        -0.2148
       9  C9         10.5310   33.5580   61.2760  C.ar      1 <0>         0.2029
      10  N1          9.5930   32.6180   61.2910  N.ar      1 <0>        -0.4904
      11  C10         8.4430   32.7670   60.6560  C.ar      1 <0>         0.3563
      12  C11         8.1720   33.9420   59.9330  C.ar      1 <0>        -0.1121
      13  C12         6.9270   34.1040   59.2450  C.1       1 <0>         0.2996
      14  N2          5.9380   34.2320   58.6990  N.1       1 <0>        -0.4487
      15  C13        11.8010   33.3320   62.0080  C.ar      1 <0>        -0.0385
      16  C14        11.9630   32.1930   62.7940  C.ar      1 <0>        -0.1010
      17  C15        13.1490   31.9860   63.4690  C.ar      1 <0>        -0.1297
      18  C16        14.1710   32.9130   63.3750  C.ar      1 <0>        -0.1174
      19  C17        14.0150   34.0490   62.6010  C.ar      1 <0>        -0.1289
      20  C18        12.8350   34.2630   61.9180  C.ar      1 <0>        -0.0753
      21  S1          7.2400   31.4810   60.7160  S.3       1 <0>        -0.8270
@<TRIPOS>BOND
     1     1     6 ar
     2     1     2 ar
     3     2     3 ar
     4     3     4 ar
     5     4     5 ar
     6     4     7 1
     7     5     6 ar
     8     7    12 ar
     9     7     8 ar
    10     8     9 ar
    11     9    10 ar
    12     9    15 1
    13    10    11 ar
    14    11    12 ar
    15    11    21 1
    16    12    13 1
    17    13    14 3
    18    15    20 ar
    19    15    16 ar
    20    16    17 ar
    21    17    18 ar
    22    18    19 ar
    23    19    20 ar

@<TRIPOS>MOLECULE
ZINC48825336_replica-1.pdb
 20 20 0 0 0
SMALL
GASTEIGER

@<TRIPOS>ATOM
       1  C1          4.3150   35.0440   54.5140  C.3       1 <0>        -0.1367
       2  C2          4.5070   35.9990   55.6650  C.2       1 <0>        -0.1305
       3  C3          5.7190   36.4920   55.9250  C.2       1 <0>        -0.1728
       4  C4          6.8610   36.1080   55.0930  C.2       1 <0>        -0.0224
       5  C5          8.1200   36.3120   55.5390  C.2       1 <0>        -0.2276
       6  C6          8.3470   37.0700   56.7680  C.2       1 <0>         0.5490
       7  O1          8.4930   38.2780   56.7210  O.2       1 <0>        -0.5377
       8  N1          8.3950   36.4320   57.9550  N.am      1 <0>        -0.7222
       9  C7          8.6230   37.1910   59.1870  C.3       1 <0>         0.1843
      10  C8          7.2970   37.3690   59.9290  C.3       1 <0>        -0.1576
      11  C9          9.5950   36.4450   60.0650  C.ar      1 <0>        -0.0979
      12  C10        10.0630   35.2030   59.6770  C.ar      1 <0>        -0.1120
      13  C11        10.9530   34.5180   60.4820  C.ar      1 <0>        -0.1111
      14  C12        11.3770   35.0760   61.6740  C.ar      1 <0>        -0.0665
      15  C13        10.9100   36.3180   62.0600  C.ar      1 <0>        -0.1163
      16  C14        10.0220   37.0040   61.2530  C.ar      1 <0>        -0.1044
      17  C15        12.3480   34.3290   62.5520  C.3       1 <0>        -0.0315
      18  C16        12.5330   35.0890   63.8670  C.3       1 <0>        -0.1393
      19  C17        11.8000   32.9310   62.8440  C.3       1 <0>        -0.1460
      20  C18        13.6950   34.2100   61.8370  C.3       1 <0>        -0.1392
@<TRIPOS>BOND
     1     1     2 1
     2     2     3 2
     3     3     4 1
     4     4     5 2
     5     5     6 1
     6     6     7 2
     7     6     8 am
     8     8     9 1
     9     9    10 1
    10     9    11 1
    11    11    16 ar
    12    11    12 ar
    13    12    13 ar
    14    13    14 ar
    15    14    15 ar
    16    14    17 1
    17    15    16 ar
    18    17    18 1
    19    17    19 1
    20    17    20 1

@<TRIPOS>MOLECULE
ZINC48356246_replica-1.pdb
 27 29 0 0 0
SMALL
GASTEIGER

@<TRIPOS>ATOM
       1  C1          4.0790   35.1490   54.7290  C.3       1 <0>        -0.1485
       2  C2          4.0000   36.3810   55.6330  C.3       1 <0>        -0.1191
       3  C3          4.6280   36.0600   56.9900  C.3       1 <0>        -0.0159
       4  C4          3.5630   35.5560   57.9300  C.2       1 <0>         0.1288
       5  N1          2.3530   36.0270   58.0500  N.2       1 <0>        -0.2976
       6  N2          1.7090   35.3650   58.9420  N.2       1 <0>        -0.3482
       7  C5          2.4790   34.4270   59.4450  C.2       1 <0>         0.3829
       8  S1          2.0370   33.2680   60.6950  S.3       1 <0>        -0.8157
       9  N3          3.6840   34.5170   58.8100  N.pl3     1 <0>        -0.4768
      10  C6          4.8640   33.6770   59.0300  C.3       1 <0>         0.1061
      11  C7          5.7930   34.3590   60.0000  C.2       1 <0>         0.5060
      12  O1          5.5470   34.3450   61.1880  O.2       1 <0>        -0.5135
      13  N4          6.8980   34.9850   59.5480  N.am      1 <0>        -0.7267
      14  C8          7.8010   35.6470   60.4920  C.3       1 <0>         0.1339
      15  C9          9.0080   36.2070   59.7350  C.3       1 <0>        -0.0253
      16  C10         9.8920   35.0520   59.2590  C.3       1 <0>        -0.1000
      17  C11        10.3770   34.2500   60.4680  C.3       1 <0>        -0.1256
      18  C12        11.1830   35.1610   61.3960  C.3       1 <0>        -0.1179
      19  C13        10.2990   36.3150   61.8710  C.3       1 <0>        -0.1241
      20  C14         9.8150   37.1180   60.6620  C.3       1 <0>        -0.1086
      21  C15         8.5310   36.9980   58.5440  C.ar      1 <0>        -0.0694
      22  C16         8.2470   38.3440   58.6760  C.ar      1 <0>        -0.1306
      23  C17         7.8090   39.0690   57.5840  C.ar      1 <0>        -0.1154
      24  C18         7.6570   38.4480   56.3580  C.ar      1 <0>        -0.1233
      25  C19         7.9410   37.1020   56.2250  C.ar      1 <0>        -0.0760
      26  C20         8.3840   36.3780   57.3170  C.ar      1 <0>        -0.1050
      27  C21         7.7750   36.4250   54.8890  C.3       1 <0>        -0.1179
@<TRIPOS>BOND
     1     1     2 1
     2     2     3 1
     3     3     4 1
     4     4     9 1
     5     4     5 2
     6     5     6 1
     7     6     7 2
     8     7     8 1
     9     7     9 1
    10     9    10 1
    11    10    11 1
    12    11    12 2
    13    11    13 am
    14    13    14 1
    15    14    15 1
    16    15    20 1
    17    15    16 1
    18    15    21 1
    19    16    17 1
    20    17    18 1
    21    18    19 1
    22    19    20 1
    23    21    26 ar
    24    21    22 ar
    25    22    23 ar
    26    23    24 ar
    27    24    25 ar
    28    25    26 ar
    29    25    27 1

@<TRIPOS>MOLECULE
ZINC52255592_replica-1.pdb
 20 20 0 0 0
SMALL
GASTEIGER

@<TRIPOS>ATOM
       1  C1          4.0710   35.7270   57.2590  C.3       1 <0>        -0.1518
       2  C2          4.4100   35.9930   58.7280  C.3       1 <0>         0.0569
       3  O1          5.6470   36.7040   58.8100  O.3       1 <0>        -0.3487
       4  C3          6.7430   35.9880   59.1050  C.2       1 <0>         0.4660
       5  O2          6.6570   35.0190   59.8230  O.2       1 <0>        -0.4853
       6  C4          8.0810   36.3920   58.5430  C.3       1 <0>        -0.1058
       7  C5          8.7980   37.3060   59.5380  C.3       1 <0>         0.1648
       8  C6          9.7650   36.4940   60.3610  C.ar      1 <0>        -0.1204
       9  C7         10.2380   36.9900   61.5600  C.ar      1 <0>        -0.1077
      10  C8         11.1260   36.2460   62.3160  C.ar      1 <0>        -0.1132
      11  C9         11.5380   35.0040   61.8700  C.ar      1 <0>        -0.0703
      12  C10        11.0640   34.5070   60.6710  C.ar      1 <0>        -0.1112
      13  C11        10.1740   35.2490   59.9180  C.ar      1 <0>        -0.1023
      14  C12        12.5060   34.1910   62.6920  C.3       1 <0>        -0.0594
      15  C13        11.9590   32.7740   62.8730  C.3       1 <0>        -0.1449
      16  C14        13.8570   34.1300   61.9760  C.3       1 <0>        -0.1456
      17  O3          7.8370   37.9180   60.4010  O.3       1 <0>        -0.5359
      18  C15         7.8760   37.1370   57.2230  C.3       1 <0>        -0.0861
      19  C16         8.7350   38.4030   57.2130  C.3       1 <0>        -0.1546
      20  C17         8.2880   36.2340   56.0580  C.3       1 <0>        -0.1568
@<TRIPOS>BOND
     1     1     2 1
     2     2     3 1
     3     3     4 1
     4     4     5 2
     5     4     6 1
     6     6     7 1
     7     6    18 1
     8     7     8 1
     9     7    17 1
    10     8    13 ar
    11     8     9 ar
    12     9    10 ar
    13    10    11 ar
    14    11    12 ar
    15    11    14 1
    16    12    13 ar
    17    14    15 1
    18    14    16 1
    19    18    19 1
    20    18    20 1

@<TRIPOS>MOLECULE
ZINC44725982_replica-1.pdb
 20 20 0 0 0
SMALL
GASTEIGER

@<TRIPOS>ATOM
       1  C1         12.6030   30.0870   64.5910  C.3       1 <0>        -0.1527
       2  C2         12.7570   30.8200   63.2570  C.3       1 <0>         0.0577
       3  O1         12.8140   32.2280   63.4910  O.3       1 <0>        -0.3863
       4  C3         11.7710   32.9660   62.8500  C.3       1 <0>         0.0521
       5  C4         12.3860   34.0150   61.9210  C.3       1 <0>         0.1446
       6  C5         13.8620   34.2050   62.2720  C.3       1 <0>        -0.1676
       7  N1         11.6770   35.2880   62.0850  N.pl3     1 <0>        -0.7205
       8  C6         10.6990   35.6660   61.1630  C.ar      1 <0>         0.2850
       9  C7         10.5580   34.9650   59.9720  C.ar      1 <0>        -0.2185
      10  C8          9.5880   35.3420   59.0620  C.ar      1 <0>         0.0390
      11  C9          8.7610   36.4160   59.3350  C.ar      1 <0>        -0.7149
      12  C10         8.9010   37.1160   60.5190  C.ar      1 <0>         0.0384
      13  C11         9.8630   36.7410   61.4360  C.ar      1 <0>        -0.2123
      14  S1          7.5290   36.8940   58.1700  S.o2      1 <0>         2.4912
      15  O2          7.8470   36.1710   56.9890  O.2       1 <0>        -0.8656
      16  O3          6.2940   36.6820   58.8410  O.2       1 <0>        -0.8658
      17  C12         7.8000   38.6690   57.9080  C.3       1 <0>        -0.0241
      18  F1          7.1420   39.3940   58.9090  F         1 <0>        -0.1588
      19  F2          9.1700   38.9440   57.9590  F         1 <0>        -0.1615
      20  F3          7.2960   39.0380   56.6570  F         1 <0>        -0.1590
@<TRIPOS>BOND
     1     1     2 1
     2     2     3 1
     3     3     4 1
     4     4     5 1
     5     5     6 1
     6     5     7 1
     7     7     8 1
     8     8    13 ar
     9     8     9 ar
    10     9    10 ar
    11    10    11 ar
    12    11    12 ar
    13    11    14 1
    14    12    13 ar
    15    14    15 2
    16    14    16 2
    17    14    17 1
    18    17    18 1
    19    17    19 1
    20    17    20 1

@<TRIPOS>MOLECULE
ZINC05788809_replica-1.pdb
 20 22 0 0 0
SMALL
GASTEIGER

@<TRIPOS>ATOM
       1  C1         -1.8920   27.4200   50.7320  C.3       1 <0>        -0.1197
       2  C2         -1.2340   27.3860   52.0870  C.ar      1 <0>        -0.0774
       3  C3         -1.3150   28.4810   52.8900  C.ar      1 <0>        -0.0586
       4  C4         -0.7100   28.4890   54.1710  C.ar      1 <0>         0.0793
       5  C5         -0.0330   27.3040   54.5460  C.ar      1 <0>        -0.1411
       6  C6          0.0420   26.2040   53.7280  C.ar      1 <0>        -0.0675
       7  C7         -0.5630   26.2390   52.4840  C.ar      1 <0>        -0.0578
       8  C8         -0.4930   25.0440   51.5700  C.3       1 <0>        -0.1182
       9  S1          0.5670   27.7090   56.1690  S.3       1 <0>        -0.0067
      10  C9         -0.0980   29.3670   56.2430  C.2       1 <0>         0.1909
      11  N1         -0.7040   29.4770   55.0770  N.2       1 <0>        -0.5024
      12  C10         0.0010   30.3510   57.3260  C.2       1 <0>        -0.0969
      13  C11         0.6310   31.5220   57.1150  C.2       1 <0>        -0.0287
      14  C12         0.7300   32.5110   58.2030  C.ar      1 <0>        -0.0554
      15  C13         0.5740   32.1080   59.5330  C.ar      1 <0>        -0.1126
      16  C14         0.6730   33.0360   60.5490  C.ar      1 <0>        -0.1025
      17  C15         0.9150   34.3660   60.2560  C.ar      1 <0>        -0.1346
      18  C16         1.0720   34.7760   58.9390  C.ar      1 <0>         0.1048
      19  C17         0.9800   33.8530   57.9100  C.ar      1 <0>        -0.1214
      20  O1          1.3150   36.0820   58.6580  O.3       1 <0>        -0.4982
@<TRIPOS>BOND
     1     1     2 1
     2     2     7 ar
     3     2     3 ar
     4     3     4 ar
     5     4    11 1
     6     4     5 ar
     7     5     6 ar
     8     5     9 1
     9     6     7 ar
    10     7     8 1
    11     9    10 1
    12    10    11 2
    13    10    12 1
    14    12    13 2
    15    13    14 1
    16    14    19 ar
    17    14    15 ar
    18    15    16 ar
    19    16    17 ar
    20    17    18 ar
    21    18    19 ar
    22    18    20 1

@<TRIPOS>MOLECULE
ZINC66367716_replica-1.pdb
 20 20 0 0 0
SMALL
GASTEIGER

@<TRIPOS>ATOM
       1  C1          4.1960   32.9320   58.5730  C.3       1 <0>        -0.1422
       2  C2          4.4050   32.5310   57.1120  C.3       1 <0>        -0.1375
       3  C3          4.9890   33.7130   56.3360  C.3       1 <0>         0.1661
       4  C4          3.9310   34.2680   55.3800  C.3       1 <0>        -0.1038
       5  C5          3.3090   35.5280   55.9850  C.3       1 <0>        -0.1462
       6  C6          4.5870   34.6160   54.0420  C.3       1 <0>        -0.1481
       7  N1          5.3940   34.7600   57.2770  N.am      1 <0>        -0.7375
       8  C7          6.6200   35.3130   57.1830  C.2       1 <0>         0.7090
       9  O1          7.3900   34.9410   56.3180  O.2       1 <0>        -0.5809
      10  N2          6.9940   36.2770   58.0470  N.am      1 <0>        -0.6254
      11  C8          6.0660   36.7250   59.0900  C.3       1 <0>         0.0689
      12  C9          8.3270   36.8770   57.9460  C.3       1 <0>         0.1953
      13  C10         8.2040   38.4020   57.9890  C.3       1 <0>        -0.1597
      14  C11         9.1780   36.4090   59.0980  C.ar      1 <0>        -0.1071
      15  C12         9.7760   35.1630   59.0530  C.ar      1 <0>        -0.0739
      16  C13        10.5570   34.7330   60.1080  C.ar      1 <0>        -0.1520
      17  C14        10.7400   35.5490   61.2120  C.ar      1 <0>         0.0995
      18  C15        10.1400   36.7960   61.2560  C.ar      1 <0>        -0.1544
      19  C16         9.3630   37.2270   60.1960  C.ar      1 <0>        -0.0860
      20  F1         11.5030   35.1300   62.2450  F         1 <0>        -0.1393
@<TRIPOS>BOND
     1     1     2 1
     2     2     3 1
     3     3     4 1
     4     3     7 1
     5     4     5 1
     6     4     6 1
     7     7     8 am
     8     8     9 2
     9     8    10 am
    10    10    11 1
    11    10    12 1
    12    12    13 1
    13    12    14 1
    14    14    19 ar
    15    14    15 ar
    16    15    16 ar
    17    16    17 ar
    18    17    18 ar
    19    17    20 1
    20    18    19 ar

@<TRIPOS>MOLECULE
ZINC04087618_replica-1.pdb
 28 29 0 0 0
SMALL
GASTEIGER

@<TRIPOS>ATOM
       1  C1         12.1850   32.5300   62.9540  C.3       1 <0>        -0.1504
       2  C2         12.8910   33.8790   63.1060  C.3       1 <0>        -0.0992
       3  C3         14.2130   33.8520   62.3360  C.3       1 <0>        -0.1508
       4  C4         11.9970   34.9880   62.5450  C.3       1 <0>        -0.1173
       5  C5         11.5520   34.6170   61.1290  C.3       1 <0>        -0.1216
       6  C6         10.0510   34.8730   60.9840  C.3       1 <0>        -0.0753
       7  C7          9.8150   36.3490   60.6560  C.3       1 <0>        -0.1491
       8  C8          9.0780   37.0180   61.8190  C.3       1 <0>        -0.0169
       9  C9          7.5680   37.4310   59.9720  C.3       1 <0>         0.0564
      10  C10         6.3650   36.6780   59.4660  C.ar      1 <0>        -0.2151
      11  C11         5.5500   36.0010   60.3540  C.ar      1 <0>        -0.0485
      12  C12         4.4440   35.3150   59.8930  C.ar      1 <0>        -0.1541
      13  C13         4.1570   35.2960   58.5360  C.ar      1 <0>         0.1766
      14  C14         4.9780   35.9730   57.6460  C.ar      1 <0>        -0.2144
      15  C15         6.0810   36.6610   58.1130  C.ar      1 <0>        -0.0465
      16  O1          3.0710   34.6180   58.0790  O.3       1 <0>        -0.3007
      17  C16         1.7900   35.1980   58.3330  C.3       1 <0>         0.0734
      18  C17         1.2190   35.7630   57.0310  C.3       1 <0>        -0.1812
      19  C18         0.8440   34.1280   58.8820  C.3       1 <0>        -0.1543
      20  C19         9.4930   34.0040   59.8540  C.3       1 <0>        -0.0926
      21  C20         9.3400   34.8500   58.5860  C.3       1 <0>        -0.1582
      22  C21         8.7090   33.9940   57.4850  C.3       1 <0>         0.0557
      23  O2          7.4500   33.4930   57.9360  O.3       1 <0>        -0.3683
      24  C22         7.5350   32.6560   59.0910  C.3       1 <0>         0.1099
      25  C23         8.1200   33.4570   60.2580  C.3       1 <0>        -0.1384
      26  C24         6.1380   32.1570   59.4660  C.3       1 <0>        -0.1433
      27  C25         8.4410   31.4590   58.7910  C.3       1 <0>        -0.1799
      28  N1          7.6730   37.2480   61.4320  N.4       1 <0>        -0.5199
@<TRIPOS>BOND
     1     1     2 1
     2     2     3 1
     3     2     4 1
     4     4     5 1
     5     5     6 1
     6     6     7 1
     7     6    20 1
     8     7     8 1
     9     8    28 1
    10     9    10 1
    11     9    28 1
    12    10    15 ar
    13    10    11 ar
    14    11    12 ar
    15    12    13 ar
    16    13    14 ar
    17    13    16 1
    18    14    15 ar
    19    16    17 1
    20    17    18 1
    21    17    19 1
    22    20    25 1
    23    20    21 1
    24    21    22 1
    25    22    23 1
    26    23    24 1
    27    24    25 1
    28    24    26 1
    29    24    27 1

@<TRIPOS>MOLECULE
ZINC15550444_replica-1.pdb
 23 24 0 0 0
SMALL
GASTEIGER

@<TRIPOS>ATOM
       1  C1          3.6630   32.6560   58.5050  C.3       1 <0>        -0.1477
       2  C2          2.7420   33.8780   58.4770  C.3       1 <0>        -0.0999
       3  C3          3.2340   34.8600   57.4110  C.3       1 <0>        -0.1151
       4  C4          2.3130   36.0830   57.3830  C.3       1 <0>        -0.1219
       5  C5          0.8880   35.6400   57.0490  C.3       1 <0>        -0.1174
       6  C6          0.3960   34.6570   58.1140  C.3       1 <0>        -0.1315
       7  C7          1.3160   33.4350   58.1440  C.3       1 <0>         0.1535
       8  N1          1.3020   32.7820   56.8330  N.am      1 <0>        -0.7236
       9  C8          0.5410   31.6860   56.6330  C.2       1 <0>         0.5129
      10  O1         -0.1310   31.2430   57.5410  O.2       1 <0>        -0.5230
      11  C9          0.5270   31.0140   55.2850  C.3       1 <0>         0.0385
      12  N2         -0.0980   29.6900   55.4050  N.3       1 <0>        -0.6578
      13  C10        -1.2050   29.5410   54.4500  C.3       1 <0>         0.1342
      14  C11        -0.9760   28.3150   53.6040  C.ar      1 <0>        -0.1246
      15  C12        -0.2410   27.2580   54.1040  C.ar      1 <0>        -0.0896
      16  C13        -0.0320   26.1330   53.3300  C.ar      1 <0>        -0.1476
      17  C14        -0.5590   26.0660   52.0520  C.ar      1 <0>         0.0974
      18  C15        -1.2960   27.1250   51.5510  C.ar      1 <0>        -0.1506
      19  C16        -1.5090   28.2480   52.3290  C.ar      1 <0>        -0.0808
      20  F1         -0.3550   24.9660   51.2930  F         1 <0>        -0.1388
      21  C17        -2.5220   29.3970   55.2140  C.3       1 <0>        -0.0784
      22  C18        -2.2700   28.6560   56.5290  C.3       1 <0>        -0.1368
      23  C19        -3.0940   30.7830   55.5110  C.3       1 <0>        -0.1502
@<TRIPOS>BOND
     1     1     2 1
     2     2     7 1
     3     2     3 1
     4     3     4 1
     5     4     5 1
     6     5     6 1
     7     6     7 1
     8     7     8 1
     9     8     9 am
    10     9    10 2
    11     9    11 1
    12    11    12 1
    13    12    13 1
    14    13    14 1
    15    13    21 1
    16    14    19 ar
    17    14    15 ar
    18    15    16 ar
    19    16    17 ar
    20    17    18 ar
    21    17    20 1
    22    18    19 ar
    23    21    22 1
    24    21    23 1

@<TRIPOS>MOLECULE
ZINC37206740_replica-1.pdb
 19 21 0 0 0
SMALL
GASTEIGER

@<TRIPOS>ATOM
       1  C1         -0.5840   24.6080   51.3640  C.3       1 <0>        -0.1169
       2  C2         -0.7740   25.9930   51.9270  C.ar      1 <0>        -0.0674
       3  C3         -1.5850   26.8930   51.2540  C.ar      1 <0>        -0.1069
       4  C4         -1.7610   28.1650   51.7700  C.ar      1 <0>        -0.0529
       5  C5         -1.1300   28.5150   52.9370  C.ar      1 <0>        -0.1685
       6  C6         -0.2960   27.6250   53.6500  C.ar      1 <0>         0.1173
       7  C7         -0.1440   26.3330   53.0970  C.ar      1 <0>        -0.0773
       8  N1          0.2540   28.1170   54.7810  N.2       1 <0>        -0.5573
       9  C8          0.0330   29.3430   55.1980  C.2       1 <0>         0.3907
      10  S1         -1.0620   29.9820   53.9380  S.3       1 <0>         0.0139
      11  N2          0.5200   29.9770   56.3230  N.pl3     1 <0>        -0.6072
      12  C9          0.0100   29.6560   57.5840  C.ar      1 <0>         0.2220
      13  C10         0.6030   30.1760   58.7280  C.ar      1 <0>        -0.2088
      14  C11         0.0970   29.8570   59.9750  C.ar      1 <0>         0.1738
      15  C12        -1.0010   29.0190   60.0840  C.ar      1 <0>        -0.2087
      16  C13        -1.5930   28.4990   58.9450  C.ar      1 <0>         0.1690
      17  C14        -1.0940   28.8200   57.6950  C.ar      1 <0>        -0.1910
      18  F1         -2.6640   27.6820   59.0540  F         1 <0>        -0.1208
      19  F2          0.6730   30.3620   61.0870  F         1 <0>        -0.1199
@<TRIPOS>BOND
     1     1     2 1
     2     2     7 ar
     3     2     3 ar
     4     3     4 ar
     5     4     5 ar
     6     5    10 1
     7     5     6 ar
     8     6     7 ar
     9     6     8 1
    10     8     9 2
    11     9    10 1
    12     9    11 1
    13    11    12 1
    14    12    17 ar
    15    12    13 ar
    16    13    14 ar
    17    14    15 ar
    18    14    19 1
    19    15    16 ar
    20    16    17 ar
    21    16    18 1

@<TRIPOS>MOLECULE
ZINC20727614_replica-1.pdb
 26 28 0 0 0
SMALL
GASTEIGER

@<TRIPOS>ATOM
       1  C1         10.6340   35.5370   61.4100  C.ar      1 <0>        -0.1041
       2  C2         10.5560   34.7310   60.2880  C.ar      1 <0>        -0.1205
       3  C3          9.8860   35.1700   59.1660  C.ar      1 <0>        -0.0945
       4  C4          9.2860   36.4300   59.1630  C.ar      1 <0>        -0.0113
       5  C5          9.3720   37.2400   60.2970  C.ar      1 <0>        -0.0675
       6  C6         10.0410   36.7870   61.4150  C.ar      1 <0>        -0.1206
       7  C7          8.5650   36.9070   57.9640  C.2       1 <0>         0.1557
       8  N1          7.9870   36.2100   56.9960  N.2       1 <0>        -0.4635
       9  C8          7.3870   36.8050   55.9920  C.2       1 <0>         0.0846
      10  C9          7.3410   38.1620   55.9370  C.2       1 <0>        -0.1979
      11  S1          8.2300   38.5820   57.4320  S.3       1 <0>        -0.0054
      12  C10         6.7440   35.9840   54.9030  C.3       1 <0>        -0.0773
      13  C11         5.7160   35.0640   55.5090  C.2       1 <0>         0.5151
      14  O1          5.5520   33.9520   55.0510  O.2       1 <0>        -0.5360
      15  N2          4.9800   35.4740   56.5610  N.am      1 <0>        -0.7324
      16  C12         3.9800   34.5800   57.1490  C.3       1 <0>         0.1301
      17  C13         3.6340   35.0600   58.5600  C.3       1 <0>        -0.0411
      18  C14         3.0790   33.8890   59.3750  C.3       1 <0>        -0.1180
      19  C15         1.8190   33.3470   58.6980  C.3       1 <0>        -0.1161
      20  C16         0.7680   34.4550   58.6150  C.3       1 <0>        -0.1146
      21  C17         1.3220   35.6250   57.8000  C.3       1 <0>        -0.1178
      22  C18         2.5810   36.1680   58.4780  C.3       1 <0>        -0.1189
      23  C19         4.8940   35.6030   59.2380  C.3       1 <0>        -0.1485
      24  C20         5.7510   34.4520   59.6990  C.2       1 <0>         0.4631
      25  O2          6.4420   33.8590   58.9060  O.co2     1 <0>        -0.6262
      26  O3          5.7440   34.0870   60.9900  O.co2     1 <0>        -0.7766
@<TRIPOS>BOND
     1     1     6 ar
     2     1     2 ar
     3     2     3 ar
     4     3     4 ar
     5     4     5 ar
     6     4     7 1
     7     5     6 ar
     8     7    11 1
     9     7     8 2
    10     8     9 1
    11     9    10 2
    12     9    12 1
    13    10    11 1
    14    12    13 1
    15    13    14 2
    16    13    15 am
    17    15    16 1
    18    16    17 1
    19    17    22 1
    20    17    18 1
    21    17    23 1
    22    18    19 1
    23    19    20 1
    24    20    21 1
    25    21    22 1
    26    23    24 1
    27    24    25 2
    28    24    26 1

@<TRIPOS>MOLECULE
ZINC00331910_replica-1.pdb
 26 29 0 0 0
SMALL
GASTEIGER

@<TRIPOS>ATOM
       1  C1         -0.2920   29.5730   60.0940  C.3       1 <0>        -0.0863
       2  C2         -0.1890   30.1230   58.6940  C.2       1 <0>         0.0088
       3  C3         -1.0430   29.8630   57.6920  C.2       1 <0>        -0.1034
       4  C4         -0.5550   30.6130   56.5250  C.2       1 <0>        -0.2077
       5  C5          0.5880   31.2720   56.9490  C.2       1 <0>         0.1011
       6  N1          0.7920   30.9640   58.2450  N.pl3     1 <0>        -0.3920
       7  C6          1.8550   31.4420   59.0220  C.ar      1 <0>         0.1403
       8  C7          1.7140   32.6170   59.7480  C.ar      1 <0>        -0.1186
       9  C8          2.7620   33.0870   60.5130  C.ar      1 <0>        -0.0743
      10  C9          3.9540   32.3880   60.5600  C.ar      1 <0>        -0.1428
      11  C10         4.0990   31.2150   59.8390  C.ar      1 <0>         0.1167
      12  C11         3.0510   30.7380   59.0730  C.ar      1 <0>        -0.1481
      13  F1          5.2660   30.5340   59.8860  F         1 <0>        -0.1296
      14  C12         1.4530   32.1740   56.1070  C.3       1 <0>        -0.1010
      15  C13        -1.1370   30.6560   55.2320  C.2       1 <0>         0.1496
      16  C14        -1.0620   29.5540   54.4060  C.2       1 <0>        -0.3255
      17  C15        -0.2940   28.3220   54.6540  C.2       1 <0>         0.4427
      18  O1          0.3950   28.0880   55.6290  O.2       1 <0>        -0.4179
      19  C16        -0.5140   27.4150   53.5000  C.ar      1 <0>        -0.1356
      20  C17        -0.0320   26.1380   53.2280  C.ar      1 <0>        -0.0656
      21  C18        -0.3890   25.4990   52.0530  C.ar      1 <0>        -0.1004
      22  C19        -1.2240   26.1230   51.1460  C.ar      1 <0>        -0.1020
      23  C20        -1.7140   27.3920   51.4020  C.ar      1 <0>        -0.0635
      24  C21        -1.3620   28.0480   52.5780  C.ar      1 <0>        -0.1383
      25  C22        -1.7280   29.3860   53.1040  C.2       1 <0>         0.4475
      26  O2         -2.4510   30.1980   52.5570  O.2       1 <0>        -0.4363
@<TRIPOS>BOND
     1     1     2 1
     2     2     6 1
     3     2     3 2
     4     3     4 1
     5     4     5 2
     6     4    15 1
     7     5     6 1
     8     5    14 1
     9     6     7 1
    10     7    12 ar
    11     7     8 ar
    12     8     9 ar
    13     9    10 ar
    14    10    11 ar
    15    11    12 ar
    16    11    13 1
    17    15    16 2
    18    16    25 1
    19    16    17 1
    20    17    18 2
    21    17    19 1
    22    19    24 ar
    23    19    20 ar
    24    20    21 ar
    25    21    22 ar
    26    22    23 ar
    27    23    24 ar
    28    24    25 1
    29    25    26 2

@<TRIPOS>MOLECULE
ZINC52254593_replica-1.pdb
 19 19 0 0 0
SMALL
GASTEIGER

@<TRIPOS>ATOM
       1  C1          0.0310   33.1800   57.7090  C.3       1 <0>        -0.1529
       2  C2          0.7640   31.8770   57.3800  C.3       1 <0>         0.0546
       3  O1         -0.0270   31.1010   56.4770  O.3       1 <0>        -0.3422
       4  C3         -0.1920   29.8020   56.7730  C.2       1 <0>         0.4645
       5  O2          0.2480   29.3580   57.8070  O.2       1 <0>        -0.4899
       6  C4         -0.9260   28.8990   55.8160  C.3       1 <0>        -0.1007
       7  C5         -2.4240   29.2010   55.8780  C.3       1 <0>        -0.1152
       8  C6         -3.0940   28.2550   56.8770  C.3       1 <0>        -0.1459
       9  C7         -2.6350   30.6480   56.3260  C.3       1 <0>        -0.1580
      10  C8         -0.4150   29.1410   54.3940  C.3       1 <0>         0.1981
      11  C9         -1.3100   30.1690   53.6990  C.3       1 <0>        -0.1583
      12  C10        -0.4450   27.8460   53.6230  C.ar      1 <0>        -0.1269
      13  C11         0.2040   26.7310   54.1190  C.ar      1 <0>        -0.0676
      14  C12         0.1780   25.5440   53.4120  C.ar      1 <0>        -0.1592
      15  C13        -0.5000   25.4720   52.2070  C.ar      1 <0>         0.1066
      16  C14        -1.1490   26.5890   51.7110  C.ar      1 <0>        -0.1555
      17  C15        -1.1260   27.7730   52.4220  C.ar      1 <0>        -0.0725
      18  F1         -0.5260   24.3110   51.5160  F         1 <0>        -0.1380
      19  O3          0.9250   29.6340   54.4470  O.3       1 <0>        -0.5448
@<TRIPOS>BOND
     1     1     2 1
     2     2     3 1
     3     3     4 1
     4     4     5 2
     5     4     6 1
     6     6     7 1
     7     6    10 1
     8     7     8 1
     9     7     9 1
    10    10    11 1
    11    10    12 1
    12    10    19 1
    13    12    17 ar
    14    12    13 ar
    15    13    14 ar
    16    14    15 ar
    17    15    16 ar
    18    15    18 1
    19    16    17 ar

@<TRIPOS>MOLECULE
ZINC62064652_replica-1.pdb
 25 26 0 0 0
SMALL
GASTEIGER

@<TRIPOS>ATOM
       1  C1          0.9040   35.7250   57.0380  C.3       1 <0>        -0.0879
       2  C2          2.4100   35.7290   56.9750  C.ar      1 <0>        -0.2052
       3  C3          3.0510   35.4850   55.7750  C.ar      1 <0>        -0.0785
       4  C4          4.4310   35.4880   55.7130  C.ar      1 <0>        -0.1854
       5  C5          5.1750   35.7370   56.8610  C.ar      1 <0>         0.2790
       6  C6          4.5270   35.9820   58.0650  C.ar      1 <0>        -0.2573
       7  C7          3.1470   35.9830   58.1180  C.ar      1 <0>        -0.0668
       8  N1          6.5700   35.7400   56.8020  N.2       1 <0>        -1.0996
       9  S1          7.3620   36.9530   55.9990  S.o2      1 <0>         2.5278
      10  O1          7.9240   36.3230   54.8560  O.2       1 <0>        -1.0237
      11  O2          6.3960   37.9850   55.8570  O.2       1 <0>        -1.0292
      12  C8          8.6780   37.4800   57.1320  C.3       1 <0>        -0.5799
      13  C9          8.3580   36.9940   58.5470  C.3       1 <0>        -0.0974
      14  C10         8.5200   38.1520   59.5340  C.3       1 <0>        -0.1723
      15  C11         9.3000   35.8780   58.9200  C.2       1 <0>         0.5264
      16  O3          9.5060   34.9720   58.1410  O.2       1 <0>        -0.5299
      17  N2          9.9150   35.8890   60.1200  N.am      1 <0>        -0.7358
      18  C12        10.8300   34.8050   60.4820  C.3       1 <0>         0.1249
      19  C13        11.5370   35.1520   61.7930  C.3       1 <0>        -0.0996
      20  C14        12.1590   33.9080   62.3740  C.2       1 <0>        -0.1180
      21  C15        11.3740   32.9340   62.7060  C.2       1 <0>        -0.1515
      22  C16        11.8440   31.6400   63.3050  C.3       1 <0>        -0.0902
      23  C17        13.3460   31.4670   63.0710  C.3       1 <0>        -0.1208
      24  C18        14.0560   32.7590   63.4960  C.3       1 <0>        -0.1209
      25  C19        13.6530   33.8720   62.5240  C.3       1 <0>        -0.0846
@<TRIPOS>BOND
     1     1     2 1
     2     2     7 ar
     3     2     3 ar
     4     3     4 ar
     5     4     5 ar
     6     5     6 ar
     7     5     8 1
     8     6     7 ar
     9     8     9 1
    10     9    10 2
    11     9    11 2
    12     9    12 1
    13    12    13 1
    14    13    14 1
    15    13    15 1
    16    15    16 2
    17    15    17 am
    18    17    18 1
    19    18    19 1
    20    19    20 1
    21    20    25 1
    22    20    21 2
    23    21    22 1
    24    22    23 1
    25    23    24 1
    26    24    25 1

@<TRIPOS>MOLECULE
ZINC05764799_replica-1.pdb
 24 25 0 0 0
SMALL
GASTEIGER

@<TRIPOS>ATOM
       1  C1         -1.8120   26.6820   57.7370  C.3       1 <0>        -0.1495
       2  C2         -2.7210   27.9130   57.7760  C.3       1 <0>        -0.1189
       3  C3         -2.4460   28.7890   56.5530  C.3       1 <0>        -0.1198
       4  C4         -1.5240   28.0420   55.5880  C.3       1 <0>        -0.0815
       5  C5         -0.4010   28.9750   55.1300  C.3       1 <0>        -0.2147
       6  C6         -1.0100   30.0500   54.2480  C.2       1 <0>         0.5549
       7  O1         -1.6280   29.7650   53.2320  O.2       1 <0>        -0.5563
       8  N1         -0.8430   31.3050   54.6220  N.2       1 <0>        -0.7455
       9  C7         -0.1750   31.6310   55.7230  C.2       1 <0>         0.6740
      10  N2         -0.0620   32.9610   56.0190  N.pl3     1 <0>        -0.6409
      11  C8          0.7280   33.3710   57.0980  C.ar      1 <0>         0.1869
      12  C9          2.0940   33.5570   56.9300  C.ar      1 <0>        -0.0982
      13  C10         2.8700   33.9630   57.9960  C.ar      1 <0>        -0.1040
      14  C11         2.2900   34.1840   59.2330  C.ar      1 <0>        -0.1499
      15  C12         0.9300   34.0000   59.4030  C.ar      1 <0>        -0.0793
      16  C13         0.1460   33.6010   58.3390  C.ar      1 <0>        -0.1600
      17  C14         0.3010   34.2430   60.7520  C.3       1 <0>        -0.1075
      18  N3          0.3910   30.7680   56.5570  N.2       1 <0>        -0.7347
      19  C15         0.3400   29.4630   56.3600  C.2       1 <0>         0.5506
      20  O2          0.8670   28.6810   57.1380  O.3       1 <0>        -0.5546
      21  C16         0.5770   28.1590   54.2820  C.3       1 <0>        -0.0821
      22  C17        -0.0240   26.7810   53.9940  C.3       1 <0>        -0.1195
      23  C18        -0.4110   26.6920   52.5160  C.3       1 <0>        -0.1191
      24  C19        -0.5510   25.2230   52.1140  C.3       1 <0>        -0.1495
@<TRIPOS>BOND
     1     1     2 1
     2     2     3 1
     3     3     4 1
     4     4     5 1
     5     5     6 1
     6     5    19 1
     7     5    21 1
     8     6     8 1
     9     6     7 2
    10     8     9 2
    11     9    10 1
    12     9    18 1
    13    10    11 1
    14    11    16 ar
    15    11    12 ar
    16    12    13 ar
    17    13    14 ar
    18    14    15 ar
    19    15    16 ar
    20    15    17 1
    21    18    19 2
    22    19    20 1
    23    21    22 1
    24    22    23 1
    25    23    24 1

@<TRIPOS>MOLECULE
ZINC07665802_replica-1.pdb
 22 22 0 0 0
SMALL
GASTEIGER

@<TRIPOS>ATOM
       1  C1          8.6160   32.2820   60.4110  C.3       1 <0>        -0.1213
       2  C2          9.5080   33.4200   60.8350  C.ar      1 <0>        -0.0564
       3  C3         10.6610   33.1640   61.5540  C.ar      1 <0>        -0.1292
       4  C4         11.4760   34.2080   61.9490  C.ar      1 <0>        -0.0522
       5  C5         11.1410   35.5090   61.6200  C.ar      1 <0>        -0.1236
       6  C6          9.9910   35.7650   60.8980  C.ar      1 <0>        -0.0555
       7  C7          9.1770   34.7200   60.5030  C.ar      1 <0>        -0.0936
       8  C8          7.9220   34.9990   59.7160  C.3       1 <0>        -0.0452
       9  S1          8.2830   34.8860   57.9450  S.3       1 <0>        -0.0486
      10  C9          6.6570   34.6360   57.3160  C.2       1 <0>         0.3764
      11  N1          5.8490   35.6500   57.1750  N.2       1 <0>        -0.5856
      12  C10         4.4550   35.4280   56.7840  C.3       1 <0>         0.0881
      13  C11         3.5320   35.8240   57.9380  C.3       1 <0>        -0.1314
      14  C12         4.1280   36.2770   55.5540  C.3       1 <0>         0.0728
      15  O1          3.7170   35.4250   54.4830  O.3       1 <0>        -0.3707
      16  C13         4.7680   34.6170   53.9490  C.3       1 <0>         0.0297
      17  N2          6.2390   33.3710   56.9750  N.pl3     1 <0>        -0.8717
      18  C14         9.6260   37.1820   60.5400  C.3       1 <0>        -0.1228
      19  C15        12.7310   33.9290   62.7360  C.3       1 <0>        -0.0309
      20  C16        13.9530   34.1540   61.8440  C.3       1 <0>        -0.1389
      21  C17        12.7970   34.8720   63.9390  C.3       1 <0>        -0.1451
      22  C18        12.7150   32.4790   63.2250  C.3       1 <0>        -0.1388
@<TRIPOS>BOND
     1     1     2 1
     2     2     7 ar
     3     2     3 ar
     4     3     4 ar
     5     4     5 ar
     6     4    19 1
     7     5     6 ar
     8     6     7 ar
     9     6    18 1
    10     7     8 1
    11     8     9 1
    12     9    10 1
    13    10    11 2
    14    10    17 1
    15    11    12 1
    16    12    13 1
    17    12    14 1
    18    14    15 1
    19    15    16 1
    20    19    20 1
    21    19    21 1
    22    19    22 1

@<TRIPOS>MOLECULE
ZINC37365404_replica-1.pdb
 20 20 0 0 0
SMALL
GASTEIGER

@<TRIPOS>ATOM
       1  C1          8.0020   36.4400   55.6790  C.3       1 <0>        -0.1556
       2  C2          7.7920   36.3830   57.1930  C.3       1 <0>        -0.1184
       3  C3          8.7040   37.4060   57.8740  C.3       1 <0>        -0.1007
       4  C4          8.5390   38.7670   57.1950  C.3       1 <0>        -0.1515
       5  C5          8.3250   37.5240   59.3510  C.3       1 <0>         0.1403
       6  C6          6.9460   38.1780   59.4730  C.3       1 <0>        -0.1737
       7  N1          8.2880   36.1900   59.9540  N.pl3     1 <0>        -0.7088
       8  C7          9.3990   35.7080   60.6520  C.ar      1 <0>         0.3088
       9  C8         10.2090   36.5850   61.3610  C.ar      1 <0>        -0.1975
      10  C9         11.3060   36.1050   62.0500  C.ar      1 <0>         0.0197
      11  C10        11.5970   34.7530   62.0330  C.ar      1 <0>        -0.2436
      12  C11        10.7930   33.8780   61.3280  C.ar      1 <0>         0.0416
      13  C12         9.6900   34.3500   60.6420  C.ar      1 <0>        -0.1299
      14  N2          8.8260   33.4120   59.8930  N.pl3     1 <0>         0.0423
      15  O1          8.1280   32.6250   60.4890  O.2       1 <0>        -0.1712
      16  O2          8.8180   33.4310   58.6840  O.3       1 <0>        -0.1406
      17  C13        12.7950   34.2320   62.7860  C.3       1 <0>         0.5193
      18  F1         13.9430   34.3900   62.0020  F         1 <0>        -0.1735
      19  F2         12.9430   34.9480   63.9800  F         1 <0>        -0.1742
      20  F3         12.6100   32.8760   63.0750  F         1 <0>        -0.1728
@<TRIPOS>BOND
     1     1     2 1
     2     2     3 1
     3     3     4 1
     4     3     5 1
     5     5     6 1
     6     5     7 1
     7     7     8 1
     8     8    13 ar
     9     8     9 ar
    10     9    10 ar
    11    10    11 ar
    12    11    12 ar
    13    11    17 1
    14    12    13 ar
    15    13    14 1
    16    14    15 2
    17    14    16 1
    18    17    18 1
    19    17    19 1
    20    17    20 1

@<TRIPOS>MOLECULE
ZINC35698988_replica-1.pdb
 25 26 0 0 0
SMALL
GASTEIGER

@<TRIPOS>ATOM
       1  C1          8.3510   38.6840   57.1820  C.3       1 <0>        -0.1980
       2  C2          7.5230   37.4170   57.4050  C.3       1 <0>         0.0304
       3  C3          8.0210   36.3120   56.4710  C.3       1 <0>        -0.1322
       4  C4          7.3790   34.9800   56.8690  C.3       1 <0>        -0.1445
       5  C5          7.6390   36.6510   55.0290  C.3       1 <0>        -0.1673
       6  N1          7.6630   36.9800   58.8000  N.4       1 <0>        -0.3891
       7  C6          8.8080   37.6650   59.4150  C.3       1 <0>         0.0440
       8  C7          9.6690   36.6580   60.1330  C.ar      1 <0>        -0.1511
       9  C8         10.2250   36.9730   61.3590  C.ar      1 <0>        -0.1043
      10  C9         11.0150   36.0500   62.0180  C.ar      1 <0>        -0.1096
      11  C10        11.2480   34.8110   61.4500  C.ar      1 <0>        -0.0419
      12  C11        10.6910   34.4950   60.2260  C.ar      1 <0>        -0.1153
      13  C12         9.8980   35.4170   59.5680  C.ar      1 <0>        -0.0817
      14  C13        12.1100   33.8040   62.1690  C.3       1 <0>        -0.0660
      15  C14        12.7600   34.4660   63.3860  C.3       1 <0>        -0.1462
      16  C15        11.2460   32.6280   62.6280  C.3       1 <0>        -0.1465
      17  C16         6.4390   37.3100   59.5410  C.3       1 <0>         0.1124
      18  C17         5.6980   36.0410   59.8780  C.2       1 <0>         0.0645
      19  N2          4.5170   35.7230   59.4450  N.2       1 <0>        -0.3937
      20  C18         4.1790   34.5090   59.9620  C.2       1 <0>        -0.0446
      21  C19         5.2240   34.1020   60.7380  C.2       1 <0>        -0.0055
      22  O1          6.1580   35.0620   60.6700  O.3       1 <0>        -0.1999
      23  C20         2.9270   33.7760   59.7270  C.2       1 <0>         0.5504
      24  O2          2.1760   33.5330   60.6640  O.co2     1 <0>        -0.6550
      25  O3          2.6340   33.4100   58.5980  O.co2     1 <0>        -0.6685
@<TRIPOS>BOND
     1     1     2 1
     2     2     3 1
     3     2     6 1
     4     3     4 1
     5     3     5 1
     6     6     7 1
     7     6    17 1
     8     7     8 1
     9     8    13 ar
    10     8     9 ar
    11     9    10 ar
    12    10    11 ar
    13    11    12 ar
    14    11    14 1
    15    12    13 ar
    16    14    15 1
    17    14    16 1
    18    17    18 1
    19    18    22 1
    20    18    19 2
    21    19    20 1
    22    20    21 2
    23    20    23 1
    24    21    22 1
    25    23    24 2
    26    23    25 1

@<TRIPOS>MOLECULE
ZINC37265295_replica-1.pdb
 19 19 0 0 0
SMALL
GASTEIGER

@<TRIPOS>ATOM
       1  C1          1.4310   28.3410   58.4790  C.3       1 <0>        -0.1728
       2  C2          0.2540   28.1630   57.5190  C.3       1 <0>         0.1363
       3  C3         -0.9190   29.0270   57.9850  C.3       1 <0>        -0.1253
       4  C4         -2.2070   28.2030   57.9460  C.3       1 <0>        -0.0987
       5  C5         -2.9930   28.5440   56.6770  C.3       1 <0>        -0.1502
       6  C6         -1.8600   26.7130   57.9440  C.3       1 <0>        -0.1497
       7  N1          0.6560   28.5730   56.1710  N.pl3     1 <0>        -0.7187
       8  C7          0.3140   27.7890   55.0750  C.ar      1 <0>         0.2974
       9  C8          0.6680   26.4460   55.0390  C.ar      1 <0>        -0.2009
      10  C9          0.3280   25.6700   53.9510  C.ar      1 <0>         0.0065
      11  C10        -0.3680   26.2210   52.8860  C.ar      1 <0>        -0.2480
      12  C11        -0.7280   27.5510   52.9040  C.ar      1 <0>         0.0327
      13  C12        -0.3950   28.3490   54.0010  C.ar      1 <0>        -0.1157
      14  C13        -0.7720   29.7300   54.0290  C.1       1 <0>         0.2531
      15  N2         -1.0710   30.8260   54.0500  N.1       1 <0>        -0.4126
      16  C14        -0.7320   25.3610   51.7040  C.3       1 <0>         0.5148
      17  F1          0.2750   25.4480   50.7360  F         1 <0>        -0.1774
      18  F2         -0.8660   24.0320   52.1180  F         1 <0>        -0.1775
      19  F3         -1.9420   25.8030   51.1590  F         1 <0>        -0.1775
@<TRIPOS>BOND
     1     1     2 1
     2     2     3 1
     3     2     7 1
     4     3     4 1
     5     4     5 1
     6     4     6 1
     7     7     8 1
     8     8    13 ar
     9     8     9 ar
    10     9    10 ar
    11    10    11 ar
    12    11    12 ar
    13    11    16 1
    14    12    13 ar
    15    13    14 1
    16    14    15 3
    17    16    17 1
    18    16    18 1
    19    16    19 1

@<TRIPOS>MOLECULE
ZINC29011050_replica-1.pdb
 22 22 0 0 0
SMALL
GASTEIGER

@<TRIPOS>ATOM
       1  C1          8.5990   38.7640   57.3750  C.3       1 <0>        -0.1480
       2  C2          8.5200   38.1060   58.7540  C.3       1 <0>        -0.0962
       3  C3          7.1120   38.2870   59.3250  C.3       1 <0>        -0.1423
       4  C4          8.8300   36.6140   58.6240  C.3       1 <0>         0.1923
       5  C5          9.6920   36.1760   59.7800  C.ar      1 <0>        -0.0899
       6  C6         10.2930   34.9310   59.7610  C.ar      1 <0>        -0.0861
       7  C7         11.0880   34.5320   60.8190  C.ar      1 <0>        -0.1487
       8  C8         11.2730   35.3740   61.9020  C.ar      1 <0>         0.0939
       9  C9         10.6660   36.6180   61.9220  C.ar      1 <0>        -0.1496
      10  C10         9.8760   37.0180   60.8610  C.ar      1 <0>        -0.0783
      11  F1         12.0450   34.9820   62.9390  F         1 <0>        -0.1413
      12  N1          7.5770   35.8530   58.6330  N.am      1 <0>        -0.7472
      13  C11         7.2730   35.0410   57.6020  C.2       1 <0>         0.5190
      14  O1          8.0390   34.9370   56.6670  O.2       1 <0>        -0.5155
      15  C12         5.9820   34.2640   57.6080  C.3       1 <0>        -0.1342
      16  C13         4.8680   35.1200   57.0030  C.3       1 <0>        -0.0220
      17  C14         3.9540   35.6300   58.1190  C.3       1 <0>        -0.1582
      18  C15         5.4830   36.3110   56.2640  C.3       1 <0>        -0.1580
      19  C16         4.0530   34.2760   56.0220  C.3       1 <0>        -0.1511
      20  C17         4.8270   34.1090   54.7380  C.2       1 <0>         0.4636
      21  O2          5.7770   33.3650   54.7000  O.co2     1 <0>        -0.6248
      22  O3          4.4620   34.7890   53.6410  O.co2     1 <0>        -0.7808
@<TRIPOS>BOND
     1     1     2 1
     2     2     3 1
     3     2     4 1
     4     4     5 1
     5     4    12 1
     6     5    10 ar
     7     5     6 ar
     8     6     7 ar
     9     7     8 ar
    10     8     9 ar
    11     8    11 1
    12     9    10 ar
    13    12    13 am
    14    13    14 2
    15    13    15 1
    16    15    16 1
    17    16    17 1
    18    16    18 1
    19    16    19 1
    20    19    20 1
    21    20    21 2
    22    20    22 1

@<TRIPOS>MOLECULE
ZINC10096214_replica-1.pdb
 26 29 0 0 0
SMALL
GASTEIGER

@<TRIPOS>ATOM
       1  C1          8.1840   33.6410   57.3000  C.3       1 <0>        -0.0693
       2  C2          6.8080   34.1800   57.6000  C.2       1 <0>         0.1419
       3  N1          5.6540   33.7060   57.2220  N.2       1 <0>        -0.5126
       4  C3          4.4830   34.2860   57.5600  C.ar      1 <0>         0.1419
       5  C4          4.6170   35.4470   58.3570  C.ar      1 <0>        -0.1482
       6  S1          6.3770   35.5790   58.5320  S.3       1 <0>         0.0596
       7  C5          3.5240   36.1620   58.7910  C.ar      1 <0>        -0.0515
       8  C6          2.2590   35.7800   58.4680  C.ar      1 <0>        -0.0440
       9  C7          2.0370   34.6250   57.6700  C.ar      1 <0>         0.1216
      10  C8          3.1680   33.9130   57.2430  C.ar      1 <0>        -0.1114
      11  S2          2.4570   32.5850   56.3020  S.3       1 <0>         0.0474
      12  C9          0.7450   33.0450   56.5300  C.2       1 <0>         0.3672
      13  N2          0.8440   34.1240   57.2690  N.2       1 <0>        -0.5045
      14  N3         -0.3960   32.4210   56.0480  N.am      1 <0>        -0.6200
      15  C10        -0.9050   31.3530   56.6930  C.2       1 <0>         0.5065
      16  O1         -0.3640   30.9360   57.6950  O.2       1 <0>        -0.4508
      17  C11        -2.1440   30.6750   56.1680  C.3       1 <0>        -0.0920
      18  C12        -1.7700   29.7430   55.0460  C.ar      1 <0>        -0.0820
      19  C13        -0.9870   28.6320   55.3020  C.ar      1 <0>        -0.0989
      20  C14        -0.6480   27.7740   54.2720  C.ar      1 <0>        -0.1132
      21  C15        -1.0840   28.0310   52.9860  C.ar      1 <0>        -0.0692
      22  C16        -1.8620   29.1440   52.7290  C.ar      1 <0>        -0.1168
      23  C17        -2.2050   30.0000   53.7580  C.ar      1 <0>        -0.0984
      24  C18        -0.7110   27.0970   51.8630  C.3       1 <0>        -0.0592
      25  C19        -0.4610   25.6970   52.4270  C.3       1 <0>        -0.1445
      26  C20        -1.8520   27.0410   50.8460  C.3       1 <0>        -0.1454
@<TRIPOS>BOND
     1     1     2 1
     2     2     6 1
     3     2     3 2
     4     3     4 1
     5     4    10 ar
     6     4     5 ar
     7     5     6 1
     8     5     7 ar
     9     7     8 ar
    10     8     9 ar
    11     9    13 1
    12     9    10 ar
    13    10    11 1
    14    11    12 1
    15    12    13 2
    16    12    14 1
    17    14    15 am
    18    15    16 2
    19    15    17 1
    20    17    18 1
    21    18    23 ar
    22    18    19 ar
    23    19    20 ar
    24    20    21 ar
    25    21    22 ar
    26    21    24 1
    27    22    23 ar
    28    24    25 1
    29    24    26 1

@<TRIPOS>MOLECULE
ZINC20560531_replica-1.pdb
 19 19 0 0 0
SMALL
GASTEIGER

@<TRIPOS>ATOM
       1  C1         -2.3520   27.0150   59.3730  C.3       1 <0>        -0.1564
       2  C2         -1.5280   28.2940   59.2230  C.3       1 <0>        -0.1202
       3  C3         -1.8390   28.9460   57.8730  C.3       1 <0>        -0.0928
       4  C4         -2.7940   28.0500   57.0820  C.3       1 <0>        -0.1513
       5  C5         -0.5410   29.1290   57.0850  C.3       1 <0>        -0.1232
       6  C6         -0.3830   27.9790   56.0880  C.3       1 <0>         0.1487
       7  C7          0.6680   26.9950   56.6070  C.3       1 <0>        -0.1403
       8  C8          0.0260   25.6200   56.8050  C.3       1 <0>        -0.1609
       9  N1          0.0440   28.5120   54.7920  N.pl3     1 <0>        -0.7427
      10  C9         -0.5000   27.9970   53.6120  C.ar      1 <0>         0.2770
      11  C10        -0.0890   26.7560   53.1400  C.ar      1 <0>        -0.2053
      12  C11        -0.6290   26.2500   51.9740  C.ar      1 <0>        -0.0432
      13  C12        -1.5790   26.9760   51.2780  C.ar      1 <0>        -0.1844
      14  C13        -1.9900   28.2110   51.7450  C.ar      1 <0>        -0.0270
      15  C14        -1.4530   28.7230   52.9100  C.ar      1 <0>        -0.2723
      16  C15        -1.9010   30.0690   53.4190  C.3       1 <0>         0.5121
      17  F1         -0.7820   30.8460   53.7320  F         1 <0>        -0.1770
      18  F2         -2.6550   30.7130   52.4300  F         1 <0>        -0.1803
      19  F3         -2.6860   29.8970   54.5640  F         1 <0>        -0.1807
@<TRIPOS>BOND
     1     1     2 1
     2     2     3 1
     3     3     4 1
     4     3     5 1
     5     5     6 1
     6     6     7 1
     7     6     9 1
     8     7     8 1
     9     9    10 1
    10    10    15 ar
    11    10    11 ar
    12    11    12 ar
    13    12    13 ar
    14    13    14 ar
    15    14    15 ar
    16    15    16 1
    17    16    17 1
    18    16    18 1
    19    16    19 1

@<TRIPOS>MOLECULE
ZINC41839046_replica-1.pdb
 20 21 0 0 0
SMALL
GASTEIGER

@<TRIPOS>ATOM
       1  C1         12.3390   34.2700   61.8780  C.3       1 <0>        -0.1469
       2  C2         11.5240   35.5320   62.1670  C.3       1 <0>        -0.0886
       3  C3         10.6110   35.8170   61.0030  C.ar      1 <0>        -0.0742
       4  C4         10.4170   34.8600   60.0250  C.ar      1 <0>        -0.1081
       5  C5          9.5780   35.1210   58.9580  C.ar      1 <0>        -0.0760
       6  C6          8.9330   36.3400   58.8680  C.ar      1 <0>        -0.0880
       7  C7          9.1260   37.2980   59.8470  C.ar      1 <0>        -0.1482
       8  C8          9.9610   37.0350   60.9170  C.ar      1 <0>        -0.1112
       9  C9          8.0200   36.6270   57.7050  C.3       1 <0>         0.0309
      10  C10         8.4530   35.7930   56.4980  C.3       1 <0>        -0.1244
      11  C11         7.8910   36.4170   55.2190  C.3       1 <0>        -0.1684
      12  C12         8.0950   38.0920   57.3560  C.2       1 <0>         0.5079
      13  O1          7.0830   38.7720   57.3620  O.co2     1 <0>        -0.6258
      14  O2          9.1670   38.5950   57.0680  O.co2     1 <0>        -0.6576
      15  N1          6.6390   36.2810   58.0680  N.4       1 <0>        -0.3617
      16  C13         6.2970   34.9310   57.5500  C.3       1 <0>        -0.0244
      17  C14         5.1130   34.4960   58.4500  C.3       1 <0>        -0.1372
      18  C15         5.5050   35.0610   59.8350  C.3       1 <0>        -0.1235
      19  C16         6.5040   36.1950   59.5390  C.3       1 <0>         0.0206
      20  C17         5.9700   37.5170   60.0910  C.3       1 <0>        -0.1862
@<TRIPOS>BOND
     1     1     2 1
     2     2     3 1
     3     3     8 ar
     4     3     4 ar
     5     4     5 ar
     6     5     6 ar
     7     6     7 ar
     8     6     9 1
     9     7     8 ar
    10     9    10 1
    11     9    12 1
    12     9    15 1
    13    10    11 1
    14    12    13 2
    15    12    14 1
    16    15    19 1
    17    15    16 1
    18    16    17 1
    19    17    18 1
    20    18    19 1
    21    19    20 1

@<TRIPOS>MOLECULE
ZINC37778998_replica-1.pdb
 20 21 0 0 0
SMALL
GASTEIGER

@<TRIPOS>ATOM
       1  C1         13.0470   34.3290   63.0010  C.3       1 <0>        -0.1076
       2  C2         11.8600   34.8310   62.2200  C.ar      1 <0>        -0.1092
       3  C3         11.4800   36.1560   62.3190  C.ar      1 <0>        -0.1058
       4  C4         10.3920   36.6220   61.6050  C.ar      1 <0>        -0.1663
       5  C5          9.6790   35.7580   60.7850  C.ar      1 <0>         0.1949
       6  C6         10.0640   34.4230   60.6850  C.ar      1 <0>         0.0588
       7  C7         11.1590   33.9650   61.4000  C.ar      1 <0>        -0.1635
       8  O1          9.3690   33.5720   59.8830  O.3       1 <0>        -0.3118
       9  C8          8.4770   32.6590   60.5270  C.3       1 <0>         0.0660
      10  C9          7.0540   32.8930   60.0170  C.3       1 <0>         0.0622
      11  O2          6.5360   34.0970   60.5840  O.3       1 <0>        -0.3843
      12  C10         5.1090   34.1580   60.6190  C.3       1 <0>         0.0303
      13  N1          8.5780   36.2270   60.0610  N.pl3     1 <0>        -0.7395
      14  C11         8.7720   36.8370   58.7430  C.3       1 <0>         0.1552
      15  C12         8.3140   38.2970   58.7840  C.3       1 <0>        -0.1345
      16  C13         8.5180   38.9330   57.4080  C.3       1 <0>        -0.1183
      17  C14         7.6970   38.1700   56.3660  C.3       1 <0>        -0.1168
      18  C15         8.1560   36.7100   56.3250  C.3       1 <0>        -0.0878
      19  C16         7.9520   36.0730   57.7010  C.3       1 <0>        -0.1203
      20  C17         7.3350   35.9470   55.2840  C.3       1 <0>        -0.1482
@<TRIPOS>BOND
     1     1     2 1
     2     2     7 ar
     3     2     3 ar
     4     3     4 ar
     5     4     5 ar
     6     5     6 ar
     7     5    13 1
     8     6     7 ar
     9     6     8 1
    10     8     9 1
    11     9    10 1
    12    10    11 1
    13    11    12 1
    14    13    14 1
    15    14    19 1
    16    14    15 1
    17    15    16 1
    18    16    17 1
    19    17    18 1
    20    18    19 1
    21    18    20 1

@<TRIPOS>MOLECULE
ZINC47353136_replica-1.pdb
 19 19 0 0 0
SMALL
GASTEIGER

@<TRIPOS>ATOM
       1  C1          7.7600   38.2020   58.2530  C.3       1 <0>        -0.1164
       2  C2          8.6630   37.1800   58.8950  C.ar      1 <0>        -0.0832
       3  C3          9.2200   37.4310   60.1340  C.ar      1 <0>        -0.1372
       4  C4         10.0480   36.4930   60.7250  C.ar      1 <0>         0.0890
       5  C5         10.3230   35.3020   60.0760  C.ar      1 <0>        -0.1399
       6  C6          9.7690   35.0460   58.8360  C.ar      1 <0>        -0.0862
       7  C7          8.9320   35.9830   58.2460  C.ar      1 <0>         0.1490
       8  N1          8.3640   35.7240   56.9910  N.am      1 <0>        -0.6806
       9  C8          7.3660   34.8270   56.8750  C.2       1 <0>         0.7077
      10  O1          6.9020   34.3020   57.8680  O.2       1 <0>        -0.5649
      11  N2          6.8820   34.5110   55.6570  N.am      1 <0>        -0.7387
      12  C9          5.7960   33.5360   55.5320  C.3       1 <0>         0.1567
      13  C10         4.6330   34.1640   54.7610  C.3       1 <0>        -0.1195
      14  S1          3.2150   34.3730   55.8720  S.3       1 <0>        -0.1349
      15  C11         3.3790   36.0750   56.4780  C.3       1 <0>         0.4662
      16  F1          3.7960   36.9050   55.4320  F         1 <0>        -0.1670
      17  F2          2.1440   36.5200   56.9620  F         1 <0>        -0.1445
      18  F3          4.3260   36.1150   57.5080  F         1 <0>        -0.1670
      19  F4         10.5920   36.7410   61.9380  F         1 <0>        -0.1388
@<TRIPOS>BOND
     1     1     2 1
     2     2     7 ar
     3     2     3 ar
     4     3     4 ar
     5     4     5 ar
     6     4    19 1
     7     5     6 ar
     8     6     7 ar
     9     7     8 1
    10     8     9 am
    11     9    10 2
    12     9    11 am
    13    11    12 1
    14    12    13 1
    15    13    14 1
    16    14    15 1
    17    15    16 1
    18    15    17 1
    19    15    18 1

@<TRIPOS>MOLECULE
ZINC63055991_replica-1.pdb
 19 20 0 0 0
SMALL
GASTEIGER

@<TRIPOS>ATOM
       1  C1          0.5230   32.3920   57.8140  C.3       1 <0>        -0.1556
       2  C2          1.4290   31.8960   56.6850  C.3       1 <0>        -0.1493
       3  C3          0.5730   31.4880   55.4850  C.3       1 <0>        -0.0109
       4  N1          0.7220   30.0470   55.2440  N.4       1 <0>        -0.5104
       5  C4         -0.6060   29.4300   55.1230  C.3       1 <0>         0.1950
       6  C5         -0.5240   28.2380   54.2050  C.ar      1 <0>        -0.1593
       7  C6          0.2070   27.1260   54.5790  C.ar      1 <0>        -0.0897
       8  C7          0.2820   26.0330   53.7390  C.ar      1 <0>        -0.1364
       9  C8         -0.3760   26.0490   52.5210  C.ar      1 <0>         0.1322
      10  C9         -1.1080   27.1630   52.1460  C.ar      1 <0>        -0.1030
      11  C10        -1.1860   28.2540   52.9910  C.ar      1 <0>        -0.0542
      12  C11        -1.8240   27.1840   50.8200  C.3       1 <0>        -0.1262
      13  F1         -0.3020   24.9800   51.6970  F         1 <0>        -0.1200
      14  C12        -1.0780   28.9860   56.4830  C.2       1 <0>        -0.1041
      15  C13        -2.2980   28.4970   56.7710  C.2       1 <0>        -0.1262
      16  C14        -2.3080   28.2110   58.1550  C.2       1 <0>        -0.2143
      17  C15        -1.0930   28.5410   58.6300  C.2       1 <0>         0.0387
      18  O1         -0.3510   29.0050   57.6120  O.3       1 <0>        -0.1795
      19  C16        -0.6410   28.4080   60.0610  C.3       1 <0>        -0.0876
@<TRIPOS>BOND
     1     1     2 1
     2     2     3 1
     3     3     4 1
     4     4     5 1
     5     5     6 1
     6     5    14 1
     7     6    11 ar
     8     6     7 ar
     9     7     8 ar
    10     8     9 ar
    11     9    10 ar
    12     9    13 1
    13    10    11 ar
    14    10    12 1
    15    14    18 1
    16    14    15 2
    17    15    16 1
    18    16    17 2
    19    17    18 1
    20    17    19 1

@<TRIPOS>MOLECULE
ZINC57341809_replica-1.pdb
 19 19 0 0 0
SMALL
GASTEIGER

@<TRIPOS>ATOM
       1  C1          4.0140   35.8240   57.5410  C.3       1 <0>        -0.1547
       2  C2          4.1900   36.0770   59.0410  C.3       1 <0>        -0.1200
       3  C3          5.6770   36.0260   59.3950  C.3       1 <0>        -0.0897
       4  C4          6.4650   35.4710   58.2070  C.3       1 <0>        -0.1504
       5  C5          6.1720   37.4360   59.7210  C.3       1 <0>        -0.1248
       6  C6          7.6340   37.5750   59.2920  C.3       1 <0>         0.1483
       7  C7          7.7880   38.8070   58.3980  C.3       1 <0>        -0.1392
       8  C8          8.5130   38.4140   57.1090  C.3       1 <0>        -0.1498
       9  N1          8.4800   37.7250   60.4790  N.pl3     1 <0>        -0.7404
      10  C9          9.4660   36.7730   60.7590  C.ar      1 <0>         0.1895
      11  C10         9.6650   35.7040   59.8970  C.ar      1 <0>        -0.1593
      12  C11        10.6400   34.7660   60.1760  C.ar      1 <0>        -0.1609
      13  C12        11.4200   34.8920   61.3150  C.ar      1 <0>         0.0728
      14  C13        11.2230   35.9600   62.1760  C.ar      1 <0>        -0.1036
      15  C14        10.2520   36.9020   61.8970  C.ar      1 <0>        -0.1591
      16  O1         12.3800   33.9680   61.5870  O.3       1 <0>        -0.3151
      17  C15        12.3120   33.3160   62.8570  C.3       1 <0>         0.0792
      18  C16        11.2090   32.2560   62.8260  C.3       1 <0>        -0.1806
      19  C17        13.6550   32.6470   63.1590  C.3       1 <0>        -0.1495
@<TRIPOS>BOND
     1     1     2 1
     2     2     3 1
     3     3     4 1
     4     3     5 1
     5     5     6 1
     6     6     7 1
     7     6     9 1
     8     7     8 1
     9     9    10 1
    10    10    15 ar
    11    10    11 ar
    12    11    12 ar
    13    12    13 ar
    14    13    14 ar
    15    13    16 1
    16    14    15 ar
    17    16    17 1
    18    17    18 1
    19    17    19 1

@<TRIPOS>MOLECULE
ZINC66381927_replica-1.pdb
 25 26 0 0 0
SMALL
GASTEIGER

@<TRIPOS>ATOM
       1  C1          3.4480   35.7550   58.7590  C.3       1 <0>        -0.1414
       2  C2          2.9770   36.0830   57.3410  C.3       1 <0>        -0.1369
       3  C3          4.0820   35.7310   56.3430  C.3       1 <0>         0.1671
       4  C4          3.5260   34.7790   55.2820  C.3       1 <0>        -0.1035
       5  C5          4.5180   34.6710   54.1220  C.3       1 <0>        -0.1476
       6  C6          3.3090   33.3960   55.8990  C.3       1 <0>        -0.1456
       7  N1          5.1880   35.0800   57.0500  N.am      1 <0>        -0.7414
       8  C7          6.4380   35.5750   56.9450  C.2       1 <0>         0.7069
       9  O1          6.6460   36.5600   56.2650  O.2       1 <0>        -0.5804
      10  N2          7.4560   34.9770   57.5950  N.am      1 <0>        -0.6111
      11  C8          8.8140   35.5140   57.4810  C.3       1 <0>         0.1867
      12  C9          9.3590   35.7940   58.8580  C.ar      1 <0>        -0.1368
      13  C10        10.1710   34.8670   59.4840  C.ar      1 <0>        -0.0552
      14  C11        10.6690   35.1240   60.7480  C.ar      1 <0>        -0.1592
      15  C12        10.3570   36.3080   61.3890  C.ar      1 <0>        -0.0783
      16  C13         9.5460   37.2370   60.7680  C.ar      1 <0>        -0.2134
      17  C14         9.0490   36.9850   59.4980  C.ar      1 <0>         0.1374
      18  O2          8.2550   37.9010   58.8830  O.3       1 <0>        -0.3119
      19  C15         7.0110   38.2110   59.5160  C.3       1 <0>         0.0251
      20  C16         7.2050   33.7880   58.4140  C.3       1 <0>         0.0935
      21  C17         7.7270   32.5480   57.6870  C.3       1 <0>         0.0639
      22  C18         6.5420   31.7250   57.1380  C.3       1 <0>        -0.1508
      23  C19         7.0060   30.2650   57.3950  C.3       1 <0>        -0.1555
      24  C20         7.7950   30.4370   58.7180  C.3       1 <0>         0.0491
      25  O3          8.4460   31.7140   58.6040  O.3       1 <0>        -0.3665
@<TRIPOS>BOND
     1     1     2 1
     2     2     3 1
     3     3     4 1
     4     3     7 1
     5     4     5 1
     6     4     6 1
     7     7     8 am
     8     8     9 2
     9     8    10 am
    10    10    11 1
    11    10    20 1
    12    11    12 1
    13    12    17 ar
    14    12    13 ar
    15    13    14 ar
    16    14    15 ar
    17    15    16 ar
    18    16    17 ar
    19    17    18 1
    20    18    19 1
    21    20    21 1
    22    21    25 1
    23    21    22 1
    24    22    23 1
    25    23    24 1
    26    24    25 1

@<TRIPOS>MOLECULE
ZINC62771963_replica-1.pdb
 20 21 0 0 0
SMALL
GASTEIGER

@<TRIPOS>ATOM
       1  C1          1.0130   28.4130   58.2210  C.3       1 <0>        -0.1725
       2  C2          0.1310   27.6680   57.2170  C.3       1 <0>         0.1493
       3  C3         -1.3410   27.8900   57.5680  C.3       1 <0>        -0.0480
       4  C4         -1.8540   29.1050   56.8380  C.2       1 <0>        -0.0144
       5  C5         -3.0150   29.1850   56.1610  C.2       1 <0>        -0.2066
       6  C6         -3.0940   30.4950   55.6370  C.2       1 <0>        -0.2133
       7  C7         -1.9780   31.1380   56.0250  C.2       1 <0>        -0.0384
       8  O1         -1.2340   30.2940   56.7560  O.3       1 <0>        -0.1742
       9  N1          0.3930   28.1740   55.8670  N.pl3     1 <0>        -0.7332
      10  C8          0.1340   27.3660   54.7560  C.ar      1 <0>         0.2148
      11  C9          0.5630   26.0460   54.7400  C.ar      1 <0>        -0.1416
      12  C10         0.3060   25.2500   53.6410  C.ar      1 <0>        -0.1016
      13  C11        -0.3800   25.7680   52.5550  C.ar      1 <0>         0.0862
      14  C12        -0.8090   27.0840   52.5680  C.ar      1 <0>        -0.1685
      15  C13        -0.5590   27.8820   53.6670  C.ar      1 <0>        -0.1258
      16  C14        -1.5550   27.6450   51.3850  C.3       1 <0>         0.5119
      17  F1         -2.1510   28.8590   51.7430  F         1 <0>        -0.1742
      18  F2         -0.6620   27.8570   50.3290  F         1 <0>        -0.1714
      19  F3         -2.5440   26.7390   50.9850  F         1 <0>        -0.1715
      20  F4         -0.6300   24.9880   51.4810  F         1 <0>        -0.1300
@<TRIPOS>BOND
     1     1     2 1
     2     2     3 1
     3     2     9 1
     4     3     4 1
     5     4     8 1
     6     4     5 2
     7     5     6 1
     8     6     7 2
     9     7     8 1
    10     9    10 1
    11    10    15 ar
    12    10    11 ar
    13    11    12 ar
    14    12    13 ar
    15    13    14 ar
    16    13    20 1
    17    14    15 ar
    18    14    16 1
    19    16    17 1
    20    16    18 1
    21    16    19 1

@<TRIPOS>MOLECULE
ZINC45170349_replica-1.pdb
 20 21 0 0 0
SMALL
GASTEIGER

@<TRIPOS>ATOM
       1  C1          0.5920   23.3900   55.7830  C.3       1 <0>        -0.1550
       2  C2          0.6100   24.2220   54.4990  C.3       1 <0>        -0.1201
       3  C3          0.6020   25.7100   54.8550  C.3       1 <0>        -0.0729
       4  C4         -0.1170   26.4820   53.7790  C.ar      1 <0>        -0.1608
       5  C5         -0.3520   25.8970   52.5500  C.ar      1 <0>        -0.0699
       6  C6         -1.0110   26.6040   51.5620  C.ar      1 <0>        -0.1795
       7  C7         -1.4390   27.8980   51.8000  C.ar      1 <0>        -0.0758
       8  C8         -1.2070   28.4880   53.0270  C.ar      1 <0>        -0.1994
       9  C9         -0.5500   27.7780   54.0240  C.ar      1 <0>         0.2240
      10  N1         -0.3190   28.3700   55.2680  N.pl3     1 <0>        -0.7397
      11  C10        -1.1830   29.4560   55.7350  C.3       1 <0>         0.2314
      12  C11        -2.6090   28.9330   55.9160  C.3       1 <0>        -0.1632
      13  C12        -0.6680   29.9780   57.0510  C.2       1 <0>        -0.2490
      14  C13        -0.6940   29.2970   58.2730  C.2       1 <0>         0.0857
      15  N2         -0.1600   30.0710   59.1830  N.2       1 <0>        -0.2928
      16  N3          0.2240   31.2690   58.5680  N.pl3     1 <0>        -0.3713
      17  C14        -0.0930   31.1850   57.2600  C.2       1 <0>         0.1004
      18  C15         0.1450   32.2480   56.2170  C.3       1 <0>        -0.0974
      19  C16         0.8630   32.4100   59.2280  C.3       1 <0>         0.0995
      20  C17        -1.2440   27.9130   58.5010  C.3       1 <0>        -0.0838
@<TRIPOS>BOND
     1     1     2 1
     2     2     3 1
     3     3     4 1
     4     4     9 ar
     5     4     5 ar
     6     5     6 ar
     7     6     7 ar
     8     7     8 ar
     9     8     9 ar
    10     9    10 1
    11    10    11 1
    12    11    12 1
    13    11    13 1
    14    13    17 2
    15    13    14 1
    16    14    15 2
    17    14    20 1
    18    15    16 1
    19    16    17 1
    20    16    19 1
    21    17    18 1

@<TRIPOS>MOLECULE
ZINC65620775_replica-1.pdb
 26 28 0 0 0
SMALL
GASTEIGER

@<TRIPOS>ATOM
       1  C1         -0.4700   24.8710   51.5180  C.3       1 <0>        -0.1146
       2  C2         -0.5960   26.1560   52.2950  C.ar      1 <0>        -0.0856
       3  C3          0.1130   26.3260   53.4700  C.ar      1 <0>        -0.1263
       4  C4         -0.0020   27.5050   54.1830  C.ar      1 <0>        -0.1053
       5  C5         -0.8260   28.5140   53.7200  C.ar      1 <0>        -0.0873
       6  C6         -1.5340   28.3450   52.5450  C.ar      1 <0>        -0.0721
       7  C7         -1.4150   27.1680   51.8310  C.ar      1 <0>        -0.1206
       8  C8         -2.4310   29.4460   52.0410  C.3       1 <0>        -0.1232
       9  C9         -0.9520   29.7990   54.4970  C.3       1 <0>        -0.0928
      10  C10         0.0080   29.7720   55.6880  C.3       1 <0>         0.1249
      11  N1          1.0360   30.8000   55.5090  N.am      1 <0>        -0.7343
      12  C11         1.1760   31.7800   56.4250  C.2       1 <0>         0.5278
      13  O1          0.4520   31.8090   57.3970  O.2       1 <0>        -0.5344
      14  C12         2.2350   32.8370   56.2410  C.3       1 <0>        -0.1540
      15  C13         1.7110   34.1770   56.7620  C.3       1 <0>         0.1407
      16  N2          2.7410   34.8170   57.5850  N.pl3     1 <0>        -0.4891
      17  C14         2.8600   34.7660   58.9560  C.2       1 <0>         0.1781
      18  N3          3.9190   35.4760   59.2760  N.2       1 <0>        -0.2575
      19  N4          4.4620   35.9580   58.2160  N.2       1 <0>        -0.3349
      20  C15         3.7870   35.5830   57.1530  C.2       1 <0>         0.3831
      21  S1          4.1590   35.9940   55.4810  S.3       1 <0>        -0.7897
      22  C16         1.9690   34.0540   59.8870  C.2       1 <0>        -0.0385
      23  C17         0.7290   34.4200   60.3480  C.2       1 <0>        -0.1447
      24  C18         0.0770   33.5820   61.2260  C.2       1 <0>        -0.1434
      25  C19         0.6780   32.4250   61.6050  C.2       1 <0>        -0.1949
      26  S2          2.2170   32.4860   60.7040  S.3       1 <0>         0.0516
@<TRIPOS>BOND
     1     1     2 1
     2     2     7 ar
     3     2     3 ar
     4     3     4 ar
     5     4     5 ar
     6     5     6 ar
     7     5     9 1
     8     6     7 ar
     9     6     8 1
    10     9    10 1
    11    10    11 1
    12    11    12 am
    13    12    13 2
    14    12    14 1
    15    14    15 1
    16    15    16 1
    17    16    20 1
    18    16    17 1
    19    17    18 2
    20    17    22 1
    21    18    19 1
    22    19    20 2
    23    20    21 1
    24    22    26 1
    25    22    23 2
    26    23    24 1
    27    24    25 2
    28    25    26 1

@<TRIPOS>MOLECULE
ZINC39460572_replica-1.pdb
 25 26 0 0 0
SMALL
GASTEIGER

@<TRIPOS>ATOM
       1  C1          1.9950   36.0220   57.5370  C.3       1 <0>        -0.1218
       2  C2          2.6900   35.1950   58.5890  C.2       1 <0>        -0.1050
       3  C3          1.9990   34.2670   59.2310  C.2       1 <0>        -0.1195
       4  C4          2.6580   33.4510   60.2700  C.2       1 <0>         0.1200
       5  N1          3.8730   33.8990   60.8050  N.am      1 <0>        -0.6596
       6  C5          4.5730   34.8560   60.1760  C.2       1 <0>         0.5260
       7  O1          5.6000   35.2540   60.6850  O.2       1 <0>        -0.5276
       8  C6          4.1400   35.4480   58.8690  C.3       1 <0>        -0.0810
       9  C7          4.9770   34.8390   57.7410  C.3       1 <0>         0.1387
      10  N2          6.3970   35.0900   57.9970  N.am      1 <0>        -0.7339
      11  C8          7.0530   36.0330   57.2900  C.2       1 <0>         0.5149
      12  O2          6.4660   36.6730   56.4440  O.2       1 <0>        -0.5393
      13  C9          8.5130   36.2920   57.5540  C.3       1 <0>        -0.1339
      14  C10         8.6630   37.1110   58.8380  C.3       1 <0>        -0.0634
      15  C11         9.5840   36.3900   59.7890  C.ar      1 <0>        -0.0888
      16  C12        10.0230   35.1140   59.4920  C.ar      1 <0>        -0.1131
      17  C13        10.8670   34.4530   60.3650  C.ar      1 <0>        -0.1134
      18  C14        11.2720   35.0690   61.5350  C.ar      1 <0>        -0.0719
      19  C15        10.8330   36.3470   61.8300  C.ar      1 <0>        -0.1190
      20  C16         9.9920   37.0090   60.9560  C.ar      1 <0>        -0.1133
      21  C17        12.1910   34.3490   62.4860  C.3       1 <0>        -0.0309
      22  C18        12.3300   35.1600   63.7750  C.3       1 <0>        -0.1388
      23  C19        11.6110   32.9710   62.8120  C.3       1 <0>        -0.1452
      24  C20        13.5680   34.1830   61.8380  C.3       1 <0>        -0.1391
      25  C21         2.1080   32.3100   60.6920  C.2       1 <0>        -0.2166
@<TRIPOS>BOND
     1     1     2 1
     2     2     8 1
     3     2     3 2
     4     3     4 1
     5     4     5 1
     6     4    25 2
     7     5     6 am
     8     6     7 2
     9     6     8 1
    10     8     9 1
    11     9    10 1
    12    10    11 am
    13    11    12 2
    14    11    13 1
    15    13    14 1
    16    14    15 1
    17    15    20 ar
    18    15    16 ar
    19    16    17 ar
    20    17    18 ar
    21    18    19 ar
    22    18    21 1
    23    19    20 ar
    24    21    22 1
    25    21    23 1
    26    21    24 1

@<TRIPOS>MOLECULE
ZINC64326885_replica-1.pdb
 23 23 0 0 0
SMALL
GASTEIGER

@<TRIPOS>ATOM
       1  C1         -0.7190   31.4310   55.2370  C.3       1 <0>        -0.1626
       2  C2         -0.2110   30.4840   56.3260  C.3       1 <0>         0.1748
       3  C3         -1.1270   29.2910   56.4220  C.2       1 <0>         0.4639
       4  O1         -1.6840   29.0400   57.4640  O.2       1 <0>        -0.4914
       5  O2         -1.3250   28.5080   55.3500  O.3       1 <0>        -0.3351
       6  C4         -0.1620   28.0140   54.6840  C.3       1 <0>         0.1303
       7  C5          0.5520   27.0050   55.5850  C.3       1 <0>        -0.1665
       8  C6         -0.5670   27.3400   53.3980  C.ar      1 <0>        -0.1001
       9  C7         -0.2400   26.0140   53.1810  C.ar      1 <0>        -0.1028
      10  C8         -0.6120   25.3950   51.9990  C.ar      1 <0>         0.0930
      11  C9         -1.3100   26.1040   51.0360  C.ar      1 <0>        -0.1191
      12  C10        -1.6360   27.4290   51.2530  C.ar      1 <0>        -0.1206
      13  C11        -1.2690   28.0460   52.4370  C.ar      1 <0>         0.1016
      14  F1         -1.5910   29.3410   52.6520  F         1 <0>        -0.1290
      15  F2         -0.2920   24.1000   51.7860  F         1 <0>        -0.1303
      16  N1         -0.1870   31.1860   57.6110  N.am      1 <0>        -0.7021
      17  C12         0.9790   31.6540   58.1010  C.2       1 <0>         0.6597
      18  O3          2.0080   31.4940   57.4760  O.2       1 <0>        -0.5606
      19  O4          1.0000   32.3000   59.2830  O.3       1 <0>        -0.3536
      20  C13         1.0520   33.7270   59.2410  C.3       1 <0>         0.1341
      21  C14         0.3970   34.2990   60.5000  C.3       1 <0>        -0.1865
      22  C15         2.5110   34.1830   59.1720  C.3       1 <0>        -0.1414
      23  C16         0.3020   34.2280   58.0030  C.3       1 <0>        -0.1871
@<TRIPOS>BOND
     1     1     2 1
     2     2     3 1
     3     2    16 1
     4     3     4 2
     5     3     5 1
     6     5     6 1
     7     6     7 1
     8     6     8 1
     9     8    13 ar
    10     8     9 ar
    11     9    10 ar
    12    10    11 ar
    13    10    15 1
    14    11    12 ar
    15    12    13 ar
    16    13    14 1
    17    16    17 am
    18    17    18 2
    19    17    19 1
    20    19    20 1
    21    20    21 1
    22    20    22 1
    23    20    23 1

@<TRIPOS>MOLECULE
ZINC46769001_replica-1.pdb
 27 30 0 0 0
SMALL
GASTEIGER

@<TRIPOS>ATOM
       1  C1          3.7710   35.6140   54.8760  C.3       1 <0>        -0.1611
       2  C2          3.0940   35.2590   56.2020  C.3       1 <0>         0.1859
       3  C3          4.1290   35.2030   57.2950  C.ar      1 <0>        -0.0996
       4  C4          5.3230   34.5400   57.0830  C.ar      1 <0>        -0.1258
       5  C5          6.2740   34.4890   58.0880  C.ar      1 <0>         0.1002
       6  C6          6.0290   35.1020   59.3050  C.ar      1 <0>        -0.1222
       7  C7          4.8350   35.7640   59.5180  C.ar      1 <0>        -0.1156
       8  C8          3.8860   35.8200   58.5110  C.ar      1 <0>         0.1030
       9  F1          2.7210   36.4720   58.7160  F         1 <0>        -0.1265
      10  F2          7.4410   33.8410   57.8820  F         1 <0>        -0.1302
      11  N1          2.4400   33.9540   56.0810  N.am      1 <0>        -0.7172
      12  C9          1.2250   33.7560   56.6320  C.2       1 <0>         0.6098
      13  O1          0.6730   34.6610   57.2290  O.2       1 <0>        -0.5027
      14  C10         0.5700   32.4490   56.5120  C.2       1 <0>        -0.0526
      15  C11        -0.2120   31.8480   57.4720  C.2       1 <0>        -0.1126
      16  C12        -0.6310   30.6220   56.9460  C.2       1 <0>        -0.1315
      17  C13        -0.0880   30.5200   55.6850  C.2       1 <0>         0.0749
      18  O2          0.6270   31.6330   55.4400  O.3       1 <0>        -0.1498
      19  C14        -0.2650   29.3890   54.7600  C.2       1 <0>         0.2101
      20  N2         -0.9480   29.3400   53.6360  N.2       1 <0>        -0.4736
      21  C15        -1.0250   28.2330   52.8840  C.ar      1 <0>         0.0764
      22  C16        -1.7220   28.0500   51.6640  C.ar      1 <0>        -0.0511
      23  C17        -1.6980   26.8530   51.0220  C.ar      1 <0>        -0.1118
      24  C18        -0.9980   25.7650   51.5280  C.ar      1 <0>        -0.0822
      25  C19        -0.3040   25.9010   52.7160  C.ar      1 <0>        -0.0701
      26  C20        -0.3210   27.1070   53.3750  C.ar      1 <0>        -0.1381
      27  S1          0.4000   27.7330   54.8720  S.3       1 <0>         0.0303
@<TRIPOS>BOND
     1     1     2 1
     2     2     3 1
     3     2    11 1
     4     3     8 ar
     5     3     4 ar
     6     4     5 ar
     7     5     6 ar
     8     5    10 1
     9     6     7 ar
    10     7     8 ar
    11     8     9 1
    12    11    12 am
    13    12    13 2
    14    12    14 1
    15    14    18 1
    16    14    15 2
    17    15    16 1
    18    16    17 2
    19    17    18 1
    20    17    19 1
    21    19    27 1
    22    19    20 2
    23    20    21 1
    24    21    26 ar
    25    21    22 ar
    26    22    23 ar
    27    23    24 ar
    28    24    25 ar
    29    25    26 ar
    30    26    27 1

@<TRIPOS>MOLECULE
ZINC52255894_replica-1.pdb
 20 20 0 0 0
SMALL
GASTEIGER

@<TRIPOS>ATOM
       1  C1          3.3320   35.8710   58.1990  C.3       1 <0>        -0.1523
       2  C2          4.0950   35.4550   56.9400  C.3       1 <0>         0.0601
       3  O1          5.3180   36.1910   56.8590  O.3       1 <0>        -0.3557
       4  C3          6.3860   35.6700   57.4820  C.2       1 <0>         0.4585
       5  O2          6.8840   34.6480   57.0730  O.2       1 <0>        -0.4687
       6  C4          6.9650   36.3590   58.6900  C.3       1 <0>        -0.1044
       7  C5          6.9560   35.3950   59.8800  C.3       1 <0>        -0.0842
       8  C6          6.0500   35.9520   60.9800  C.3       1 <0>        -0.1608
       9  C7          6.4300   34.0320   59.4270  C.3       1 <0>        -0.1518
      10  C8          8.4020   36.7890   58.3930  C.3       1 <0>         0.1998
      11  C9          9.3120   36.2920   59.4870  C.ar      1 <0>        -0.1218
      12  C10         9.9350   35.0640   59.3640  C.ar      1 <0>        -0.0941
      13  C11        10.7690   34.6080   60.3670  C.ar      1 <0>        -0.1318
      14  C12        10.9810   35.3800   61.4940  C.ar      1 <0>        -0.1112
      15  C13        10.3580   36.6090   61.6180  C.ar      1 <0>        -0.1254
      16  C14         9.5280   37.0660   60.6120  C.ar      1 <0>        -0.0977
      17  C15         8.4740   38.3150   58.3250  C.3       1 <0>        -0.0796
      18  C16         8.5820   38.7550   56.8620  C.3       1 <0>        -0.1526
      19  C17         7.2120   38.9150   58.9460  C.3       1 <0>        -0.1584
      20  O3          8.8160   36.2350   57.1430  O.3       1 <0>        -0.5284
@<TRIPOS>BOND
     1     1     2 1
     2     2     3 1
     3     3     4 1
     4     4     5 2
     5     4     6 1
     6     6     7 1
     7     6    10 1
     8     7     8 1
     9     7     9 1
    10    10    11 1
    11    10    17 1
    12    10    20 1
    13    11    16 ar
    14    11    12 ar
    15    12    13 ar
    16    13    14 ar
    17    14    15 ar
    18    15    16 ar
    19    17    18 1
    20    17    19 1

@<TRIPOS>MOLECULE
ZINC04581089_replica-1.pdb
 27 30 0 0 0
SMALL
GASTEIGER

@<TRIPOS>ATOM
       1  C1         13.1490   34.1600   63.1940  C.3       1 <0>        -0.1498
       2  C2         12.1710   35.1270   62.5250  C.3       1 <0>         0.0537
       3  O1         11.6060   34.5090   61.3670  O.3       1 <0>        -0.3218
       4  C3         10.6920   35.2290   60.6660  C.ar      1 <0>         0.1185
       5  C4         10.2640   36.4600   61.1430  C.ar      1 <0>        -0.2129
       6  C5          9.3340   37.1900   60.4280  C.ar      1 <0>        -0.0191
       7  C6          8.8310   36.6960   59.2390  C.ar      1 <0>        -0.1037
       8  C7          9.2550   35.4700   58.7620  C.ar      1 <0>        -0.0853
       9  C8         10.1890   34.7380   59.4700  C.ar      1 <0>        -0.1618
      10  C9          7.8170   37.4950   58.4620  C.3       1 <0>         0.2059
      11  C10         8.5000   38.1610   57.2660  C.3       1 <0>        -0.1859
      12  C11         7.9070   37.6270   55.9880  C.2       1 <0>         0.4991
      13  O2          8.3170   36.5820   55.5140  O.co2     1 <0>        -0.6905
      14  O3          7.0160   38.2420   55.4260  O.co2     1 <0>        -0.7043
      15  N1          6.7560   36.6050   57.9840  N.am      1 <0>        -0.7229
      16  C12         5.6060   36.4920   58.6800  C.2       1 <0>         0.5185
      17  O4          5.4860   37.0550   59.7470  O.2       1 <0>        -0.5360
      18  C13         4.4720   35.6660   58.1320  C.3       1 <0>        -0.0693
      19  C14         4.7470   34.1840   58.3970  C.3       1 <0>        -0.1005
      20  C15         3.5950   33.3440   57.8410  C.3       1 <0>        -0.0833
      21  C16         2.2900   33.7520   58.5270  C.3       1 <0>        -0.1082
      22  C17         2.0150   35.2340   58.2620  C.3       1 <0>        -0.0863
      23  C18         3.1660   36.0720   58.8190  C.3       1 <0>        -0.0872
      24  C19         1.8940   35.4690   56.7550  C.3       1 <0>        -0.1087
      25  C20         3.1990   35.0610   56.0690  C.3       1 <0>        -0.0836
      26  C21         3.4730   33.5800   56.3330  C.3       1 <0>        -0.1082
      27  C22         4.3510   35.9010   56.6250  C.3       1 <0>        -0.1009
@<TRIPOS>BOND
     1     1     2 1
     2     2     3 1
     3     3     4 1
     4     4     9 ar
     5     4     5 ar
     6     5     6 ar
     7     6     7 ar
     8     7     8 ar
     9     7    10 1
    10     8     9 ar
    11    10    11 1
    12    10    15 1
    13    11    12 1
    14    12    13 2
    15    12    14 1
    16    15    16 am
    17    16    17 2
    18    16    18 1
    19    18    23 1
    20    18    27 1
    21    18    19 1
    22    19    20 1
    23    20    26 1
    24    20    21 1
    25    21    22 1
    26    22    23 1
    27    22    24 1
    28    24    25 1
    29    25    26 1
    30    25    27 1

@<TRIPOS>MOLECULE
ZINC27922718_replica-1.pdb
 27 30 0 0 0
SMALL
GASTEIGER

@<TRIPOS>ATOM
       1  C1          2.0260   35.9220   57.2080  C.3       1 <0>        -0.1009
       2  C2          2.9550   35.3870   58.2670  C.2       1 <0>        -0.0335
       3  C3          4.0760   36.0790   58.6520  C.2       1 <0>        -0.1750
       4  C4          4.8860   35.5510   59.6060  C.2       1 <0>        -0.1763
       5  S1          4.1000   34.0610   60.0130  S.3       1 <0>         0.1268
       6  C5          2.7110   34.1780   58.9000  C.2       1 <0>        -0.2419
       7  C6          1.6050   33.2370   58.7000  C.2       1 <0>         0.6045
       8  O1          0.4540   33.6210   58.8010  O.2       1 <0>        -0.5055
       9  N1          1.8610   31.9470   58.4060  N.am      1 <0>        -0.6501
      10  C7          0.8040   31.0720   58.0970  C.2       1 <0>        -0.0048
      11  C8          0.1040   30.2700   59.0100  C.2       1 <0>         0.1009
      12  N2         -0.8090   29.6000   58.3540  N.2       1 <0>        -0.2829
      13  N3         -0.7240   29.9480   57.0010  N.pl3     1 <0>        -0.3621
      14  C9          0.2770   30.8570   56.8650  C.2       1 <0>         0.0767
      15  C10         0.7200   31.5090   55.5810  C.3       1 <0>        -0.0943
      16  C11        -1.5670   29.4270   55.9210  C.3       1 <0>         0.1753
      17  C12        -0.8830   28.2520   55.2730  C.ar      1 <0>        -0.1056
      18  C13        -0.1070   27.4170   56.0160  C.ar      1 <0>        -0.0934
      19  C14         0.5280   26.3200   55.4370  C.ar      1 <0>        -0.1227
      20  C15         0.4000   26.0590   54.1060  C.ar      1 <0>        -0.0922
      21  C16        -0.3880   26.9020   53.3050  C.ar      1 <0>        -0.0551
      22  C17        -1.0390   28.0150   53.8970  C.ar      1 <0>        -0.0319
      23  C18        -1.8280   28.8580   53.0950  C.ar      1 <0>        -0.0965
      24  C19        -1.9550   28.5970   51.7650  C.ar      1 <0>        -0.1131
      25  C20        -1.3150   27.5040   51.1840  C.ar      1 <0>        -0.1124
      26  C21        -0.5430   26.6660   51.9290  C.ar      1 <0>        -0.1101
      27  C22         0.3570   30.1930   60.4940  C.3       1 <0>        -0.0928
@<TRIPOS>BOND
     1     1     2 1
     2     2     6 2
     3     2     3 1
     4     3     4 2
     5     4     5 1
     6     5     6 1
     7     6     7 1
     8     7     8 2
     9     7     9 am
    10     9    10 1
    11    10    14 2
    12    10    11 1
    13    11    12 2
    14    11    27 1
    15    12    13 1
    16    13    14 1
    17    13    16 1
    18    14    15 1
    19    16    17 1
    20    17    22 ar
    21    17    18 ar
    22    18    19 ar
    23    19    20 ar
    24    20    21 ar
    25    21    26 ar
    26    21    22 ar
    27    22    23 ar
    28    23    24 ar
    29    24    25 ar
    30    25    26 ar

@<TRIPOS>MOLECULE
ZINC13311620_replica-1.pdb
 24 25 0 0 0
SMALL
GASTEIGER

@<TRIPOS>ATOM
       1  C1         13.5650   34.1370   62.2770  C.3       1 <0>        -0.1423
       2  C2         12.3490   34.8020   62.9250  C.3       1 <0>        -0.0898
       3  C3         11.4150   35.2960   61.8500  C.ar      1 <0>        -0.0731
       4  C4         11.1340   34.4980   60.7570  C.ar      1 <0>        -0.1160
       5  C5         10.2790   34.9510   59.7710  C.ar      1 <0>        -0.0990
       6  C6          9.7010   36.2030   59.8780  C.ar      1 <0>        -0.1105
       7  C7          9.9850   37.0030   60.9690  C.ar      1 <0>        -0.0960
       8  C8         10.8380   36.5480   61.9570  C.ar      1 <0>        -0.1147
       9  C9          8.7680   36.6970   58.8030  C.3       1 <0>         0.1972
      10  C10         8.0350   37.9450   59.2990  C.3       1 <0>        -0.0901
      11  C11         7.8860   38.9400   58.1470  C.3       1 <0>        -0.1478
      12  C12         6.6490   37.5500   59.8150  C.3       1 <0>        -0.1506
      13  N1          7.7930   35.6510   58.4840  N.pl3     1 <0>        -1.1075
      14  S1          7.6510   35.0980   56.9300  S.o2      1 <0>         2.7330
      15  O1          7.9170   33.7030   56.9690  O.2       1 <0>        -0.9548
      16  O2          8.3910   35.9930   56.1100  O.2       1 <0>        -0.9560
      17  C13         5.9600   35.2750   56.4670  C.2       1 <0>        -0.7940
      18  C14         4.9060   35.5900   57.2460  C.2       1 <0>         0.0523
      19  C15         3.6180   35.6690   56.6070  C.2       1 <0>        -0.1894
      20  C16         3.5740   35.4160   55.2500  C.2       1 <0>        -0.1135
      21  S2          5.2250   35.0800   54.8560  S.3       1 <0>         0.1600
      22  C17         2.4030   36.0060   57.3650  C.2       1 <0>         0.5060
      23  O3          1.3270   36.0450   56.8000  O.co2     1 <0>        -0.6289
      24  O4          2.4830   36.2700   58.6840  O.co2     1 <0>        -0.7531
@<TRIPOS>BOND
     1     1     2 1
     2     2     3 1
     3     3     8 ar
     4     3     4 ar
     5     4     5 ar
     6     5     6 ar
     7     6     7 ar
     8     6     9 1
     9     7     8 ar
    10     9    10 1
    11     9    13 1
    12    10    11 1
    13    10    12 1
    14    13    14 1
    15    14    15 2
    16    14    16 2
    17    14    17 1
    18    17    21 1
    19    17    18 2
    20    18    19 1
    21    19    20 2
    22    19    22 1
    23    20    21 1
    24    22    23 2
    25    22    24 1

@<TRIPOS>MOLECULE
ZINC13062790_replica-1.pdb
 22 24 0 0 0
SMALL
GASTEIGER

@<TRIPOS>ATOM
       1  C1         -1.1820   31.3580   54.8440  C.3       1 <0>        -0.1394
       2  C2         -0.9220   29.9410   54.3980  C.2       1 <0>         0.2154
       3  C3         -0.2230   29.0870   55.2410  C.2       1 <0>        -0.2760
       4  C4          0.0280   27.7840   54.8420  C.2       1 <0>         0.3602
       5  C5         -0.4570   27.3730   53.5780  C.ar      1 <0>        -0.1158
       6  C6         -0.2510   26.0690   53.1060  C.ar      1 <0>        -0.0182
       7  C7         -0.7340   25.7120   51.8830  C.ar      1 <0>        -0.1539
       8  C8         -1.4320   26.6240   51.0970  C.ar      1 <0>        -0.0455
       9  C9         -1.6500   27.8980   51.5250  C.ar      1 <0>        -0.1704
      10  C10        -1.1660   28.3030   52.7820  C.ar      1 <0>         0.1707
      11  N1         -1.3670   29.5480   53.2270  N.pl3     1 <0>        -0.5455
      12  N2          0.7280   26.9090   55.6600  N.2       1 <0>        -1.0190
      13  S1          0.0380   26.3510   57.0580  S.o2      1 <0>         2.6253
      14  O1          0.9110   26.7210   58.1170  O.2       1 <0>        -0.9541
      15  O2         -1.3270   26.7450   57.0230  O.2       1 <0>        -1.0041
      16  C11         0.0560   24.5910   56.9820  C.ar      1 <0>        -0.7029
      17  C12         0.5450   23.9520   55.8570  C.ar      1 <0>         0.0032
      18  C13         0.5660   22.5720   55.8010  C.ar      1 <0>        -0.1483
      19  C14         0.0870   21.8270   56.8640  C.ar      1 <0>        -0.0464
      20  C15        -0.4070   22.4640   57.9860  C.ar      1 <0>        -0.1733
      21  C16        -0.4230   23.8470   58.0470  C.ar      1 <0>         0.1746
      22  F1         -0.9050   24.4700   59.1440  F         1 <0>        -0.1173
@<TRIPOS>BOND
     1     1     2 1
     2     2    11 1
     3     2     3 2
     4     3     4 1
     5     4     5 1
     6     4    12 2
     7     5    10 ar
     8     5     6 ar
     9     6     7 ar
    10     7     8 ar
    11     8     9 ar
    12     9    10 ar
    13    10    11 1
    14    12    13 1
    15    13    14 2
    16    13    15 2
    17    13    16 1
    18    16    21 ar
    19    16    17 ar
    20    17    18 ar
    21    18    19 ar
    22    19    20 ar
    23    20    21 ar
    24    21    22 1

@<TRIPOS>MOLECULE
ZINC37780659_replica-1.pdb
 20 21 0 0 0
SMALL
GASTEIGER

@<TRIPOS>ATOM
       1  C1         12.7870   29.9910   64.0630  C.3       1 <0>        -0.0729
       2  C2         12.6980   31.3570   63.4310  C.2       1 <0>        -0.1349
       3  C3         13.6920   32.2400   63.1650  C.2       1 <0>        -0.1649
       4  C4         13.3730   33.4470   62.5710  C.2       1 <0>        -0.1391
       5  C5         12.0780   33.7120   62.2750  C.2       1 <0>        -0.1596
       6  S1         11.2590   32.2270   62.8310  S.3       1 <0>         0.0388
       7  C6         11.4830   34.9400   61.6350  C.3       1 <0>         0.2390
       8  C7         11.6580   36.1370   62.5690  C.3       1 <0>        -0.1660
       9  N1         10.0560   34.7180   61.3860  N.pl3     1 <0>        -0.7448
      10  C8          9.5040   35.0450   60.1420  C.ar      1 <0>         0.1839
      11  C9          9.5270   36.3600   59.6950  C.ar      1 <0>        -0.1556
      12  C10         8.9830   36.6800   58.4670  C.ar      1 <0>        -0.1657
      13  C11         8.4120   35.6900   57.6800  C.ar      1 <0>         0.0814
      14  C12         8.3880   34.3760   58.1270  C.ar      1 <0>        -0.1056
      15  C13         8.9380   34.0530   59.3510  C.ar      1 <0>        -0.1190
      16  C14         8.9190   32.6250   59.8340  C.3       1 <0>        -0.1080
      17  O1          7.8750   36.0060   56.4720  O.3       1 <0>        -0.3140
      18  C15         6.7680   36.9100   56.4710  C.3       1 <0>         0.0788
      19  C16         7.1320   38.1630   55.6710  C.3       1 <0>        -0.1495
      20  C17         5.5570   36.2300   55.8300  C.3       1 <0>        -0.1809
@<TRIPOS>BOND
     1     1     2 1
     2     2     6 1
     3     2     3 2
     4     3     4 1
     5     4     5 2
     6     5     6 1
     7     5     7 1
     8     7     8 1
     9     7     9 1
    10     9    10 1
    11    10    15 ar
    12    10    11 ar
    13    11    12 ar
    14    12    13 ar
    15    13    14 ar
    16    13    17 1
    17    14    15 ar
    18    15    16 1
    19    17    18 1
    20    18    19 1
    21    18    20 1

@<TRIPOS>MOLECULE
ZINC07397711_replica-1.pdb
 24 25 0 0 0
SMALL
GASTEIGER

@<TRIPOS>ATOM
       1  C1          0.1770   33.0780   61.8690  C.3       1 <0>        -0.1402
       2  C2          0.1020   34.3580   61.0320  C.3       1 <0>        -0.1157
       3  S1          0.7220   34.0240   59.3600  S.3       1 <0>         0.0479
       4  C3          2.4260   34.4660   59.4430  C.2       1 <0>         0.0177
       5  N1          3.3930   33.9950   60.2170  N.2       1 <0>        -0.2585
       6  N2          4.5750   34.4290   60.1470  N.2       1 <0>        -0.2689
       7  C4          4.9230   35.3800   59.2960  C.2       1 <0>         0.2809
       8  S2          3.3460   35.6820   58.5030  S.3       1 <0>         0.0473
       9  N3          6.1620   35.9810   59.0840  N.am      1 <0>        -0.6088
      10  C5          6.4530   37.1540   59.6780  C.2       1 <0>         0.5119
      11  O1          5.6360   37.6880   60.3980  O.2       1 <0>        -0.4376
      12  C6          7.7940   37.8030   59.4480  C.3       1 <0>         0.0790
      13  C7          7.6380   38.9570   58.4560  C.3       1 <0>        -0.1817
      14  O2          8.7050   36.8380   58.9170  O.3       1 <0>        -0.2843
      15  C8          9.5680   36.2590   59.7930  C.ar      1 <0>         0.1215
      16  C9         10.0520   34.9810   59.5490  C.ar      1 <0>        -0.1413
      17  C10        10.9340   34.3960   60.4360  C.ar      1 <0>        -0.0797
      18  C11        11.3250   35.0780   61.5740  C.ar      1 <0>        -0.1029
      19  C12        10.8400   36.3480   61.8220  C.ar      1 <0>        -0.0748
      20  C13         9.9630   36.9400   60.9350  C.ar      1 <0>        -0.2084
      21  C14        12.2820   34.4350   62.5440  C.3       1 <0>        -0.0268
      22  C15        13.6510   34.2720   61.8780  C.3       1 <0>        -0.1396
      23  C16        12.4220   35.3190   63.7850  C.3       1 <0>        -0.1468
      24  C17        11.7480   33.0610   62.9530  C.3       1 <0>        -0.1394
@<TRIPOS>BOND
     1     1     2 1
     2     2     3 1
     3     3     4 1
     4     4     8 1
     5     4     5 2
     6     5     6 1
     7     6     7 2
     8     7     8 1
     9     7     9 1
    10     9    10 am
    11    10    11 2
    12    10    12 1
    13    12    13 1
    14    12    14 1
    15    14    15 1
    16    15    20 ar
    17    15    16 ar
    18    16    17 ar
    19    17    18 ar
    20    18    19 ar
    21    18    21 1
    22    19    20 ar
    23    21    22 1
    24    21    23 1
    25    21    24 1

@<TRIPOS>MOLECULE
ZINC10345902_replica-1.pdb
 26 28 0 0 0
SMALL
GASTEIGER

@<TRIPOS>ATOM
       1  C1          0.5770   25.1060   55.0170  C.3       1 <0>        -0.1457
       2  C2          0.4570   26.6200   55.2010  C.3       1 <0>        -0.0870
       3  C3         -0.2820   27.2120   54.0290  C.ar      1 <0>        -0.0707
       4  C4         -0.1480   26.6510   52.7730  C.ar      1 <0>        -0.1167
       5  C5         -0.8310   27.1900   51.6980  C.ar      1 <0>        -0.1028
       6  C6         -1.6390   28.2990   51.8730  C.ar      1 <0>        -0.1171
       7  C7         -1.7720   28.8670   53.1240  C.ar      1 <0>        -0.0599
       8  C8         -1.0930   28.3250   54.2080  C.ar      1 <0>         0.1329
       9  N1         -1.2260   28.8980   55.4750  N.pl3     1 <0>        -0.6154
      10  C9         -0.3890   29.9400   55.8580  C.2       1 <0>         0.3484
      11  N2          0.4150   30.6820   55.1190  N.2       1 <0>        -0.3537
      12  N3          1.1610   31.6760   55.7080  N.2       1 <0>        -0.2781
      13  C10         1.0780   31.8770   57.0090  C.2       1 <0>         0.0256
      14  S1         -0.1090   30.6290   57.4820  S.3       1 <0>         0.0057
      15  S2          1.9140   33.0600   58.0120  S.3       1 <0>         0.1275
      16  C11         1.4120   34.6580   57.3160  C.3       1 <0>        -0.1594
      17  C12         2.5030   35.1810   56.4180  C.2       1 <0>         0.5388
      18  O1          2.9020   36.3190   56.5490  O.2       1 <0>        -0.5189
      19  N4          3.0340   34.3860   55.4680  N.am      1 <0>        -0.7199
      20  C13         4.0940   34.8960   54.5950  C.3       1 <0>         0.2089
      21  C14         5.4340   34.6670   55.2480  C.2       1 <0>        -0.1808
      22  C15         6.5060   35.4930   55.3080  C.2       1 <0>        -0.1274
      23  C16         7.6430   35.0680   55.9720  C.2       1 <0>        -0.1649
      24  C17         7.6540   33.8340   56.5310  C.2       1 <0>        -0.1600
      25  S3          6.0210   33.2320   56.1340  S.3       1 <0>         0.0548
      26  C18        -2.6540   30.0750   53.3120  C.3       1 <0>        -0.1138
@<TRIPOS>BOND
     1     1     2 1
     2     2     3 1
     3     3     8 ar
     4     3     4 ar
     5     4     5 ar
     6     5     6 ar
     7     6     7 ar
     8     7     8 ar
     9     7    26 1
    10     8     9 1
    11     9    10 1
    12    10    14 1
    13    10    11 2
    14    11    12 1
    15    12    13 2
    16    13    14 1
    17    13    15 1
    18    15    16 1
    19    16    17 1
    20    17    18 2
    21    17    19 am
    22    19    20 1
    23    20    21 1
    24    21    25 1
    25    21    22 2
    26    22    23 1
    27    23    24 2
    28    24    25 1

@<TRIPOS>MOLECULE
ZINC53582615_replica-1.pdb
 24 25 0 0 0
SMALL
GASTEIGER

@<TRIPOS>ATOM
       1  C1          5.4640   36.4790   60.5260  C.ar      1 <0>        -0.0033
       2  C2          4.9980   36.0260   59.3050  C.ar      1 <0>        -0.1879
       3  C3          5.8200   36.0550   58.1930  C.ar      1 <0>         0.0293
       4  C4          7.1100   36.5360   58.2990  C.ar      1 <0>        -0.7249
       5  C5          7.5820   36.9930   59.5240  C.ar      1 <0>         0.3152
       6  C6          6.7530   36.9620   60.6390  C.ar      1 <0>        -0.2067
       7  N1          8.8860   37.4800   59.6340  N.pl3     1 <0>        -0.7416
       8  C7          9.7240   37.0790   60.7670  C.3       1 <0>         0.1335
       9  C8         10.4310   35.7630   60.4380  C.3       1 <0>        -0.1614
      10  C9         11.1810   35.2790   61.6530  C.2       1 <0>         0.5213
      11  O1         11.5320   36.0680   62.5020  O.2       1 <0>        -0.5351
      12  N2         11.4630   33.9680   61.7920  N.am      1 <0>        -0.7241
      13  C10        12.1910   33.4970   62.9720  C.3       1 <0>         0.1384
      14  C11        13.7050   33.4540   62.6750  C.3       1 <0>        -0.1353
      15  C12        14.2020   32.1920   63.4230  C.3       1 <0>        -0.1256
      16  C13        13.0400   31.1890   63.2120  C.3       1 <0>        -0.1252
      17  C14        11.7690   32.0580   63.3130  C.3       1 <0>        -0.1323
      18  S1          8.1570   36.5720   56.8830  S.o2      1 <0>         2.4824
      19  O2          8.5890   37.9210   56.7840  O.2       1 <0>        -0.8627
      20  O3          9.0940   35.5250   57.0970  O.2       1 <0>        -0.8600
      21  C15         7.0700   36.1610   55.4890  C.3       1 <0>        -0.0275
      22  F1          5.9300   36.9700   55.5320  F         1 <0>        -0.1580
      23  F2          7.7510   36.3790   54.2860  F         1 <0>        -0.1571
      24  F3          6.6910   34.8170   55.5740  F         1 <0>        -0.1505
@<TRIPOS>BOND
     1     1     6 ar
     2     1     2 ar
     3     2     3 ar
     4     3     4 ar
     5     4     5 ar
     6     4    18 1
     7     5     6 ar
     8     5     7 1
     9     7     8 1
    10     8     9 1
    11     9    10 1
    12    10    11 2
    13    10    12 am
    14    12    13 1
    15    13    17 1
    16    13    14 1
    17    14    15 1
    18    15    16 1
    19    16    17 1
    20    18    19 2
    21    18    20 2
    22    18    21 1
    23    21    22 1
    24    21    23 1
    25    21    24 1

@<TRIPOS>MOLECULE
ZINC07467164_replica-1.pdb
 23 26 0 0 0
SMALL
GASTEIGER

@<TRIPOS>ATOM
       1  C1         -1.7150   28.2620   58.5880  C.3       1 <0>        -0.1028
       2  C2         -0.7460   29.3810   58.8670  C.2       1 <0>        -0.0865
       3  C3         -0.4210   29.6980   60.1300  C.2       1 <0>        -0.1378
       4  S1          0.7270   31.0490   59.9380  S.3       1 <0>         0.1187
       5  C4          0.7400   31.1530   58.1680  C.ar      1 <0>         0.1387
       6  C5         -0.1570   30.1330   57.7730  C.ar      1 <0>        -0.1956
       7  C6         -0.3320   29.9880   56.3720  C.ar      1 <0>         0.4120
       8  N1          0.3210   30.7940   55.5530  N.ar      1 <0>        -0.5706
       9  C7          1.1410   31.7310   55.9920  C.ar      1 <0>         0.3561
      10  N2          1.3510   31.9120   57.2820  N.ar      1 <0>        -0.4979
      11  O1         -1.1650   29.0390   55.8820  O.3       1 <0>        -0.2308
      12  C8         -1.6290   29.1910   54.6130  C.ar      1 <0>         0.0798
      13  C9         -2.4610   30.2540   54.3070  C.ar      1 <0>        -0.1031
      14  C10        -2.9320   30.4070   53.0170  C.ar      1 <0>        -0.1067
      15  C11        -2.5670   29.5010   52.0420  C.ar      1 <0>        -0.1056
      16  C12        -1.7290   28.4350   52.3430  C.ar      1 <0>        -0.1030
      17  C13        -1.2610   28.2760   53.6270  C.ar      1 <0>        -0.0549
      18  C14        -0.3570   27.1400   54.0270  C.3       1 <0>        -0.0813
      19  C15         0.2870   26.5070   52.7950  C.3       1 <0>        -0.1155
      20  C16        -0.8190   26.1800   51.7850  C.3       1 <0>        -0.1131
      21  C17        -1.3630   27.4940   51.2250  C.3       1 <0>         0.1486
      22  O2         -2.5230   27.2240   50.4360  O.3       1 <0>        -0.5572
      23  C18        -0.9090   29.0630   61.4060  C.3       1 <0>        -0.0703
@<TRIPOS>BOND
     1     1     2 1
     2     2     6 1
     3     2     3 2
     4     3     4 1
     5     3    23 1
     6     4     5 1
     7     5    10 ar
     8     5     6 ar
     9     6     7 ar
    10     7     8 ar
    11     7    11 1
    12     8     9 ar
    13     9    10 ar
    14    11    12 1
    15    12    17 ar
    16    12    13 ar
    17    13    14 ar
    18    14    15 ar
    19    15    16 ar
    20    16    21 1
    21    16    17 ar
    22    17    18 1
    23    18    19 1
    24    19    20 1
    25    20    21 1
    26    21    22 1

@<TRIPOS>MOLECULE
ZINC05630536_replica-1.pdb
 26 29 0 0 0
SMALL
GASTEIGER

@<TRIPOS>ATOM
       1  C1         12.6720   34.4460   63.0890  C.3       1 <0>        -0.1540
       2  C2         11.8600   34.5220   61.7950  C.3       1 <0>         0.0503
       3  O1         10.9950   35.6580   61.8410  O.3       1 <0>        -0.3093
       4  C3         10.2820   35.9360   60.7200  C.ar      1 <0>         0.1718
       5  C4          9.6270   37.1570   60.6000  C.ar      1 <0>        -0.1664
       6  C5          8.9030   37.4430   59.4640  C.ar      1 <0>        -0.0106
       7  C6          8.8270   36.5030   58.4320  C.ar      1 <0>        -0.1714
       8  C7          9.4870   35.2770   58.5560  C.ar      1 <0>        -0.0140
       9  C8         10.2090   35.0000   59.6950  C.ar      1 <0>        -0.2253
      10  C9          8.0520   36.8050   57.2130  C.2       1 <0>         0.5162
      11  O2          8.6210   36.9300   56.1470  O.2       1 <0>        -0.5083
      12  O3          6.7130   36.9410   57.2830  O.3       1 <0>        -0.3287
      13  C10         5.9520   36.5790   56.1000  C.3       1 <0>         0.0480
      14  C11         4.6770   35.8920   56.5160  C.2       1 <0>         0.5185
      15  O4          3.8000   35.6930   55.7010  O.2       1 <0>        -0.5086
      16  N1          4.5090   35.5000   57.7950  N.am      1 <0>        -0.7221
      17  C12         3.2690   34.8330   58.1990  C.3       1 <0>         0.1859
      18  C13         2.0960   35.8050   58.0570  C.3       1 <0>        -0.1232
      19  C14         0.8010   35.1080   58.4800  C.3       1 <0>        -0.0824
      20  C15         0.9170   34.6580   59.9380  C.3       1 <0>        -0.1118
      21  C16         2.0890   33.6860   60.0800  C.3       1 <0>        -0.0804
      22  C17         3.3840   34.3830   59.6570  C.3       1 <0>        -0.1151
      23  C18         1.8510   32.4660   59.1860  C.3       1 <0>        -0.1118
      24  C19         1.7360   32.9160   57.7290  C.3       1 <0>        -0.0824
      25  C20         0.5630   33.8880   57.5870  C.3       1 <0>        -0.1099
      26  C21         3.0310   33.6120   57.3060  C.3       1 <0>        -0.1231
@<TRIPOS>BOND
     1     1     2 1
     2     2     3 1
     3     3     4 1
     4     4     9 ar
     5     4     5 ar
     6     5     6 ar
     7     6     7 ar
     8     7     8 ar
     9     7    10 1
    10     8     9 ar
    11    10    11 2
    12    10    12 1
    13    12    13 1
    14    13    14 1
    15    14    15 2
    16    14    16 am
    17    16    17 1
    18    17    22 1
    19    17    26 1
    20    17    18 1
    21    18    19 1
    22    19    25 1
    23    19    20 1
    24    20    21 1
    25    21    22 1
    26    21    23 1
    27    23    24 1
    28    24    25 1
    29    24    26 1

@<TRIPOS>MOLECULE
ZINC36591879_replica-1.pdb
 29 29 0 0 0
SMALL
GASTEIGER

@<TRIPOS>ATOM
       1  C1          5.1730   31.1890   57.9130  C.3       1 <0>        -0.2048
       2  C2          6.3870   32.0000   57.5360  C.2       1 <0>        -0.1284
       3  C3          7.5320   31.8250   58.1900  C.2       1 <0>        -0.1384
       4  C4          6.3050   32.9840   56.4460  C.2       1 <0>         0.5695
       5  O1          6.7990   32.7340   55.3630  O.2       1 <0>        -0.5240
       6  N1          5.6800   34.1620   56.6460  N.am      1 <0>        -0.5844
       7  C5          5.1420   34.4890   57.9690  C.3       1 <0>         0.1388
       8  C6          3.6440   34.6240   57.8830  C.ar      1 <0>        -0.1007
       9  C7          2.9880   35.5630   58.6570  C.ar      1 <0>        -0.0764
      10  C8          1.6130   35.6890   58.5800  C.ar      1 <0>        -0.1498
      11  C9          0.8910   34.8740   57.7280  C.ar      1 <0>        -0.1284
      12  C10         1.5470   33.9310   56.9500  C.ar      1 <0>         0.0918
      13  C11         2.9270   33.8120   57.0250  C.ar      1 <0>        -0.1496
      14  O2          0.8390   33.1300   56.1110  O.3       1 <0>        -0.4953
      15  C12         5.7370   35.7890   58.4450  C.2       1 <0>         0.5052
      16  O3          5.0170   36.7420   58.6630  O.2       1 <0>        -0.5119
      17  N2          7.0680   35.8940   58.6300  N.am      1 <0>        -0.7289
      18  C13         7.6460   37.1580   59.0930  C.3       1 <0>         0.1814
      19  C14         7.8010   38.1120   57.9080  C.3       1 <0>        -0.1625
      20  C15         6.7240   37.7880   60.1390  C.3       1 <0>        -0.2446
      21  C16         9.0180   36.8920   59.7170  C.3       1 <0>        -0.1152
      22  C17         9.3300   35.3960   59.6450  C.3       1 <0>        -0.0636
      23  C18         8.2540   34.6140   60.4010  C.3       1 <0>        -0.1810
      24  C19         9.3540   34.9490   58.1820  C.3       1 <0>        -0.1431
      25  C20        10.6960   35.1290   60.2820  C.3       1 <0>        -0.1592
      26  C21         5.5420   35.1140   55.5420  C.3       1 <0>         0.1712
      27  C22         4.5950   36.2430   55.9570  C.3       1 <0>        -0.1622
      28  C23         6.9130   35.7000   55.2000  C.3       1 <0>        -0.1634
      29  C24         4.9740   34.3970   54.3160  C.3       1 <0>        -0.1648
@<TRIPOS>BOND
     1     1     2 1
     2     2     3 2
     3     2     4 1
     4     4     5 2
     5     4     6 am
     6     6     7 1
     7     6    26 1
     8     7     8 1
     9     7    15 1
    10     8    13 ar
    11     8     9 ar
    12     9    10 ar
    13    10    11 ar
    14    11    12 ar
    15    12    13 ar
    16    12    14 1
    17    15    16 2
    18    15    17 am
    19    17    18 1
    20    18    19 1
    21    18    20 1
    22    18    21 1
    23    21    22 1
    24    22    23 1
    25    22    24 1
    26    22    25 1
    27    26    27 1
    28    26    28 1
    29    26    29 1

@<TRIPOS>MOLECULE
ZINC66541306_replica-1.pdb
 25 27 0 0 0
SMALL
GASTEIGER

@<TRIPOS>ATOM
       1  C1         -0.4500   31.6790   63.1340  C.3       1 <0>        -0.1533
       2  C2          0.1850   32.9390   62.5420  C.3       1 <0>         0.0801
       3  O1          0.9530   32.5890   61.3880  O.3       1 <0>        -0.3670
       4  C3          1.4090   33.6020   60.6280  C.2       1 <0>         0.6476
       5  O2          0.7220   34.5910   60.4570  O.2       1 <0>        -0.5689
       6  N1          2.6260   33.5200   60.0560  N.am      1 <0>        -0.7062
       7  C4          3.1230   34.6230   59.2280  C.3       1 <0>         0.1597
       8  C5          4.5750   34.9260   59.6010  C.3       1 <0>        -0.1291
       9  C6          5.0930   36.0770   58.7360  C.3       1 <0>        -0.1118
      10  C7          5.0180   35.6810   57.2600  C.3       1 <0>         0.0857
      11  C8          3.5650   35.3770   56.8880  C.3       1 <0>        -0.1320
      12  C9          3.0470   34.2260   57.7530  C.3       1 <0>        -0.1230
      13  O3          5.5020   36.7550   56.4530  O.3       1 <0>        -0.3467
      14  C10         6.6430   36.5460   55.7800  C.2       1 <0>         0.4602
      15  O4          6.7290   35.6190   55.0090  O.2       1 <0>        -0.4942
      16  C11         7.8190   37.4680   55.9830  C.3       1 <0>        -0.0711
      17  C12         8.3490   37.3030   57.3840  C.ar      1 <0>        -0.0809
      18  C13         8.3150   38.3670   58.2670  C.ar      1 <0>        -0.1013
      19  C14         8.8010   38.2140   59.5490  C.ar      1 <0>        -0.1059
      20  C15         9.3240   36.9980   59.9570  C.ar      1 <0>        -0.0916
      21  C16         9.3590   35.9340   59.0740  C.ar      1 <0>        -0.0966
      22  C17         8.8650   36.0880   57.7900  C.ar      1 <0>        -0.0890
      23  C18         9.9720   34.7270   59.7520  C.3       1 <0>        -0.0836
      24  C19        10.7040   35.2880   60.9900  C.3       1 <0>        -0.1210
      25  C20         9.9110   36.5790   61.2870  C.3       1 <0>        -0.0850
@<TRIPOS>BOND
     1     1     2 1
     2     2     3 1
     3     3     4 1
     4     4     5 2
     5     4     6 am
     6     6     7 1
     7     7    12 1
     8     7     8 1
     9     8     9 1
    10     9    10 1
    11    10    11 1
    12    10    13 1
    13    11    12 1
    14    13    14 1
    15    14    15 2
    16    14    16 1
    17    16    17 1
    18    17    22 ar
    19    17    18 ar
    20    18    19 ar
    21    19    20 ar
    22    20    25 1
    23    20    21 ar
    24    21    22 ar
    25    21    23 1
    26    23    24 1
    27    24    25 1

@<TRIPOS>MOLECULE
ZINC39714010_replica-1.pdb
 30 34 0 0 0
SMALL
GASTEIGER

@<TRIPOS>ATOM
       1  C1          8.2310   37.0410   56.1670  C.ar      1 <0>        -0.1174
       2  C2          7.6830   35.7660   56.2900  C.ar      1 <0>        -0.1046
       3  C3          7.5790   35.1640   57.5080  C.ar      1 <0>        -0.1138
       4  C4          8.0290   35.8340   58.6520  C.ar      1 <0>        -0.0052
       5  C5          8.5870   37.1310   58.5300  C.ar      1 <0>        -0.0644
       6  C6          8.6780   37.7210   57.2580  C.ar      1 <0>        -0.1014
       7  C7          9.0380   37.8000   59.6800  C.ar      1 <0>        -0.0640
       8  C8          8.9430   37.2150   60.9060  C.ar      1 <0>        -0.1356
       9  C9          8.4050   35.9460   61.0720  C.ar      1 <0>        -0.0422
      10  C10         7.9390   35.2270   59.9790  C.ar      1 <0>        -0.1411
      11  C11         7.3670   33.8800   60.1520  C.2       1 <0>         0.5826
      12  O1          6.1680   33.7100   60.0380  O.2       1 <0>        -0.4527
      13  N1          8.1730   32.8380   60.4360  N.am      1 <0>        -0.3735
      14  C12         7.6550   31.5540   60.4760  C.2       1 <0>         0.3577
      15  N2          7.2450   30.8630   61.5140  N.2       1 <0>        -0.4973
      16  C13         6.7580   29.6080   61.4040  C.ar      1 <0>         0.0951
      17  C14         6.2870   28.7610   62.4350  C.ar      1 <0>        -0.0325
      18  C15         5.8220   27.5040   62.1510  C.ar      1 <0>        -0.1352
      19  C16         5.7940   27.0160   60.8500  C.ar      1 <0>         0.1190
      20  C17         6.2470   27.8200   59.8170  C.ar      1 <0>        -0.0946
      21  C18         6.7160   29.0800   60.0940  C.ar      1 <0>        -0.1281
      22  S1          7.3670   30.4190   59.1250  S.3       1 <0>         0.0214
      23  F1          5.3310   25.7740   60.5970  F         1 <0>        -0.1253
      24  N3          9.5340   33.0530   60.6900  N.2       1 <0>        -0.2587
      25  C19        10.0480   32.6850   61.8280  C.2       1 <0>         0.2343
      26  C20        11.4450   33.0070   62.1390  C.2       1 <0>        -0.1736
      27  C21        12.1650   34.1500   61.8370  C.2       1 <0>        -0.0797
      28  C22        13.4780   34.2210   62.2390  C.2       1 <0>        -0.1733
      29  C23        14.0230   33.1750   62.9140  C.2       1 <0>        -0.1474
      30  S2         12.6570   32.0300   63.0120  S.3       1 <0>         0.1288
@<TRIPOS>BOND
     1     1     6 ar
     2     1     2 ar
     3     2     3 ar
     4     3     4 ar
     5     4    10 ar
     6     4     5 ar
     7     5     6 ar
     8     5     7 ar
     9     7     8 ar
    10     8     9 ar
    11     9    10 ar
    12    10    11 1
    13    11    12 2
    14    11    13 am
    15    13    14 1
    16    13    24 1
    17    14    22 1
    18    14    15 2
    19    15    16 1
    20    16    21 ar
    21    16    17 ar
    22    17    18 ar
    23    18    19 ar
    24    19    20 ar
    25    19    23 1
    26    20    21 ar
    27    21    22 1
    28    24    25 2
    29    25    26 1
    30    26    30 1
    31    26    27 2
    32    27    28 1
    33    28    29 2
    34    29    30 1

@<TRIPOS>MOLECULE
ZINC37212979_replica-1.pdb
 18 19 0 0 0
SMALL
GASTEIGER

@<TRIPOS>ATOM
       1  C1         -0.6050   24.7430   51.6970  C.3       1 <0>        -0.1473
       2  C2         -1.1390   26.1640   51.5070  C.3       1 <0>        -0.0786
       3  C3         -0.7190   27.0190   52.6750  C.ar      1 <0>        -0.1390
       4  C4         -1.1960   28.3100   52.7910  C.ar      1 <0>        -0.0685
       5  C5         -0.8130   29.0960   53.8600  C.ar      1 <0>        -0.1906
       6  C6          0.0540   28.5870   54.8190  C.ar      1 <0>         0.2140
       7  C7          0.5320   27.2890   54.6990  C.ar      1 <0>        -0.1952
       8  C8          0.1410   26.5070   53.6300  C.ar      1 <0>        -0.0691
       9  N1          0.4440   29.3800   55.9010  N.pl3     1 <0>        -0.7420
      10  C9         -0.5360   30.2410   56.5690  C.3       1 <0>         0.2440
      11  C10         0.1030   31.5640   56.9030  C.2       1 <0>        -0.1474
      12  C11        -0.3620   32.5610   57.6960  C.2       1 <0>        -0.1462
      13  C12         0.4030   33.7000   57.8590  C.2       1 <0>        -0.1559
      14  C13         1.5970   33.7860   57.2230  C.2       1 <0>        -0.1734
      15  S1          1.6710   32.2240   56.3620  S.3       1 <0>         0.0446
      16  C14        -1.0140   29.5660   57.8570  C.3       1 <0>        -0.1075
      17  C15        -2.1700   28.6170   57.5350  C.3       1 <0>        -0.1541
      18  C16         0.1400   28.7730   58.4740  C.3       1 <0>        -0.1493
@<TRIPOS>BOND
     1     1     2 1
     2     2     3 1
     3     3     8 ar
     4     3     4 ar
     5     4     5 ar
     6     5     6 ar
     7     6     7 ar
     8     6     9 1
     9     7     8 ar
    10     9    10 1
    11    10    11 1
    12    10    16 1
    13    11    15 1
    14    11    12 2
    15    12    13 1
    16    13    14 2
    17    14    15 1
    18    16    17 1
    19    16    18 1

@<TRIPOS>MOLECULE
ZINC47385747_replica-1.pdb
 20 20 0 0 0
SMALL
GASTEIGER

@<TRIPOS>ATOM
       1  C1          0.7390   35.7060   57.0120  C.3       1 <0>        -0.1403
       2  C2          0.8400   34.4350   57.8160  C.2       1 <0>        -0.1096
       3  C3          1.8480   34.2640   58.6720  C.2       1 <0>        -0.1665
       4  C4          2.8580   35.3120   58.8300  C.2       1 <0>        -0.0247
       5  C5          4.1600   35.0390   58.5870  C.2       1 <0>        -0.2221
       6  C6          5.1680   36.0860   58.7450  C.2       1 <0>         0.5495
       7  O1          5.0240   36.9470   59.5930  O.2       1 <0>        -0.5379
       8  N1          6.2580   36.0970   57.9520  N.am      1 <0>        -0.7207
       9  C7          7.2690   37.1450   58.1100  C.3       1 <0>         0.1981
      10  C8          8.3980   36.6300   58.9640  C.ar      1 <0>        -0.0987
      11  C9          8.8660   37.3890   60.0210  C.ar      1 <0>        -0.0850
      12  C10         9.9020   36.9180   60.8050  C.ar      1 <0>        -0.1507
      13  C11        10.4700   35.6850   60.5330  C.ar      1 <0>         0.1009
      14  C12        10.0000   34.9260   59.4750  C.ar      1 <0>        -0.1494
      15  C13         8.9610   35.3970   58.6950  C.ar      1 <0>        -0.0756
      16  F1         11.4820   35.2240   61.3000  F         1 <0>        -0.1381
      17  C14         7.8100   37.5430   56.7350  C.3       1 <0>        -0.0728
      18  C15         6.6620   38.0580   55.8640  C.3       1 <0>        -0.1328
      19  C16         8.8590   38.6460   56.9000  C.3       1 <0>        -0.1430
      20  C17         8.4500   36.3260   56.0670  C.3       1 <0>        -0.1489
@<TRIPOS>BOND
     1     1     2 1
     2     2     3 2
     3     3     4 1
     4     4     5 2
     5     5     6 1
     6     6     7 2
     7     6     8 am
     8     8     9 1
     9     9    10 1
    10     9    17 1
    11    10    15 ar
    12    10    11 ar
    13    11    12 ar
    14    12    13 ar
    15    13    14 ar
    16    13    16 1
    17    14    15 ar
    18    17    18 1
    19    17    19 1
    20    17    20 1

@<TRIPOS>MOLECULE
ZINC36850548_replica-1.pdb
 21 22 0 0 0
SMALL
GASTEIGER

@<TRIPOS>ATOM
       1  C1          6.7190   33.6130   55.7790  C.3       1 <0>        -0.1548
       2  C2          6.4080   35.0530   55.3660  C.3       1 <0>        -0.0895
       3  C3          5.0270   35.4470   55.8930  C.3       1 <0>        -0.1177
       4  C4          5.0140   35.3390   57.4190  C.3       1 <0>        -0.1168
       5  C5          6.0700   36.2780   58.0060  C.3       1 <0>        -0.0868
       6  C6          7.4510   35.8840   57.4780  C.3       1 <0>         0.1555
       7  C7          7.4640   35.9920   55.9520  C.3       1 <0>        -0.1312
       8  N1          8.4630   36.7830   58.0390  N.pl3     1 <0>        -0.7410
       9  C8          9.2360   36.3710   59.1310  C.ar      1 <0>         0.2025
      10  C9          9.8340   35.1180   59.1260  C.ar      1 <0>        -0.1671
      11  C10        10.5970   34.7130   60.2030  C.ar      1 <0>        -0.0834
      12  C11        10.7680   35.5580   61.2890  C.ar      1 <0>         0.0407
      13  C12        10.1710   36.8090   61.2950  C.ar      1 <0>        -0.1373
      14  C13         9.4120   37.2190   60.2170  C.ar      1 <0>        -0.1612
      15  O1         11.5200   35.1590   62.3500  O.3       1 <0>        -0.3228
      16  C14        12.2330   33.9280   62.2130  C.3       1 <0>         0.4115
      17  F1         13.5020   34.1810   61.6820  F         1 <0>        -0.2007
      18  F2         12.3630   33.3220   63.4670  F         1 <0>        -0.2006
      19  C15         6.0570   36.1710   59.5320  C.3       1 <0>        -0.0907
      20  C16         5.7150   37.5350   60.1360  C.3       1 <0>        -0.1495
      21  C17         5.0080   35.1450   59.9620  C.3       1 <0>        -0.1513
@<TRIPOS>BOND
     1     1     2 1
     2     2     7 1
     3     2     3 1
     4     3     4 1
     5     4     5 1
     6     5     6 1
     7     5    19 1
     8     6     7 1
     9     6     8 1
    10     8     9 1
    11     9    14 ar
    12     9    10 ar
    13    10    11 ar
    14    11    12 ar
    15    12    13 ar
    16    12    15 1
    17    13    14 ar
    18    15    16 1
    19    16    17 1
    20    16    18 1
    21    19    20 1
    22    19    21 1

@<TRIPOS>MOLECULE
ZINC52250301_replica-1.pdb
 20 20 0 0 0
SMALL
GASTEIGER

@<TRIPOS>ATOM
       1  C1         -3.0830   30.8000   55.7300  C.3       1 <0>        -0.1610
       2  C2         -2.0840   29.7880   56.2940  C.3       1 <0>        -0.1104
       3  C3         -0.8470   29.7370   55.3930  C.3       1 <0>        -0.1079
       4  C4          0.2380   30.6030   55.9820  C.2       1 <0>         0.4734
       5  O1          0.7850   31.4350   55.2970  O.2       1 <0>        -0.5022
       6  O2          0.5950   30.4500   57.2670  O.3       1 <0>        -0.3465
       7  C5          1.3940   31.4840   57.8450  C.3       1 <0>         0.0589
       8  C6          0.5130   32.3840   58.7150  C.3       1 <0>        -0.1527
       9  C7         -0.3500   28.2950   55.2920  C.3       1 <0>         0.1975
      10  C8         -1.0650   27.4340   56.3350  C.3       1 <0>        -0.0972
      11  C9         -0.0370   26.8430   57.3020  C.3       1 <0>        -0.0909
      12  C10        -0.3360   27.3290   58.7220  C.3       1 <0>        -0.1405
      13  C11        -0.1140   25.3160   57.2590  C.3       1 <0>        -0.1487
      14  C12        -0.6400   27.7590   53.9140  C.ar      1 <0>        -0.1054
      15  C13        -1.3540   28.5250   53.0110  C.ar      1 <0>        -0.1202
      16  C14        -1.6220   28.0340   51.7470  C.ar      1 <0>        -0.1201
      17  C15        -1.1750   26.7770   51.3850  C.ar      1 <0>        -0.1199
      18  C16        -0.4590   26.0120   52.2870  C.ar      1 <0>        -0.1197
      19  C17        -0.1890   26.5040   53.5500  C.ar      1 <0>        -0.0872
      20  O3          1.0590   28.2570   55.5300  O.3       1 <0>        -0.5418
@<TRIPOS>BOND
     1     1     2 1
     2     2     3 1
     3     3     4 1
     4     3     9 1
     5     4     5 2
     6     4     6 1
     7     6     7 1
     8     7     8 1
     9     9    10 1
    10     9    14 1
    11     9    20 1
    12    10    11 1
    13    11    12 1
    14    11    13 1
    15    14    19 ar
    16    14    15 ar
    17    15    16 ar
    18    16    17 ar
    19    17    18 ar
    20    18    19 ar

@<TRIPOS>MOLECULE
ZINC13406732_replica-1.pdb
 24 24 0 0 0
SMALL
GASTEIGER

@<TRIPOS>ATOM
       1  C1          8.4180   32.3250   60.5170  C.3       1 <0>        -0.1514
       2  C2          6.9390   32.0440   60.2450  C.3       1 <0>        -0.0241
       3  C3          6.8090   31.1130   59.0390  C.3       1 <0>        -0.1468
       4  C4          6.3120   31.3800   61.4720  C.3       1 <0>        -0.1467
       5  C5          6.2270   33.3410   59.9570  C.ar      1 <0>        -0.0868
       6  C6          6.9190   34.5310   60.0060  C.ar      1 <0>        -0.0584
       7  C7          6.2580   35.7330   59.7390  C.ar      1 <0>        -0.1596
       8  C8          4.8970   35.7220   59.4230  C.ar      1 <0>        -0.0619
       9  C9          4.2130   34.5280   59.3760  C.ar      1 <0>        -0.0864
      10  C10         4.8740   33.3350   59.6370  C.ar      1 <0>         0.1813
      11  O1          4.1980   32.1590   59.5850  O.3       1 <0>        -0.4781
      12  C11         2.7450   34.5160   59.0350  C.3       1 <0>        -0.0240
      13  C12         1.9510   33.9560   60.2180  C.3       1 <0>        -0.1519
      14  C13         2.2790   35.9420   58.7380  C.3       1 <0>        -0.1468
      15  C14         2.5130   33.6370   57.8050  C.3       1 <0>        -0.1468
      16  C15         6.9960   37.0110   59.7910  C.cat     1 <0>         0.5766
      17  N1          7.3000   37.6520   58.6630  N.pl3     1 <0>        -0.6370
      18  C16         7.0350   37.0200   57.3680  C.3       1 <0>         0.1210
      19  C17         8.3240   36.4910   56.7930  C.2       1 <0>        -0.2147
      20  C18         8.5710   35.2050   56.8170  C.2       1 <0>        -0.1202
      21  N2          7.3570   37.5250   60.9660  N.pl3     1 <0>        -0.6354
      22  C19         8.5240   36.9890   61.6720  C.3       1 <0>         0.1033
      23  C20         9.7050   36.9560   60.7360  C.2       1 <0>        -0.2112
      24  C21        10.3390   35.8300   60.5210  C.2       1 <0>        -0.1195
@<TRIPOS>BOND
     1     1     2 1
     2     2     3 1
     3     2     4 1
     4     2     5 1
     5     5    10 ar
     6     5     6 ar
     7     6     7 ar
     8     7     8 ar
     9     7    16 1
    10     8     9 ar
    11     9    10 ar
    12     9    12 1
    13    10    11 1
    14    12    13 1
    15    12    14 1
    16    12    15 1
    17    16    17 2
    18    16    21 1
    19    17    18 1
    20    18    19 1
    21    19    20 2
    22    21    22 1
    23    22    23 1
    24    23    24 2

@<TRIPOS>MOLECULE
CHEMBL216579_replica-1.pdb
 30 35 0 0 0
SMALL
GASTEIGER

@<TRIPOS>ATOM
       1  C1          7.9600   38.8490   58.2020  C.ar      1 <0>        -0.1145
       2  C2          7.6660   37.9830   57.1640  C.ar      1 <0>        -0.1146
       3  C3          8.1240   36.6780   57.2010  C.ar      1 <0>        -0.0809
       4  C4          8.8750   36.2390   58.2710  C.ar      1 <0>        -0.0794
       5  C5          9.1750   37.1040   59.3190  C.ar      1 <0>        -0.0567
       6  C6          8.7090   38.4190   59.2770  C.ar      1 <0>        -0.0980
       7  C7          9.9860   36.3870   60.3350  C.ar      1 <0>        -0.0492
       8  C8         10.5270   36.8140   61.5480  C.ar      1 <0>        -0.0969
       9  C9         11.2570   35.9380   62.3240  C.ar      1 <0>        -0.1133
      10  C10        11.4570   34.6350   61.9030  C.ar      1 <0>        -0.1127
      11  C11        10.9240   34.2040   60.7010  C.ar      1 <0>        -0.0968
      12  C12        10.1920   35.0740   59.9200  C.ar      1 <0>        -0.1242
      13  C13         9.5000   34.9030   58.5900  C.3       1 <0>         0.1657
      14  N1          8.4620   33.8680   58.6890  N.3       1 <0>        -0.5115
      15  C14         7.2700   34.2430   57.9160  C.3       1 <0>         0.0420
      16  C15         6.2880   33.0680   57.8950  C.3       1 <0>         0.1050
      17  N2          6.0260   32.6530   59.2810  N.am      1 <0>        -0.6085
      18  C16         7.1760   32.3920   60.1590  C.3       1 <0>         0.1186
      19  C17         8.1230   33.5950   60.0920  C.3       1 <0>         0.0311
      20  C18         4.7640   32.5160   59.7340  C.2       1 <0>         0.5687
      21  O1          4.5630   32.1060   60.8610  O.2       1 <0>        -0.5352
      22  C19         3.6240   32.8630   58.8620  C.ar      1 <0>        -0.1591
      23  C20         2.9940   31.8670   58.1030  C.ar      1 <0>        -0.0730
      24  C21         1.9400   32.1720   57.2930  C.ar      1 <0>        -0.1307
      25  C22         1.4770   33.4840   57.2090  C.ar      1 <0>         0.1126
      26  C23         2.1010   34.4930   57.9660  C.ar      1 <0>        -0.1170
      27  C24         3.1740   34.1790   58.7970  C.ar      1 <0>        -0.0104
      28  C25         1.3860   35.7340   57.6550  C.2       1 <0>        -0.1952
      29  C26         0.4220   35.4190   56.7750  C.2       1 <0>         0.0499
      30  N3          0.4630   34.0790   56.4980  N.pl3     1 <0>        -0.5922
@<TRIPOS>BOND
     1     1     6 ar
     2     1     2 ar
     3     2     3 ar
     4     3     4 ar
     5     4    13 1
     6     4     5 ar
     7     5     6 ar
     8     5     7 1
     9     7    12 ar
    10     7     8 ar
    11     8     9 ar
    12     9    10 ar
    13    10    11 ar
    14    11    12 ar
    15    12    13 1
    16    13    14 1
    17    14    19 1
    18    14    15 1
    19    15    16 1
    20    16    17 1
    21    17    18 1
    22    17    20 am
    23    18    19 1
    24    20    21 2
    25    20    22 1
    26    22    27 ar
    27    22    23 ar
    28    23    24 ar
    29    24    25 ar
    30    25    30 1
    31    25    26 ar
    32    26    27 ar
    33    26    28 1
    34    28    29 2
    35    29    30 1

@<TRIPOS>MOLECULE
ZINC52255591_replica-1.pdb
 20 20 0 0 0
SMALL
GASTEIGER

@<TRIPOS>ATOM
       1  C1          6.3480   33.3620   55.8770  C.3       1 <0>        -0.1516
       2  C2          7.6560   33.9360   56.4260  C.3       1 <0>         0.0600
       3  O1          7.7510   35.3190   56.0800  O.3       1 <0>        -0.3429
       4  C3          7.0180   36.1800   56.8040  C.2       1 <0>         0.4696
       5  O2          6.2890   36.9670   56.2490  O.2       1 <0>        -0.5053
       6  C4          7.1050   36.1650   58.3080  C.3       1 <0>        -0.1078
       7  C5          8.1570   37.1760   58.7690  C.3       1 <0>         0.1606
       8  C6          9.1810   36.4780   59.6280  C.ar      1 <0>        -0.1304
       9  C7          9.6070   37.0630   60.8060  C.ar      1 <0>        -0.1056
      10  C8         10.5450   36.4240   61.5940  C.ar      1 <0>        -0.1103
      11  C9         11.0570   35.1990   61.2050  C.ar      1 <0>        -0.0678
      12  C10        10.6290   34.6140   60.0270  C.ar      1 <0>        -0.1101
      13  C11         9.6870   35.2520   59.2420  C.ar      1 <0>        -0.0990
      14  C12        12.0800   34.5030   62.0640  C.3       1 <0>        -0.0591
      15  C13        12.3100   35.3120   63.3420  C.3       1 <0>        -0.1452
      16  C14        11.5740   33.1060   62.4290  C.3       1 <0>        -0.1443
      17  O3          8.8020   37.7450   57.6280  O.3       1 <0>        -0.5442
      18  C15         5.7440   36.5380   58.9010  C.3       1 <0>        -0.0797
      19  C16         5.0300   35.2720   59.3750  C.3       1 <0>        -0.1544
      20  C17         5.9480   37.4840   60.0870  C.3       1 <0>        -0.1491
@<TRIPOS>BOND
     1     1     2 1
     2     2     3 1
     3     3     4 1
     4     4     5 2
     5     4     6 1
     6     6     7 1
     7     6    18 1
     8     7     8 1
     9     7    17 1
    10     8    13 ar
    11     8     9 ar
    12     9    10 ar
    13    10    11 ar
    14    11    12 ar
    15    11    14 1
    16    12    13 ar
    17    14    15 1
    18    14    16 1
    19    18    19 1
    20    18    20 1

@<TRIPOS>MOLECULE
ZINC19820405_replica-1.pdb
 26 27 0 0 0
SMALL
GASTEIGER

@<TRIPOS>ATOM
       1  C1          2.2160   35.2760   56.8470  C.3       1 <0>        -0.1561
       2  C2          2.7540   36.0430   58.0560  C.3       1 <0>        -0.1277
       3  C3          3.4900   35.0760   58.9870  C.3       1 <0>         0.1558
       4  C4          2.4740   34.1700   59.6870  C.3       1 <0>         0.0742
       5  O1          3.0320   33.6850   60.9090  O.3       1 <0>        -0.5981
       6  N1          4.4180   34.2550   58.2040  N.pl3     1 <0>        -0.6926
       7  C5          5.7170   34.6790   58.0090  C.ar      1 <0>         0.5051
       8  C6          6.7020   34.4460   58.9930  C.ar      1 <0>        -0.2162
       9  C7          8.0120   34.9020   58.7390  C.ar      1 <0>         0.3222
      10  N2          8.2640   35.5260   57.5920  N.ar      1 <0>        -0.5359
      11  C8          7.3070   35.7230   56.6980  C.ar      1 <0>         0.3652
      12  N3          6.0610   35.3110   56.8940  N.ar      1 <0>        -0.5893
      13  S1          7.7000   36.5640   55.2000  S.3       1 <0>         0.0290
      14  C9          7.0930   38.2210   55.6010  C.3       1 <0>        -0.1522
      15  C10         9.0890   34.6870   59.7330  C.ar      1 <0>        -0.0764
      16  C11         9.8210   35.7700   60.2180  C.ar      1 <0>        -0.0831
      17  C12        10.8210   35.5640   61.1460  C.ar      1 <0>        -0.1229
      18  C13        11.1030   34.2840   61.5900  C.ar      1 <0>        -0.0436
      19  C14        10.3840   33.2050   61.1090  C.ar      1 <0>        -0.1219
      20  C15         9.3800   33.3990   60.1840  C.ar      1 <0>        -0.0593
      21  C16        12.2000   34.0660   62.6000  C.3       1 <0>        -0.0330
      22  C17        12.1640   35.1860   63.6420  C.3       1 <0>        -0.1411
      23  C18        11.9950   32.7180   63.2920  C.3       1 <0>        -0.1487
      24  C19        13.5560   34.0740   61.8890  C.3       1 <0>        -0.1414
      25  C20         6.3800   33.7680   60.2120  C.1       1 <0>         0.2663
      26  N4          6.1250   33.2300   61.1790  N.1       1 <0>        -0.4116
@<TRIPOS>BOND
     1     1     2 1
     2     2     3 1
     3     3     4 1
     4     3     6 1
     5     4     5 1
     6     6     7 1
     7     7    12 ar
     8     7     8 ar
     9     8     9 ar
    10     8    25 1
    11     9    10 ar
    12     9    15 1
    13    10    11 ar
    14    11    12 ar
    15    11    13 1
    16    13    14 1
    17    15    20 ar
    18    15    16 ar
    19    16    17 ar
    20    17    18 ar
    21    18    19 ar
    22    18    21 1
    23    19    20 ar
    24    21    22 1
    25    21    23 1
    26    21    24 1
    27    25    26 3

@<TRIPOS>MOLECULE
ZINC17000012_replica-1.pdb
 21 21 0 0 0
SMALL
GASTEIGER

@<TRIPOS>ATOM
       1  C1          7.4450   33.9180   57.3350  C.3       1 <0>        -0.0867
       2  C2          8.1040   34.9290   58.2380  C.2       1 <0>         0.0755
       3  N1          8.1280   34.7360   59.5030  N.2       1 <0>        -0.2093
       4  N2          8.6350   35.7280   60.3530  N.pl3     1 <0>        -0.5890
       5  C3          9.8180   35.5040   61.0600  C.ar      1 <0>         0.2104
       6  C4         10.4240   36.5440   61.7520  C.ar      1 <0>        -0.1567
       7  C5         11.5900   36.3170   62.4570  C.ar      1 <0>        -0.0841
       8  C6         12.1610   35.0580   62.4640  C.ar      1 <0>        -0.1618
       9  C7         11.5620   34.0190   61.7730  C.ar      1 <0>        -0.0795
      10  C8         10.3940   34.2380   61.0710  C.ar      1 <0>        -0.1809
      11  C9          8.7350   36.1650   57.6510  C.3       1 <0>        -0.1571
      12  C10         7.6840   37.2720   57.5460  C.3       1 <0>         0.0592
      13  C11         8.3230   38.6160   57.9010  C.3       1 <0>         0.4733
      14  F1          9.1140   39.0540   56.8320  F         1 <0>        -0.1619
      15  F2          7.3190   39.5580   58.1520  F         1 <0>        -0.1569
      16  F3          9.1200   38.4690   59.0400  F         1 <0>        -0.1465
      17  C12         7.1410   37.3270   56.1160  C.3       1 <0>         0.4312
      18  F4          5.9820   36.5480   56.0280  F         1 <0>        -0.1636
      19  F5          6.8410   38.6510   55.7820  F         1 <0>        -0.1547
      20  F6          8.1050   36.8300   55.2320  F         1 <0>        -0.1638
      21  O1          6.6130   37.0010   58.4520  O.3       1 <0>        -0.4949
@<TRIPOS>BOND
     1     1     2 1
     2     2     3 2
     3     2    11 1
     4     3     4 1
     5     4     5 1
     6     5    10 ar
     7     5     6 ar
     8     6     7 ar
     9     7     8 ar
    10     8     9 ar
    11     9    10 ar
    12    11    12 1
    13    12    13 1
    14    12    17 1
    15    12    21 1
    16    13    14 1
    17    13    15 1
    18    13    16 1
    19    17    18 1
    20    17    19 1
    21    17    20 1

@<TRIPOS>MOLECULE
ZINC58901308_replica-1.pdb
 23 23 0 0 0
SMALL
GASTEIGER

@<TRIPOS>ATOM
       1  C1          6.3730   37.7170   59.8500  C.3       1 <0>        -0.1537
       2  C2          7.7290   38.4070   59.6980  C.3       1 <0>        -0.1195
       3  C3          8.5070   37.7590   58.5510  C.3       1 <0>        -0.0852
       4  C4          8.9430   36.3750   58.9580  C.ar      1 <0>        -0.0826
       5  C5          9.8000   36.2100   60.0260  C.ar      1 <0>        -0.0587
       6  C6         10.2020   34.9280   60.4030  C.ar      1 <0>        -0.1351
       7  C7          9.7340   33.8200   59.6930  C.ar      1 <0>        -0.0863
       8  C8          8.8770   33.9990   58.6270  C.ar      1 <0>        -0.0839
       9  C9          8.4770   35.2720   58.2630  C.ar      1 <0>        -0.0481
      10  C10         7.5370   35.4610   57.1010  C.3       1 <0>        -0.0928
      11  C11         8.3430   35.7570   55.8350  C.3       1 <0>        -0.1230
      12  C12         7.5410   36.6900   54.9250  C.3       1 <0>        -0.1535
      13  C13         8.3690   32.8050   57.8620  C.3       1 <0>        -0.0836
      14  C14         7.3940   32.0160   58.7370  C.3       1 <0>        -0.1239
      15  C15         7.8580   30.5620   58.8360  C.3       1 <0>        -0.1537
      16  C16        11.1210   34.7430   61.5460  C.2       1 <0>         0.5607
      17  O1         11.4830   35.7040   62.1950  O.2       1 <0>        -0.5361
      18  N1         11.5570   33.5080   61.8670  N.am      1 <0>        -0.7213
      19  C17        12.4680   33.3260   63.0000  C.3       1 <0>         0.1404
      20  C18        12.3980   31.8760   63.4820  C.3       1 <0>        -0.1647
      21  C19        13.8980   33.6500   62.5630  C.3       1 <0>        -0.1281
      22  C20        14.8820   33.1380   63.6160  C.3       1 <0>        -0.1254
      23  C21        16.0410   34.1270   63.7540  C.3       1 <0>        -0.1535
@<TRIPOS>BOND
     1     1     2 1
     2     2     3 1
     3     3     4 1
     4     4     9 ar
     5     4     5 ar
     6     5     6 ar
     7     6     7 ar
     8     6    16 1
     9     7     8 ar
    10     8     9 ar
    11     8    13 1
    12     9    10 1
    13    10    11 1
    14    11    12 1
    15    13    14 1
    16    14    15 1
    17    16    17 2
    18    16    18 am
    19    18    19 1
    20    19    20 1
    21    19    21 1
    22    21    22 1
    23    22    23 1

@<TRIPOS>MOLECULE
ZINC45652012_replica-1.pdb
 19 20 0 0 0
SMALL
GASTEIGER

@<TRIPOS>ATOM
       1  C1         14.4670   33.3880   62.8230  C.3       1 <0>        -0.1573
       2  C2         13.5710   34.2890   61.9710  C.3       1 <0>        -0.1155
       3  C3         12.1600   34.3130   62.5630  C.3       1 <0>        -0.0514
       4  C4         11.6580   32.8780   62.7430  C.3       1 <0>        -0.1473
       5  C5         11.2360   35.0540   61.6310  C.ar      1 <0>        -0.1106
       6  C6         10.7710   36.3100   61.9750  C.ar      1 <0>        -0.0662
       7  C7          9.9250   36.9920   61.1230  C.ar      1 <0>        -0.1778
       8  C8          9.5400   36.4150   59.9200  C.ar      1 <0>         0.1910
       9  C9         10.0090   35.1530   59.5780  C.ar      1 <0>        -0.1883
      10  C10        10.8600   34.4790   60.4320  C.ar      1 <0>        -0.0725
      11  N1          8.6830   37.1010   59.0560  N.pl3     1 <0>        -0.7484
      12  C11         8.5260   36.6530   57.6710  C.3       1 <0>         0.1414
      13  C12         8.4970   37.8670   56.7130  C.3       1 <0>        -0.1656
      14  C13         7.4160   37.4650   55.6770  C.3       1 <0>        -0.0042
      15  N2          6.4010   36.7600   56.5010  N.4       1 <0>        -0.3926
      16  C14         7.1640   35.9580   57.4860  C.3       1 <0>        -0.0154
      17  C15         5.5840   35.8790   55.6550  C.3       1 <0>         0.0272
      18  C16         5.6930   34.4400   56.1640  C.3       1 <0>        -0.1838
      19  C17         4.1240   36.3300   55.7090  C.3       1 <0>        -0.1829
@<TRIPOS>BOND
     1     1     2 1
     2     2     3 1
     3     3     4 1
     4     3     5 1
     5     5    10 ar
     6     5     6 ar
     7     6     7 ar
     8     7     8 ar
     9     8     9 ar
    10     8    11 1
    11     9    10 ar
    12    11    12 1
    13    12    16 1
    14    12    13 1
    15    13    14 1
    16    14    15 1
    17    15    16 1
    18    15    17 1
    19    17    18 1
    20    17    19 1

@<TRIPOS>MOLECULE
ZINC01646196_replica-1.pdb
 28 33 0 0 0
SMALL
GASTEIGER

@<TRIPOS>ATOM
       1  C1          7.7160   32.6350   56.4900  C.3       1 <0>         0.0317
       2  O1          8.5700   33.2070   57.5160  O.3       1 <0>        -0.3512
       3  C2          8.6680   34.5490   57.5520  C.2       1 <0>         0.5134
       4  O2          8.9740   35.1630   56.5490  O.2       1 <0>        -0.4910
       5  C3          8.4040   35.2760   58.8100  C.ar      1 <0>        -0.0743
       6  C4          7.1570   35.8700   59.0270  C.ar      1 <0>        -0.0579
       7  C5          6.9170   36.5460   60.2050  C.ar      1 <0>        -0.0918
       8  C6          7.9120   36.6370   61.1660  C.ar      1 <0>        -0.0672
       9  C7          9.1480   36.0540   60.9580  C.ar      1 <0>        -0.0912
      10  C8          9.4000   35.3710   59.7830  C.ar      1 <0>        -0.0560
      11  C9         10.8210   34.8300   59.8070  C.3       1 <0>        -0.0617
      12  C10        11.1650   34.7980   61.3060  C.3       1 <0>        -0.1139
      13  C11        10.3870   36.0140   61.8390  C.3       1 <0>        -0.0535
      14  C12        12.6620   34.9300   61.5470  C.3       1 <0>        -0.0683
      15  C13        13.0580   33.7080   62.3460  C.ar      1 <0>        -0.0478
      16  C14        14.2860   33.3110   62.8360  C.ar      1 <0>        -0.1201
      17  C15        14.4050   32.1350   63.5510  C.ar      1 <0>        -0.0671
      18  C16        13.2930   31.3380   63.7830  C.ar      1 <0>        -0.1142
      19  C17        12.0610   31.7190   63.2990  C.ar      1 <0>        -0.0235
      20  C18        11.9310   32.9130   62.5710  C.ar      1 <0>        -0.1803
      21  C19        10.7340   33.5220   61.9590  C.2       1 <0>         0.4180
      22  O3          9.6090   33.0720   61.9800  O.2       1 <0>        -0.4179
      23  C20        11.0180   30.6920   63.6810  C.3       1 <0>        -0.0908
      24  C21        11.8160   29.4310   64.0740  C.3       1 <0>        -0.1216
      25  C22        13.1670   30.0260   64.5290  C.3       1 <0>        -0.0816
      26  C23         5.5060   37.0940   60.2020  C.3       1 <0>        -0.0802
      27  C24         4.7710   36.3130   59.0920  C.3       1 <0>        -0.1186
      28  C25         5.9260   35.9150   58.1490  C.3       1 <0>        -0.0886
@<TRIPOS>BOND
     1     1     2 1
     2     2     3 1
     3     3     4 2
     4     3     5 1
     5     5    10 ar
     6     5     6 ar
     7     6    28 1
     8     6     7 ar
     9     7     8 ar
    10     7    26 1
    11     8     9 ar
    12     9    13 1
    13     9    10 ar
    14    10    11 1
    15    11    12 1
    16    12    21 1
    17    12    13 1
    18    12    14 1
    19    14    15 1
    20    15    20 ar
    21    15    16 ar
    22    16    17 ar
    23    17    18 ar
    24    18    25 1
    25    18    19 ar
    26    19    20 ar
    27    19    23 1
    28    20    21 1
    29    21    22 2
    30    23    24 1
    31    24    25 1
    32    26    27 1
    33    27    28 1

@<TRIPOS>MOLECULE
ZINC20340912_replica-1.pdb
 20 21 0 0 0
SMALL
GASTEIGER

@<TRIPOS>ATOM
       1  C1         13.0240   31.9650   63.0860  C.3       1 <0>        -0.1593
       2  C2         11.8570   32.9440   62.9410  C.3       1 <0>        -0.1171
       3  C3         12.3960   34.3320   62.5910  C.3       1 <0>        -0.0201
       4  C4         13.7300   34.1920   61.8570  C.3       1 <0>        -0.1429
       5  C5         12.6040   35.1370   63.8770  C.3       1 <0>        -0.1429
       6  C6         11.4070   35.0470   61.7060  C.ar      1 <0>        -0.1064
       7  C7         10.9250   36.2900   62.0730  C.ar      1 <0>        -0.0744
       8  C8         10.0190   36.9460   61.2630  C.ar      1 <0>        -0.2072
       9  C9          9.5940   36.3580   60.0810  C.ar      1 <0>         0.1304
      10  C10        10.0750   35.1080   59.7180  C.ar      1 <0>        -0.1488
      11  C11        10.9860   34.4580   60.5280  C.ar      1 <0>        -0.0818
      12  O1          8.7020   37.0020   59.2820  O.3       1 <0>        -0.3124
      13  C12         7.3390   36.5820   59.3610  C.3       1 <0>         0.1623
      14  C13         6.5190   37.6470   60.0920  C.3       1 <0>        -0.1660
      15  C14         6.7900   36.3930   57.9700  C.2       1 <0>         0.0998
      16  C15         5.5100   35.9960   57.7780  C.2       1 <0>        -0.2283
      17  S1          5.4420   35.9420   55.9940  S.3       1 <0>         0.0099
      18  C16         7.0750   36.4500   55.6890  C.2       1 <0>         0.3696
      19  N1          7.5470   36.6120   56.9110  N.2       1 <0>        -0.5867
      20  N2          7.7190   36.6300   54.4750  N.pl3     1 <0>        -0.8232
@<TRIPOS>BOND
     1     1     2 1
     2     2     3 1
     3     3     4 1
     4     3     5 1
     5     3     6 1
     6     6    11 ar
     7     6     7 ar
     8     7     8 ar
     9     8     9 ar
    10     9    10 ar
    11     9    12 1
    12    10    11 ar
    13    12    13 1
    14    13    14 1
    15    13    15 1
    16    15    19 1
    17    15    16 2
    18    16    17 1
    19    17    18 1
    20    18    19 2
    21    18    20 1

@<TRIPOS>MOLECULE
ZINC61093393_replica-1.pdb
 19 20 0 0 0
SMALL
GASTEIGER

@<TRIPOS>ATOM
       1  C1         10.2510   36.7390   61.6860  C.3       1 <0>        -0.1726
       2  C2         10.3730   35.7630   60.5130  C.3       1 <0>         0.1450
       3  C3         10.9970   34.4540   61.0010  C.3       1 <0>        -0.1240
       4  C4         12.0590   34.7590   62.0600  C.3       1 <0>        -0.0393
       5  C5         12.5800   33.4670   62.6360  C.2       1 <0>        -0.0147
       6  C6         13.8110   33.2710   63.1400  C.2       1 <0>        -0.2089
       7  C7         13.8690   31.9240   63.5650  C.2       1 <0>        -0.2137
       8  C8         12.6700   31.3780   63.2950  C.2       1 <0>        -0.0413
       9  O1         11.8910   32.3190   62.7370  O.3       1 <0>        -0.1763
      10  N1          9.0430   35.4940   59.9620  N.pl3     1 <0>        -0.7295
      11  C9          8.7770   35.7570   58.6140  C.ar      1 <0>         0.2146
      12  C10         8.5940   37.0640   58.1830  C.ar      1 <0>        -0.1894
      13  C11         8.3310   37.3230   56.8510  C.ar      1 <0>         0.1151
      14  C12         8.2490   36.2770   55.9430  C.ar      1 <0>         0.0345
      15  C13         8.4290   34.9730   56.3710  C.ar      1 <0>        -0.1103
      16  C14         8.6990   34.7110   57.7020  C.ar      1 <0>         0.0400
      17  F1          8.8800   33.4380   58.1170  F         1 <0>        -0.1298
      18  F2          7.9920   36.5310   54.6420  F         1 <0>        -0.1254
      19  F3          8.1550   38.5950   56.4320  F         1 <0>        -0.1213
@<TRIPOS>BOND
     1     1     2 1
     2     2     3 1
     3     2    10 1
     4     3     4 1
     5     4     5 1
     6     5     9 1
     7     5     6 2
     8     6     7 1
     9     7     8 2
    10     8     9 1
    11    10    11 1
    12    11    16 ar
    13    11    12 ar
    14    12    13 ar
    15    13    14 ar
    16    13    19 1
    17    14    15 ar
    18    14    18 1
    19    15    16 ar
    20    16    17 1

@<TRIPOS>MOLECULE
ZINC41661045_replica-1.pdb
 30 34 0 0 0
SMALL
GASTEIGER

@<TRIPOS>ATOM
       1  C1          0.3490   34.4710   60.7720  C.3       1 <0>        -0.1043
       2  C2          1.4820   34.4270   59.7780  C.2       1 <0>        -0.0658
       3  C3          1.7310   35.4580   58.9070  C.2       1 <0>        -0.1793
       4  C4          2.7690   35.3540   58.0390  C.2       1 <0>        -0.2387
       5  S1          3.4410   33.8510   58.3760  S.3       1 <0>         0.2369
       6  C5          2.3480   33.3400   59.6880  C.2       1 <0>        -0.2090
       7  C6          2.3570   32.1440   60.4400  C.2       1 <0>         0.0505
       8  C7          1.5410   31.1100   60.0880  C.2       1 <0>        -0.0616
       9  C8          1.4470   29.8600   60.7570  C.2       1 <0>         0.4176
      10  O1          2.0690   29.5000   61.7440  O.2       1 <0>        -0.4288
      11  C9          0.4390   29.0930   60.0040  C.ar      1 <0>        -0.2954
      12  C10        -0.1000   27.8150   60.1470  C.ar      1 <0>         0.0253
      13  C11        -1.0450   27.3760   59.2650  C.ar      1 <0>        -0.1819
      14  C12        -1.4750   28.1970   58.2220  C.ar      1 <0>         0.2099
      15  C13        -0.9500   29.4680   58.0710  C.ar      1 <0>        -0.1834
      16  C14         0.0140   29.9300   58.9600  C.ar      1 <0>         0.1797
      17  O2          0.6790   31.1030   59.0440  O.3       1 <0>        -0.2082
      18  C15        -1.4120   30.3690   56.9540  C.3       1 <0>         0.0999
      19  N1         -2.0920   29.5690   55.9260  N.3       1 <0>        -0.5565
      20  C16        -3.0940   28.6890   56.5500  C.3       1 <0>         0.2189
      21  O3         -2.4150   27.7270   57.3600  O.3       1 <0>        -0.2925
      22  C17        -2.7090   30.4320   54.9100  C.3       1 <0>         0.0585
      23  C18        -2.1920   30.0400   53.5240  C.3       1 <0>        -0.1130
      24  C19        -0.8770   29.2710   53.6690  C.3       1 <0>        -0.0796
      25  C20        -0.9510   27.9950   52.8710  C.ar      1 <0>        -0.0830
      26  C21        -1.6830   27.9530   51.7000  C.ar      1 <0>        -0.1164
      27  C22        -1.7510   26.7820   50.9690  C.ar      1 <0>        -0.1176
      28  C23        -1.0860   25.6530   51.4080  C.ar      1 <0>        -0.1241
      29  C24        -0.3520   25.6950   52.5790  C.ar      1 <0>        -0.1181
      30  C25        -0.2810   26.8670   53.3090  C.ar      1 <0>        -0.1184
@<TRIPOS>BOND
     1     1     2 1
     2     2     6 2
     3     2     3 1
     4     3     4 2
     5     4     5 1
     6     5     6 1
     7     6     7 1
     8     7     8 2
     9     8    17 1
    10     8     9 1
    11     9    10 2
    12     9    11 1
    13    11    16 ar
    14    11    12 ar
    15    12    13 ar
    16    13    14 ar
    17    14    21 1
    18    14    15 ar
    19    15    16 ar
    20    15    18 1
    21    16    17 1
    22    18    19 1
    23    19    20 1
    24    19    22 1
    25    20    21 1
    26    22    23 1
    27    23    24 1
    28    24    25 1
    29    25    30 ar
    30    25    26 ar
    31    26    27 ar
    32    27    28 ar
    33    28    29 ar
    34    29    30 ar

@<TRIPOS>MOLECULE
ZINC12603194_replica-1.pdb
 25 26 0 0 0
SMALL
GASTEIGER

@<TRIPOS>ATOM
       1  C1         12.7740   31.8130   63.0600  C.3       1 <0>        -0.1538
       2  C2         13.7690   32.9640   63.2190  C.3       1 <0>         0.0633
       3  O1         13.4140   34.0400   62.3110  O.3       1 <0>        -0.3549
       4  C3         12.3970   34.8430   62.6810  C.2       1 <0>         0.5136
       5  O2         12.2990   35.2060   63.8370  O.2       1 <0>        -0.5102
       6  C4         11.4020   35.2810   61.6840  C.ar      1 <0>        -0.1689
       7  C5         10.7730   36.5210   61.8190  C.ar      1 <0>        -0.0093
       8  C6          9.8410   36.9230   60.8890  C.ar      1 <0>        -0.2269
       9  C7          9.5330   36.1010   59.8100  C.ar      1 <0>         0.1692
      10  C8         10.1560   34.8660   59.6730  C.ar      1 <0>        -0.1612
      11  C9         11.0860   34.4550   60.6010  C.ar      1 <0>        -0.0180
      12  O3          8.6180   36.5040   58.8940  O.3       1 <0>        -0.2777
      13  C10         7.8530   37.6700   59.2070  C.3       1 <0>         0.0630
      14  C11         7.8480   38.6150   58.0050  C.3       1 <0>        -0.1788
      15  C12         6.4390   37.2700   59.5380  C.2       1 <0>         0.5199
      16  O4          5.7880   37.9320   60.3190  O.2       1 <0>        -0.5106
      17  N1          5.8960   36.1750   58.9670  N.am      1 <0>        -0.7202
      18  C13         4.5210   35.7870   59.2890  C.3       1 <0>         0.1522
      19  C14         3.6270   36.0140   58.0680  C.3       1 <0>        -0.1305
      20  C15         2.1920   35.6070   58.4050  C.3       1 <0>        -0.1177
      21  C16         2.1580   34.1270   58.7930  C.3       1 <0>        -0.1175
      22  C17         3.0510   33.9010   60.0150  C.3       1 <0>        -0.0837
      23  C18         4.4880   34.3070   59.6780  C.3       1 <0>        -0.0923
      24  C19         5.3810   34.0800   60.8990  C.3       1 <0>        -0.1511
      25  C20         3.0180   32.4210   60.4040  C.3       1 <0>        -0.1497
@<TRIPOS>BOND
     1     1     2 1
     2     2     3 1
     3     3     4 1
     4     4     5 2
     5     4     6 1
     6     6    11 ar
     7     6     7 ar
     8     7     8 ar
     9     8     9 ar
    10     9    10 ar
    11     9    12 1
    12    10    11 ar
    13    12    13 1
    14    13    14 1
    15    13    15 1
    16    15    16 2
    17    15    17 am
    18    17    18 1
    19    18    23 1
    20    18    19 1
    21    19    20 1
    22    20    21 1
    23    21    22 1
    24    22    23 1
    25    22    25 1
    26    23    24 1

@<TRIPOS>MOLECULE
ZINC04000027_replica-1.pdb
 27 28 0 0 0
SMALL
GASTEIGER

@<TRIPOS>ATOM
       1  C1          7.7520   32.9450   57.6540  C.3       1 <0>        -0.1513
       2  C2          7.4470   33.9000   56.4980  C.3       1 <0>        -0.0961
       3  C3          6.4830   33.2260   55.5210  C.3       1 <0>        -0.1538
       4  C4          6.8070   35.1770   57.0460  C.3       1 <0>        -0.1188
       5  C5          5.4230   34.8510   57.6110  C.3       1 <0>        -0.1276
       6  C6          5.1390   35.7530   58.8150  C.3       1 <0>        -0.0491
       7  C7          5.4860   35.0070   60.1070  C.3       1 <0>        -0.1464
       8  C8          4.5810   33.7800   60.2370  C.3       1 <0>         0.0577
       9  O1          3.2140   34.1950   60.2220  O.3       1 <0>        -0.3668
      10  C9          2.8190   34.8570   59.0180  C.3       1 <0>         0.0951
      11  C10         3.6540   36.1270   58.8350  C.3       1 <0>        -0.1487
      12  C11         1.3360   35.2280   59.1010  C.3       1 <0>        -0.0877
      13  C12         0.6510   34.8900   57.7760  C.3       1 <0>        -0.1488
      14  C13         0.6760   34.4370   60.2330  C.3       1 <0>        -0.1469
      15  C14         5.9850   37.0240   58.7140  C.3       1 <0>        -0.1408
      16  C15         6.4060   37.4690   60.1160  C.3       1 <0>        -0.0150
      17  C16         8.5700   37.8440   59.0970  C.3       1 <0>         0.0602
      18  C17         9.3890   36.8180   59.8380  C.ar      1 <0>        -0.2391
      19  C18         9.5980   35.5690   59.2820  C.ar      1 <0>        -0.0381
      20  C19        10.3510   34.6280   59.9560  C.ar      1 <0>        -0.2010
      21  C20        10.8920   34.9340   61.1990  C.ar      1 <0>         0.2517
      22  C21        10.6750   36.1870   61.7570  C.ar      1 <0>        -0.2010
      23  C22         9.9250   37.1250   61.0760  C.ar      1 <0>        -0.0382
      24  N1         11.6500   33.9840   61.8850  N.pl3     1 <0>        -0.6229
      25  C23        11.0380   32.7200   62.3030  C.3       1 <0>         0.0814
      26  C24        13.0590   34.2500   62.1880  C.3       1 <0>         0.0814
      27  N2          7.5480   38.3950   60.0060  N.4       1 <0>        -0.5188
@<TRIPOS>BOND
     1     1     2 1
     2     2     3 1
     3     2     4 1
     4     4     5 1
     5     5     6 1
     6     6    11 1
     7     6     7 1
     8     6    15 1
     9     7     8 1
    10     8     9 1
    11     9    10 1
    12    10    11 1
    13    10    12 1
    14    12    13 1
    15    12    14 1
    16    15    16 1
    17    16    27 1
    18    17    18 1
    19    17    27 1
    20    18    23 ar
    21    18    19 ar
    22    19    20 ar
    23    20    21 ar
    24    21    22 ar
    25    21    24 1
    26    22    23 ar
    27    24    25 1
    28    24    26 1

@<TRIPOS>MOLECULE
ZINC03256377_replica-1.pdb
 26 29 0 0 0
SMALL
GASTEIGER

@<TRIPOS>ATOM
       1  C1          9.2450   37.9020   60.0840  C.3       1 <0>        -0.0827
       2  C2          9.5550   36.4620   60.4030  C.2       1 <0>         0.1514
       3  C3          8.7770   35.3320   59.9890  C.2       1 <0>        -0.2419
       4  C4          7.6180   35.0550   59.2480  C.2       1 <0>         0.0090
       5  C5          7.2080   33.7640   59.0930  C.2       1 <0>        -0.2440
       6  S1          8.4570   32.8480   59.9810  S.3       1 <0>         0.1618
       7  C6          9.4480   34.2190   60.5160  C.2       1 <0>         0.0495
       8  N1         10.5360   34.6500   61.1890  N.pl3     1 <0>        -0.2818
       9  N2         10.5710   36.0470   61.0990  N.2       1 <0>        -0.2613
      10  C7         11.4640   33.8420   61.8600  C.ar      1 <0>         0.1361
      11  C8         11.0610   32.6360   62.4180  C.ar      1 <0>        -0.0981
      12  C9         11.9780   31.8400   63.0740  C.ar      1 <0>        -0.1274
      13  C10        13.2970   32.2480   63.1860  C.ar      1 <0>         0.1053
      14  C11        13.6990   33.4540   62.6350  C.ar      1 <0>        -0.1310
      15  C12        12.7860   34.2500   61.9740  C.ar      1 <0>        -0.0751
      16  F1         14.1920   31.4700   63.8340  F         1 <0>        -0.1302
      17  C13         6.0380   33.2540   58.3720  C.2       1 <0>         0.6104
      18  O1          5.8400   32.0550   58.3060  O.2       1 <0>        -0.5229
      19  N3          5.1830   34.1120   57.7820  N.am      1 <0>        -0.7146
      20  C14         4.0150   33.6020   57.0610  C.3       1 <0>         0.1525
      21  C15         2.7570   33.8280   57.9030  C.3       1 <0>        -0.1326
      22  C16         2.5810   35.3250   58.1640  C.3       1 <0>        -0.1198
      23  C17         2.4420   36.0620   56.8320  C.3       1 <0>        -0.1218
      24  C18         3.7000   35.8360   55.9900  C.3       1 <0>        -0.1169
      25  C19         3.8750   34.3390   55.7280  C.3       1 <0>        -0.1001
      26  C20         5.1330   34.1140   54.8860  C.3       1 <0>        -0.1498
@<TRIPOS>BOND
     1     1     2 1
     2     2     9 2
     3     2     3 1
     4     3     7 2
     5     3     4 1
     6     4     5 2
     7     5     6 1
     8     5    17 1
     9     6     7 1
    10     7     8 1
    11     8     9 1
    12     8    10 1
    13    10    15 ar
    14    10    11 ar
    15    11    12 ar
    16    12    13 ar
    17    13    14 ar
    18    13    16 1
    19    14    15 ar
    20    17    18 2
    21    17    19 am
    22    19    20 1
    23    20    25 1
    24    20    21 1
    25    21    22 1
    26    22    23 1
    27    23    24 1
    28    24    25 1
    29    25    26 1

@<TRIPOS>MOLECULE
ZINC22076485_replica-1.pdb
 25 28 0 0 0
SMALL
GASTEIGER

@<TRIPOS>ATOM
       1  C1          7.7540   37.8140   56.5000  C.ar      1 <0>        -0.1484
       2  C2          8.7100   38.4550   57.2750  C.ar      1 <0>        -0.0996
       3  C3          8.6080   38.4670   58.6490  C.ar      1 <0>        -0.1322
       4  C4          7.5370   37.8310   59.2680  C.ar      1 <0>         0.0876
       5  C5          6.5710   37.1820   58.4770  C.ar      1 <0>        -0.1044
       6  C6          6.6910   37.1860   57.0860  C.ar      1 <0>        -0.0701
       7  C7          5.5920   36.6220   59.4120  C.2       1 <0>        -0.1749
       8  C8          6.0000   36.9470   60.6490  C.2       1 <0>         0.0658
       9  N1          7.1600   37.6690   60.5820  N.pl3     1 <0>        -0.6074
      10  C9          4.3600   35.8310   59.0540  C.3       1 <0>        -0.0382
      11  C10         4.7740   34.4820   58.4630  C.3       1 <0>         0.0560
      12  N2          5.6080   33.7580   59.4330  N.3       1 <0>        -0.6689
      13  C11         6.7140   33.0620   58.7610  C.3       1 <0>         0.1310
      14  C12         8.0120   33.7580   59.0790  C.2       1 <0>        -0.0045
      15  C13         8.7680   34.4480   58.2040  C.2       1 <0>        -0.1825
      16  C14         9.8850   34.9320   58.9140  C.2       1 <0>        -0.1752
      17  C15         9.7510   34.4980   60.1960  C.2       1 <0>         0.0174
      18  O1          8.6110   33.7870   60.2810  O.3       1 <0>        -0.1671
      19  C16        10.6940   34.7620   61.3030  C.ar      1 <0>        -0.0537
      20  C17        11.3970   33.7080   61.8920  C.ar      1 <0>        -0.0683
      21  C18        12.2760   33.9620   62.9240  C.ar      1 <0>        -0.1293
      22  C19        12.4630   35.2560   63.3770  C.ar      1 <0>        -0.0799
      23  C20        11.7730   36.3040   62.8000  C.ar      1 <0>        -0.1528
      24  C21        10.8920   36.0670   61.7620  C.ar      1 <0>         0.1241
      25  F1         10.2200   37.0930   61.1930  F         1 <0>        -0.1287
@<TRIPOS>BOND
     1     1     6 ar
     2     1     2 ar
     3     2     3 ar
     4     3     4 ar
     5     4     9 1
     6     4     5 ar
     7     5     6 ar
     8     5     7 1
     9     7     8 2
    10     7    10 1
    11     8     9 1
    12    10    11 1
    13    11    12 1
    14    12    13 1
    15    13    14 1
    16    14    18 1
    17    14    15 2
    18    15    16 1
    19    16    17 2
    20    17    18 1
    21    17    19 1
    22    19    24 ar
    23    19    20 ar
    24    20    21 ar
    25    21    22 ar
    26    22    23 ar
    27    23    24 ar
    28    24    25 1

@<TRIPOS>MOLECULE
ZINC41121282_replica-1.pdb
 17 17 0 0 0
SMALL
GASTEIGER

@<TRIPOS>ATOM
       1  C1          0.9560   27.7940   57.7630  C.3       1 <0>        -0.1526
       2  C2         -0.4910   28.2430   57.5570  C.3       1 <0>        -0.0673
       3  C3         -1.4160   27.0260   57.6080  C.3       1 <0>        -0.1496
       4  C4         -0.8820   29.2280   58.6610  C.3       1 <0>        -0.1409
       5  C5         -0.6230   28.9270   56.1950  C.3       1 <0>         0.1731
       6  C6         -0.3910   30.4080   56.3510  C.2       1 <0>         0.4380
       7  O1          0.7360   30.8420   56.3900  O.2       1 <0>        -0.4877
       8  O2         -1.4360   31.2450   56.4450  O.3       1 <0>        -0.3493
       9  C7         -2.6130   30.8970   55.7140  C.3       1 <0>         0.0291
      10  N1          0.3690   28.3720   55.2710  N.pl3     1 <0>        -0.7202
      11  C8         -0.0450   27.6230   54.1650  C.ar      1 <0>         0.2107
      12  C9          0.3150   26.2870   54.0560  C.ar      1 <0>        -0.1680
      13  C10        -0.0960   25.5490   52.9640  C.ar      1 <0>        -0.1032
      14  C11        -0.8670   26.1400   51.9780  C.ar      1 <0>         0.0417
      15  C12        -1.2270   27.4730   52.0840  C.ar      1 <0>        -0.1034
      16  C13        -0.8230   28.2140   53.1780  C.ar      1 <0>        -0.1580
      17  F1         -1.2680   25.4170   50.9100  F         1 <0>        -0.1448
@<TRIPOS>BOND
     1     1     2 1
     2     2     3 1
     3     2     4 1
     4     2     5 1
     5     5     6 1
     6     5    10 1
     7     6     7 2
     8     6     8 1
     9     8     9 1
    10    10    11 1
    11    11    16 ar
    12    11    12 ar
    13    12    13 ar
    14    13    14 ar
    15    14    15 ar
    16    14    17 1
    17    15    16 ar

@<TRIPOS>MOLECULE
ZINC41650211_replica-1.pdb
 21 22 0 0 0
SMALL
GASTEIGER

@<TRIPOS>ATOM
       1  C1         12.3410   29.6450   64.5320  C.3       1 <0>        -0.1539
       2  C2         12.9680   30.5280   63.4510  C.3       1 <0>         0.0539
       3  O1         12.8000   31.9030   63.8040  O.3       1 <0>        -0.3111
       4  C3         12.1280   32.6890   62.9200  C.ar      1 <0>         0.0809
       5  C4         12.5820   33.9720   62.6500  C.ar      1 <0>        -0.1083
       6  C5         11.9010   34.7710   61.7520  C.ar      1 <0>        -0.1576
       7  C6         10.7630   34.2890   61.1190  C.ar      1 <0>         0.2513
       8  C7         10.3100   33.0050   61.3890  C.ar      1 <0>        -0.0890
       9  C8         10.9940   32.2050   62.2840  C.ar      1 <0>        -0.0525
      10  N1          9.0960   32.4900   60.7160  N.pl3     1 <0>         0.0435
      11  O2          8.9760   32.6050   59.5190  O.2       1 <0>        -0.1744
      12  O3          8.2270   31.9550   61.3630  O.3       1 <0>        -0.1465
      13  N2         10.0730   35.0980   60.2090  N.pl3     1 <0>        -0.7246
      14  C9          8.8960   35.8510   60.6470  C.3       1 <0>         0.1475
      15  C10         9.3110   36.8850   61.6960  C.3       1 <0>        -0.1770
      16  C11         8.2720   36.5660   59.4460  C.3       1 <0>        -0.0930
      17  C12         8.9110   36.0460   58.1560  C.3       1 <0>        -0.1185
      18  C13         8.2880   36.7600   56.9550  C.3       1 <0>        -0.1196
      19  C14         8.5330   38.2660   57.0730  C.3       1 <0>        -0.1209
      20  C15         7.8940   38.7860   58.3630  C.3       1 <0>        -0.1197
      21  C16         8.5170   38.0720   59.5640  C.3       1 <0>        -0.1129
@<TRIPOS>BOND
     1     1     2 1
     2     2     3 1
     3     3     4 1
     4     4     9 ar
     5     4     5 ar
     6     5     6 ar
     7     6     7 ar
     8     7     8 ar
     9     7    13 1
    10     8     9 ar
    11     8    10 1
    12    10    11 2
    13    10    12 1
    14    13    14 1
    15    14    15 1
    16    14    16 1
    17    16    21 1
    18    16    17 1
    19    17    18 1
    20    18    19 1
    21    19    20 1
    22    20    21 1

@<TRIPOS>MOLECULE
ZINC44219212_replica-1.pdb
 20 21 0 0 0
SMALL
GASTEIGER

@<TRIPOS>ATOM
       1  C1         12.9630   29.9680   63.9120  C.3       1 <0>        -0.1489
       2  C2         12.7590   31.2100   63.0420  C.3       1 <0>        -0.0957
       3  C3         13.7670   32.2880   63.4470  C.3       1 <0>        -0.1120
       4  C4         13.5640   33.5290   62.5770  C.3       1 <0>        -0.1157
       5  C5         12.1430   34.0610   62.7730  C.3       1 <0>         0.0906
       6  C6         11.1340   32.9840   62.3660  C.3       1 <0>        -0.1416
       7  C7         11.3380   31.7420   63.2370  C.3       1 <0>        -0.1123
       8  O1         11.9520   35.2210   61.9590  O.3       1 <0>        -0.3718
       9  C8         10.7330   35.2150   61.2150  C.3       1 <0>         0.0370
      10  C9         10.1850   36.6410   61.1220  C.3       1 <0>         0.1540
      11  C10         9.4130   36.8000   59.8370  C.ar      1 <0>        -0.1241
      12  C11         9.3280   35.7450   58.9470  C.ar      1 <0>        -0.1066
      13  C12         8.6200   35.8900   57.7690  C.ar      1 <0>        -0.1145
      14  C13         7.9960   37.0900   57.4810  C.ar      1 <0>        -0.0708
      15  C14         8.0790   38.1440   58.3720  C.ar      1 <0>        -0.1118
      16  C15         8.7840   37.9970   59.5520  C.ar      1 <0>        -0.1039
      17  C16         7.2230   37.2490   56.1970  C.3       1 <0>        -0.0595
      18  C17         7.2940   38.7060   55.7350  C.3       1 <0>        -0.1455
      19  C18         7.8280   36.3430   55.1220  C.3       1 <0>        -0.1451
      20  O2          9.3200   36.8930   62.2310  O.3       1 <0>        -0.5441
@<TRIPOS>BOND
     1     1     2 1
     2     2     7 1
     3     2     3 1
     4     3     4 1
     5     4     5 1
     6     5     6 1
     7     5     8 1
     8     6     7 1
     9     8     9 1
    10     9    10 1
    11    10    11 1
    12    10    20 1
    13    11    16 ar
    14    11    12 ar
    15    12    13 ar
    16    13    14 ar
    17    14    15 ar
    18    14    17 1
    19    15    16 ar
    20    17    18 1
    21    17    19 1

@<TRIPOS>MOLECULE
ZINC66875791_replica-1.pdb
 23 23 0 0 0
SMALL
GASTEIGER

@<TRIPOS>ATOM
       1  C1          2.9410   36.0150   58.5180  C.3       1 <0>        -0.1539
       2  C2          4.1810   35.5040   57.7820  C.3       1 <0>         0.0797
       3  O1          4.8640   34.5540   58.6030  O.3       1 <0>        -0.3610
       4  C3          5.9370   34.9980   59.2860  C.2       1 <0>         0.6568
       5  O2          5.8410   35.2560   60.4690  O.2       1 <0>        -0.5653
       6  N1          7.1180   35.1570   58.6550  N.am      1 <0>        -0.6978
       7  C4          8.2850   35.6400   59.3970  C.3       1 <0>         0.1789
       8  C5          8.9340   36.7960   58.6320  C.3       1 <0>        -0.1035
       9  C6          8.3270   36.8820   57.2300  C.3       1 <0>        -0.1625
      10  C7          8.6830   38.1070   59.3790  C.3       1 <0>        -0.1540
      11  C8          9.2810   34.5190   59.5530  C.2       1 <0>         0.4674
      12  O3          8.9900   33.4000   59.2010  O.2       1 <0>        -0.4914
      13  O4         10.4890   34.7640   60.0820  O.3       1 <0>        -0.3288
      14  C9         10.5510   34.9550   61.4970  C.3       1 <0>         0.1280
      15  C10        10.8940   36.4150   61.8010  C.3       1 <0>        -0.1672
      16  C11        11.6130   34.0580   62.0790  C.ar      1 <0>        -0.1387
      17  C12        12.8830   34.5520   62.3110  C.ar      1 <0>        -0.0398
      18  C13        13.8580   33.7310   62.8450  C.ar      1 <0>        -0.1615
      19  C14        13.5630   32.4120   63.1480  C.ar      1 <0>         0.1374
      20  C15        12.2920   31.9160   62.9160  C.ar      1 <0>        -0.1903
      21  C16        11.3150   32.7420   62.3870  C.ar      1 <0>         0.1439
      22  F1         10.0730   32.2610   62.1650  F         1 <0>        -0.1252
      23  F2         14.5170   31.6090   63.6700  F         1 <0>        -0.1272
@<TRIPOS>BOND
     1     1     2 1
     2     2     3 1
     3     3     4 1
     4     4     5 2
     5     4     6 am
     6     6     7 1
     7     7     8 1
     8     7    11 1
     9     8     9 1
    10     8    10 1
    11    11    12 2
    12    11    13 1
    13    13    14 1
    14    14    15 1
    15    14    16 1
    16    16    21 ar
    17    16    17 ar
    18    17    18 ar
    19    18    19 ar
    20    19    20 ar
    21    19    23 1
    22    20    21 ar
    23    21    22 1

@<TRIPOS>MOLECULE
ZINC02216927_replica-1.pdb
 29 33 0 0 0
SMALL
GASTEIGER

@<TRIPOS>ATOM
       1  C1         13.8310   31.8860   63.3370  C.3       1 <0>        -0.0757
       2  C2         12.8570   32.9460   62.8910  C.2       1 <0>         0.0938
       3  C3         12.9910   34.3230   63.1040  C.2       1 <0>        -0.2519
       4  C4         11.9170   34.9360   62.5570  C.2       1 <0>         0.1105
       5  N1         11.1260   33.9740   62.0150  N.pl3     1 <0>        -0.3165
       6  N2         11.7400   32.7360   62.2460  N.2       1 <0>        -0.2567
       7  C5          9.9170   34.1810   61.3520  C.ar      1 <0>         0.5987
       8  N3          9.2520   33.1400   60.8740  N.ar      1 <0>        -0.4766
       9  C6          8.1070   33.3140   60.2430  C.ar      1 <0>         0.1535
      10  C7          7.5530   34.5970   60.0620  C.ar      1 <0>        -0.1891
      11  C8          6.2800   34.6450   59.3400  C.2       1 <0>        -0.0827
      12  C9          5.7640   33.4680   58.9310  C.2       1 <0>        -0.1351
      13  S1          6.9250   32.2420   59.4680  S.3       1 <0>         0.1379
      14  C10         4.4830   33.2490   58.1850  C.3       1 <0>        -0.0424
      15  C11         3.6470   34.5340   58.2690  C.3       1 <0>        -0.1156
      16  C12         4.5440   35.7280   57.9300  C.3       1 <0>        -0.1198
      17  C13         5.5520   35.9560   59.0570  C.3       1 <0>        -0.0671
      18  C14         8.3150   35.6750   60.5930  C.ar      1 <0>         0.2307
      19  N4          9.4550   35.4160   61.2130  N.ar      1 <0>        -0.5477
      20  S2          7.7440   37.3340   60.4350  S.3       1 <0>         0.0196
      21  C15         8.8880   37.9430   59.1710  C.3       1 <0>        -0.0873
      22  C16         8.4290   37.4810   57.8120  C.ar      1 <0>        -0.0956
      23  C17         8.8380   36.2540   57.3260  C.ar      1 <0>        -0.0707
      24  C18         8.4160   35.8280   56.0800  C.ar      1 <0>        -0.1515
      25  C19         7.5840   36.6330   55.3200  C.ar      1 <0>         0.1088
      26  C20         7.1750   37.8620   55.8090  C.ar      1 <0>        -0.1515
      27  C21         7.5970   38.2850   57.0550  C.ar      1 <0>        -0.0710
      28  F1          7.1720   36.2180   54.1020  F         1 <0>        -0.1358
      29  C22        11.6470   36.4190   62.5500  C.3       1 <0>        -0.1022
@<TRIPOS>BOND
     1     1     2 1
     2     2     6 2
     3     2     3 1
     4     3     4 2
     5     4     5 1
     6     4    29 1
     7     5     6 1
     8     5     7 1
     9     7    19 ar
    10     7     8 ar
    11     8     9 ar
    12     9    13 1
    13     9    10 ar
    14    10    11 1
    15    10    18 ar
    16    11    17 1
    17    11    12 2
    18    12    13 1
    19    12    14 1
    20    14    15 1
    21    15    16 1
    22    16    17 1
    23    18    19 ar
    24    18    20 1
    25    20    21 1
    26    21    22 1
    27    22    27 ar
    28    22    23 ar
    29    23    24 ar
    30    24    25 ar
    31    25    26 ar
    32    25    28 1
    33    26    27 ar

@<TRIPOS>MOLECULE
ZINC37778024_replica-1.pdb
 19 20 0 0 0
SMALL
GASTEIGER

@<TRIPOS>ATOM
       1  C1         -3.0940   30.6230   55.2460  C.3       1 <0>        -0.1527
       2  C2         -2.6750   30.4070   53.7900  C.3       1 <0>         0.0593
       3  O1         -1.2560   30.2550   53.7200  O.3       1 <0>        -0.3212
       4  C3         -0.7750   28.9860   53.6360  C.ar      1 <0>         0.0623
       5  C4         -1.2190   28.1390   52.6350  C.ar      1 <0>        -0.1624
       6  C5         -0.7280   26.8480   52.5510  C.ar      1 <0>        -0.1059
       7  C6          0.2070   26.4000   53.4650  C.ar      1 <0>        -0.1056
       8  C7          0.6570   27.2400   54.4680  C.ar      1 <0>        -0.1651
       9  C8          0.1740   28.5370   54.5540  C.ar      1 <0>         0.1915
      10  N1          0.6310   29.3900   55.5640  N.pl3     1 <0>        -0.7392
      11  C9         -0.0180   29.3840   56.8780  C.3       1 <0>         0.2392
      12  C10         0.6290   28.3160   57.7620  C.3       1 <0>        -0.1663
      13  C11         0.1420   30.7350   57.5240  C.2       1 <0>        -0.1586
      14  C12        -0.1270   31.9630   57.0150  C.2       1 <0>        -0.1404
      15  C13         0.0990   33.0780   57.7990  C.2       1 <0>        -0.1641
      16  C14         0.5840   32.9130   59.0540  C.2       1 <0>        -0.1376
      17  S1          0.7300   31.1360   59.1620  S.3       1 <0>         0.0432
      18  C15         0.9110   33.9560   60.0900  C.3       1 <0>        -0.0729
      19  C16        -1.2150   25.9290   51.4610  C.3       1 <0>        -0.1085
@<TRIPOS>BOND
     1     1     2 1
     2     2     3 1
     3     3     4 1
     4     4     9 ar
     5     4     5 ar
     6     5     6 ar
     7     6     7 ar
     8     6    19 1
     9     7     8 ar
    10     8     9 ar
    11     9    10 1
    12    10    11 1
    13    11    12 1
    14    11    13 1
    15    13    17 1
    16    13    14 2
    17    14    15 1
    18    15    16 2
    19    16    17 1
    20    16    18 1

@<TRIPOS>MOLECULE
ZINC59281834_replica-1.pdb
 22 25 0 0 0
SMALL
GASTEIGER

@<TRIPOS>ATOM
       1  C1          7.3900   38.6740   56.1550  C.ar      1 <0>        -0.1186
       2  C2          7.0730   37.4360   55.6010  C.ar      1 <0>        -0.1144
       3  C3          7.4350   36.2710   56.2040  C.ar      1 <0>        -0.1046
       4  C4          8.1450   36.3070   57.4150  C.ar      1 <0>        -0.0265
       5  C5          8.4790   37.6060   57.9990  C.ar      1 <0>        -0.0522
       6  C6          8.0750   38.7780   57.3240  C.ar      1 <0>        -0.1052
       7  C7          9.1840   37.6770   59.2040  C.ar      1 <0>        -0.0839
       8  C8          9.5740   36.5060   59.8570  C.ar      1 <0>        -0.0442
       9  C9         10.2860   36.5560   61.0740  C.ar      1 <0>        -0.1171
      10  C10        10.6510   35.3980   61.6850  C.ar      1 <0>        -0.1050
      11  C11        10.3390   34.1550   61.1400  C.ar      1 <0>        -0.1107
      12  C12         9.6540   34.0410   59.9680  C.ar      1 <0>        -0.0871
      13  C13         9.2480   35.1980   59.2870  C.ar      1 <0>        -0.0254
      14  C14         8.5340   35.1150   58.0680  C.ar      1 <0>        -0.0456
      15  C15         8.2170   33.8580   57.5110  C.2       1 <0>         0.0183
      16  C16         7.0200   33.2470   57.8230  C.2       1 <0>        -0.1666
      17  C17         6.4980   31.9930   57.3910  C.2       1 <0>         0.4811
      18  O1          7.2010   31.2040   56.5460  O.3       1 <0>        -0.5776
      19  N1          5.3330   31.6280   57.8260  N.2       1 <0>        -0.6224
      20  C18         4.6190   32.3960   58.6650  C.2       1 <0>         0.3768
      21  S1          5.6970   33.8040   58.8890  S.3       1 <0>        -0.1394
      22  S2          3.0790   32.1000   59.3490  S.2       1 <0>        -0.5268
@<TRIPOS>BOND
     1     1     6 ar
     2     1     2 ar
     3     2     3 ar
     4     3     4 ar
     5     4    14 ar
     6     4     5 ar
     7     5     6 ar
     8     5     7 ar
     9     7     8 ar
    10     8    13 ar
    11     8     9 ar
    12     9    10 ar
    13    10    11 ar
    14    11    12 ar
    15    12    13 ar
    16    13    14 ar
    17    14    15 1
    18    15    16 2
    19    16    21 1
    20    16    17 1
    21    17    18 1
    22    17    19 2
    23    19    20 1
    24    20    21 1
    25    20    22 2

@<TRIPOS>MOLECULE
ZINC35548206_replica-1.pdb
 20 21 0 0 0
SMALL
GASTEIGER

@<TRIPOS>ATOM
       1  C1          8.5480   38.7500   57.0640  C.3       1 <0>        -0.1873
       2  C2          7.8630   39.1460   58.3740  C.3       1 <0>        -0.0130
       3  N1          8.4640   38.3980   59.4870  N.4       1 <0>        -0.5102
       4  C3          8.5670   36.9780   59.1240  C.3       1 <0>         0.1932
       5  C4          9.5660   36.3010   60.0260  C.ar      1 <0>        -0.1537
       6  C5         10.0100   36.9390   61.1700  C.ar      1 <0>        -0.1100
       7  C6         10.9260   36.3170   61.9980  C.ar      1 <0>        -0.1026
       8  C7         11.3980   35.0570   61.6820  C.ar      1 <0>        -0.0318
       9  C8         10.9540   34.4180   60.5390  C.ar      1 <0>        -0.1103
      10  C9         10.0350   35.0380   59.7140  C.ar      1 <0>        -0.0778
      11  C10        12.3970   34.3790   62.5840  C.3       1 <0>        -0.0378
      12  C11        11.8840   32.9870   62.9580  C.3       1 <0>        -0.1428
      13  C12        13.7360   34.2500   61.8570  C.3       1 <0>        -0.1504
      14  C13        12.5840   35.2110   63.8540  C.3       1 <0>        -0.1416
      15  C14         7.2210   36.3200   59.2810  C.2       1 <0>        -0.1059
      16  C15         6.5120   36.2420   60.4220  C.2       1 <0>        -0.1263
      17  C16         5.3210   35.5460   60.1160  C.2       1 <0>        -0.2149
      18  C17         5.3730   35.2390   58.8080  C.2       1 <0>         0.0379
      19  O1          6.5240   35.7150   58.3060  O.3       1 <0>        -0.1792
      20  C18         4.3160   34.4930   58.0350  C.3       1 <0>        -0.0871
@<TRIPOS>BOND
     1     1     2 1
     2     2     3 1
     3     3     4 1
     4     4     5 1
     5     4    15 1
     6     5    10 ar
     7     5     6 ar
     8     6     7 ar
     9     7     8 ar
    10     8     9 ar
    11     8    11 1
    12     9    10 ar
    13    11    12 1
    14    11    13 1
    15    11    14 1
    16    15    19 1
    17    15    16 2
    18    16    17 1
    19    17    18 2
    20    18    19 1
    21    18    20 1

@<TRIPOS>MOLECULE
ZINC01707167_replica-1.pdb
 23 26 0 0 0
SMALL
GASTEIGER

@<TRIPOS>ATOM
       1  C1          5.9800   32.2300   60.2910  C.ar      1 <0>        -0.1198
       2  C2          6.7770   32.0310   59.1780  C.ar      1 <0>        -0.1167
       3  C3          7.2850   33.1130   58.4880  C.ar      1 <0>        -0.1033
       4  C4          6.9940   34.4090   58.9170  C.ar      1 <0>        -0.0011
       5  C5          6.1910   34.6020   60.0400  C.ar      1 <0>        -0.1055
       6  C6          5.6890   33.5120   60.7200  C.ar      1 <0>        -0.1174
       7  C7          7.5370   35.5740   58.1810  C.2       1 <0>        -0.1731
       8  C8          7.0120   36.1370   57.0280  C.2       1 <0>         0.1437
       9  N1          7.8150   37.1840   56.6870  N.pl3     1 <0>        -0.4649
      10  N2          8.8450   37.2730   57.6310  N.2       1 <0>        -0.2723
      11  C9          8.6870   36.3250   58.5270  C.2       1 <0>         0.1332
      12  C10         9.5640   36.0800   59.6980  C.ar      1 <0>        -0.0188
      13  C11         9.6220   37.0100   60.7350  C.ar      1 <0>        -0.0869
      14  C12        10.4360   36.7750   61.8240  C.ar      1 <0>        -0.1204
      15  C13        11.2010   35.6240   61.8840  C.ar      1 <0>        -0.1097
      16  C14        11.1500   34.6990   60.8550  C.ar      1 <0>        -0.1226
      17  C15        10.3360   34.9220   59.7630  C.ar      1 <0>        -0.0910
      18  C16         5.8050   35.6860   56.3040  C.ar      1 <0>        -0.0402
      19  C17         4.5370   36.0190   56.7810  C.ar      1 <0>        -0.0793
      20  C18         3.4140   35.6000   56.0980  C.ar      1 <0>        -0.1164
      21  C19         3.5430   34.8410   54.9490  C.ar      1 <0>        -0.1057
      22  C20         4.7970   34.5020   54.4730  C.ar      1 <0>        -0.1180
      23  C21         5.9280   34.9200   55.1430  C.ar      1 <0>        -0.1034
@<TRIPOS>BOND
     1     1     6 ar
     2     1     2 ar
     3     2     3 ar
     4     3     4 ar
     5     4     5 ar
     6     4     7 1
     7     5     6 ar
     8     7    11 1
     9     7     8 2
    10     8     9 1
    11     8    18 1
    12     9    10 1
    13    10    11 2
    14    11    12 1
    15    12    17 ar
    16    12    13 ar
    17    13    14 ar
    18    14    15 ar
    19    15    16 ar
    20    16    17 ar
    21    18    23 ar
    22    18    19 ar
    23    19    20 ar
    24    20    21 ar
    25    21    22 ar
    26    22    23 ar

@<TRIPOS>MOLECULE
ZINC08687005_replica-1.pdb
 23 26 0 0 0
SMALL
GASTEIGER

@<TRIPOS>ATOM
       1  C1         -1.6130   26.3640   51.1530  C.ar      1 <0>        -0.1252
       2  C2         -1.5850   27.6570   51.6420  C.ar      1 <0>        -0.1235
       3  C3         -0.8200   27.9600   52.7520  C.ar      1 <0>        -0.1015
       4  C4         -0.0830   26.9710   53.3750  C.ar      1 <0>        -0.0759
       5  C5         -0.1100   25.6770   52.8870  C.ar      1 <0>        -0.1038
       6  C6         -0.8740   25.3750   51.7750  C.ar      1 <0>        -0.1172
       7  C7          0.7520   27.3020   54.5850  C.3       1 <0>         0.0182
       8  C8          0.0990   26.7300   55.8170  C.2       1 <0>         0.1328
       9  N1          0.2950   25.5430   56.3160  N.2       1 <0>        -0.2874
      10  N2         -0.4230   25.3810   57.3700  N.2       1 <0>        -0.3447
      11  C9         -1.1240   26.4660   57.6050  C.2       1 <0>         0.3827
      12  N3         -0.8090   27.3650   56.6240  N.pl3     1 <0>        -0.4563
      13  C10        -1.3110   28.6630   56.4730  C.ar      1 <0>         0.1730
      14  C11        -2.5180   28.8720   55.8420  C.ar      1 <0>        -0.1013
      15  C12        -3.0270   30.1580   55.6870  C.ar      1 <0>        -0.1037
      16  C13        -2.3500   31.2430   56.1530  C.ar      1 <0>        -0.1071
      17  C14        -1.1160   31.0730   56.8040  C.ar      1 <0>        -0.0443
      18  C15        -0.5910   29.7680   56.9720  C.ar      1 <0>        -0.0340
      19  C16         0.6400   29.5980   57.6260  C.ar      1 <0>        -0.0678
      20  C17         1.3090   30.6880   58.0950  C.ar      1 <0>        -0.1214
      21  C18         0.7910   31.9710   57.9350  C.ar      1 <0>        -0.1100
      22  C19        -0.3940   32.1740   57.2950  C.ar      1 <0>        -0.1144
      23  S1         -2.2510   26.7170   58.9350  S.3       1 <0>        -0.8011
@<TRIPOS>BOND
     1     1     6 ar
     2     1     2 ar
     3     2     3 ar
     4     3     4 ar
     5     4     5 ar
     6     4     7 1
     7     5     6 ar
     8     7     8 1
     9     8    12 1
    10     8     9 2
    11     9    10 1
    12    10    11 2
    13    11    23 1
    14    11    12 1
    15    12    13 1
    16    13    18 ar
    17    13    14 ar
    18    14    15 ar
    19    15    16 ar
    20    16    17 ar
    21    17    22 ar
    22    17    18 ar
    23    18    19 ar
    24    19    20 ar
    25    20    21 ar
    26    21    22 ar

@<TRIPOS>MOLECULE
ZINC40806807_replica-1.pdb
 24 27 0 0 0
SMALL
GASTEIGER

@<TRIPOS>ATOM
       1  C1          1.0230   36.0140   56.8550  C.3       1 <0>        -0.1142
       2  C2          2.4870   35.7600   57.1040  C.ar      1 <0>        -0.0640
       3  C3          3.4380   36.1770   56.1830  C.ar      1 <0>        -0.1064
       4  C4          4.7760   35.9590   56.3860  C.ar      1 <0>        -0.0583
       5  C5          5.2310   35.2950   57.5490  C.ar      1 <0>         0.0936
       6  C6          4.2350   34.8850   58.4640  C.ar      1 <0>        -0.1419
       7  C7          2.8970   35.1130   58.2550  C.ar      1 <0>        -0.0649
       8  S1          5.1930   34.1150   59.7460  S.3       1 <0>         0.0152
       9  C8          6.8020   34.3790   59.0130  C.2       1 <0>         0.3684
      10  N1          6.5030   35.0040   57.8980  N.2       1 <0>        -0.5026
      11  N2          8.0460   34.0160   59.4980  N.am      1 <0>        -0.6057
      12  C9          8.6300   34.7460   60.4690  C.2       1 <0>         0.5841
      13  O1          8.1110   35.7790   60.8480  O.2       1 <0>        -0.4633
      14  C10         9.8930   34.2950   61.0690  C.2       1 <0>         0.0190
      15  C11        11.0390   35.0230   61.1320  C.2       1 <0>        -0.1251
      16  C12        12.0160   34.2330   61.7840  C.ar      1 <0>        -0.1287
      17  C13        13.3580   34.4510   62.1260  C.ar      1 <0>        -0.0270
      18  C14        14.0620   33.4750   62.7670  C.ar      1 <0>        -0.1774
      19  C15        13.4610   32.2620   63.0870  C.ar      1 <0>         0.1362
      20  C16        12.1420   32.0240   62.7610  C.ar      1 <0>        -0.1684
      21  C17        11.4040   33.0050   62.1070  C.ar      1 <0>         0.1383
      22  N3         10.1030   33.0660   61.6650  N.pl3     1 <0>        -0.4432
      23  C18         9.1060   32.0010   61.8020  C.3       1 <0>         0.0649
      24  F1         14.1760   31.3070   63.7230  F         1 <0>        -0.1330
@<TRIPOS>BOND
     1     1     2 1
     2     2     7 ar
     3     2     3 ar
     4     3     4 ar
     5     4     5 ar
     6     5    10 1
     7     5     6 ar
     8     6     7 ar
     9     6     8 1
    10     8     9 1
    11     9    10 2
    12     9    11 1
    13    11    12 am
    14    12    13 2
    15    12    14 1
    16    14    22 1
    17    14    15 2
    18    15    16 1
    19    16    21 ar
    20    16    17 ar
    21    17    18 ar
    22    18    19 ar
    23    19    20 ar
    24    19    24 1
    25    20    21 ar
    26    21    22 1
    27    22    23 1

@<TRIPOS>MOLECULE
ZINC02173036_replica-1.pdb
 23 24 0 0 0
SMALL
GASTEIGER

@<TRIPOS>ATOM
       1  C1         -0.4060   27.6440   57.3500  C.3       1 <0>        -0.1837
       2  C2         -1.6180   28.3600   57.9490  C.3       1 <0>         0.1155
       3  C3         -1.3800   28.6070   59.4400  C.3       1 <0>        -0.1411
       4  C4         -2.8640   27.4890   57.7690  C.3       1 <0>        -0.1835
       5  O1         -1.8100   29.6100   57.2830  O.3       1 <0>        -0.2790
       6  C5         -0.7100   30.3710   57.0750  C.ar      1 <0>         0.4235
       7  C6         -0.2720   30.6520   55.7700  C.ar      1 <0>        -0.2177
       8  C7          0.8660   31.4410   55.6110  C.ar      1 <0>         0.2195
       9  N1          1.4860   31.9000   56.6870  N.ar      1 <0>        -0.5739
      10  C8          1.0470   31.6110   57.9020  C.ar      1 <0>         0.5427
      11  N2         -0.0290   30.8670   58.0990  N.ar      1 <0>        -0.5689
      12  O2          1.7160   32.0980   58.9740  O.3       1 <0>        -0.2803
      13  C9          1.3360   33.3930   59.4420  C.3       1 <0>         0.1241
      14  C10         2.5630   34.3070   59.4680  C.3       1 <0>        -0.1846
      15  C11         0.2800   33.9850   58.5060  C.3       1 <0>        -0.1412
      16  C12         0.7580   33.2760   60.8540  C.3       1 <0>        -0.1842
      17  C13        -1.0000   30.1210   54.5910  C.ar      1 <0>        -0.0182
      18  C14        -2.0950   30.8150   54.0770  C.ar      1 <0>        -0.0743
      19  C15        -2.7670   30.3190   52.9780  C.ar      1 <0>        -0.1111
      20  C16        -2.3630   29.1330   52.3940  C.ar      1 <0>        -0.0830
      21  C17        -1.2800   28.4380   52.9030  C.ar      1 <0>        -0.0975
      22  C18        -0.5970   28.9270   53.9990  C.ar      1 <0>        -0.0749
      23  I1         -0.6750   26.6420   52.0100  I         1 <0>        -0.0404
@<TRIPOS>BOND
     1     1     2 1
     2     2     3 1
     3     2     4 1
     4     2     5 1
     5     5     6 1
     6     6    11 ar
     7     6     7 ar
     8     7     8 ar
     9     7    17 1
    10     8     9 ar
    11     9    10 ar
    12    10    11 ar
    13    10    12 1
    14    12    13 1
    15    13    14 1
    16    13    15 1
    17    13    16 1
    18    17    22 ar
    19    17    18 ar
    20    18    19 ar
    21    19    20 ar
    22    20    21 ar
    23    21    22 ar
    24    21    23 1

@<TRIPOS>MOLECULE
ZINC41635817_replica-1.pdb
 21 22 0 0 0
SMALL
GASTEIGER

@<TRIPOS>ATOM
       1  C1         -2.1990   28.1080   50.7620  C.3       1 <0>        -0.1124
       2  C2         -1.3870   27.2210   51.6700  C.ar      1 <0>        -0.0843
       3  C3         -1.2450   25.8780   51.3770  C.ar      1 <0>        -0.1212
       4  C4         -0.4990   25.0650   52.2100  C.ar      1 <0>        -0.0842
       5  C5          0.1030   25.5950   53.3360  C.ar      1 <0>        -0.1076
       6  C6         -0.0370   26.9380   53.6270  C.ar      1 <0>        -0.0578
       7  C7         -0.7800   27.7530   52.7920  C.ar      1 <0>        -0.1079
       8  C8          0.6200   27.5170   54.8540  C.3       1 <0>        -0.0731
       9  S1         -0.2870   28.9940   55.3850  S.3       1 <0>        -0.0276
      10  C9         -0.8580   28.5850   57.0020  C.ar      1 <0>         0.1239
      11  C10        -0.4930   29.3890   58.0980  C.ar      1 <0>        -0.1372
      12  C11        -0.9600   29.0430   59.3730  C.ar      1 <0>        -0.0208
      13  C12        -1.7630   27.9230   59.4960  C.ar      1 <0>        -0.1828
      14  C13        -2.0790   27.1820   58.3700  C.ar      1 <0>         0.1151
      15  N1         -1.6350   27.5260   57.1780  N.ar      1 <0>        -0.4996
      16  C14        -2.9550   25.9640   58.5100  C.3       1 <0>        -0.0920
      17  C15        -0.5970   29.8690   60.5800  C.3       1 <0>        -0.1089
      18  C16         0.3640   30.5690   57.9100  C.2       1 <0>         0.5343
      19  O1         -0.1350   31.6470   57.6200  O.co2     1 <0>        -0.6756
      20  O2          1.5760   30.4710   58.0420  O.co2     1 <0>        -0.6739
      21  C17        -0.3450   23.5990   51.8920  C.3       1 <0>        -0.1124
@<TRIPOS>BOND
     1     1     2 1
     2     2     7 ar
     3     2     3 ar
     4     3     4 ar
     5     4     5 ar
     6     4    21 1
     7     5     6 ar
     8     6     7 ar
     9     6     8 1
    10     8     9 1
    11     9    10 1
    12    10    15 ar
    13    10    11 ar
    14    11    12 ar
    15    11    18 1
    16    12    13 ar
    17    12    17 1
    18    13    14 ar
    19    14    15 ar
    20    14    16 1
    21    18    19 2
    22    18    20 1

@<TRIPOS>MOLECULE
ZINC37306625_replica-1.pdb
 19 19 0 0 0
SMALL
GASTEIGER

@<TRIPOS>ATOM
       1  C1         14.0800   32.4260   63.4620  C.3       1 <0>        -0.1487
       2  C2         12.8840   31.5920   62.9990  C.3       1 <0>        -0.0931
       3  C3         12.6240   30.4710   64.0080  C.3       1 <0>        -0.1551
       4  C4         11.6470   32.4850   62.8980  C.3       1 <0>        -0.1164
       5  C5         12.0820   33.9360   62.6770  C.3       1 <0>         0.0521
       6  O1         11.9510   34.2670   61.2930  O.3       1 <0>        -0.3019
       7  C6         10.9510   35.1220   60.9560  C.ar      1 <0>         0.1678
       8  C7         10.5290   36.0870   61.8630  C.ar      1 <0>        -0.1876
       9  C8          9.5160   36.9560   61.5250  C.ar      1 <0>        -0.0417
      10  C9          8.9130   36.8680   60.2680  C.ar      1 <0>        -0.1030
      11  C10         9.3400   35.8960   59.3590  C.ar      1 <0>        -0.0782
      12  C11        10.3570   35.0330   59.7030  C.ar      1 <0>        -0.1108
      13  C12         8.6920   35.7960   58.0010  C.3       1 <0>         0.5052
      14  F1          8.8130   37.0210   57.3350  F         1 <0>        -0.1818
      15  F2          9.3240   34.7950   57.2540  F         1 <0>        -0.1738
      16  F3          7.3380   35.4790   58.1520  F         1 <0>        -0.1265
      17  C13         7.8280   37.7970   59.9010  C.2       1 <0>         0.3647
      18  S1          6.1970   37.3610   60.1830  S.2       1 <0>        -0.5000
      19  N1          8.1210   38.9890   59.3450  N.pl3     1 <0>        -0.7589
@<TRIPOS>BOND
     1     1     2 1
     2     2     3 1
     3     2     4 1
     4     4     5 1
     5     5     6 1
     6     6     7 1
     7     7    12 ar
     8     7     8 ar
     9     8     9 ar
    10     9    10 ar
    11    10    11 ar
    12    10    17 1
    13    11    12 ar
    14    11    13 1
    15    13    14 1
    16    13    15 1
    17    13    16 1
    18    17    18 2
    19    17    19 1

@<TRIPOS>MOLECULE
ZINC56226772_replica-1.pdb
 24 26 0 0 0
SMALL
GASTEIGER

@<TRIPOS>ATOM
       1  C1         13.1670   32.9260   63.0830  C.3       1 <0>        -0.1194
       2  C2         12.3250   34.0580   62.5540  C.ar      1 <0>        -0.0807
       3  C3         12.3140   35.2790   63.2250  C.ar      1 <0>        -0.0852
       4  C4         11.5650   36.3220   62.7750  C.ar      1 <0>        -0.0946
       5  C5         10.7880   36.1740   61.6140  C.ar      1 <0>         0.1454
       6  C6         10.8010   34.9310   60.9310  C.ar      1 <0>        -0.1072
       7  C7         11.5900   33.8770   61.4220  C.ar      1 <0>        -0.0938
       8  C8         10.0250   34.7790   59.7690  C.ar      1 <0>        -0.0137
       9  C9          9.2740   35.8680   59.3410  C.ar      1 <0>        -0.1841
      10  C10         9.3140   37.0680   60.0730  C.ar      1 <0>         0.2006
      11  N1         10.0440   37.1870   61.1520  N.ar      1 <0>        -0.4686
      12  C11         8.4980   38.2440   59.6030  C.3       1 <0>        -0.1107
      13  C12         8.4400   35.7650   58.1260  C.2       1 <0>         0.5749
      14  O1          8.8880   36.1120   57.0500  O.2       1 <0>        -0.4918
      15  N2          7.1840   35.2840   58.2090  N.am      1 <0>        -0.5468
      16  C13         6.5980   34.9870   59.5190  C.3       1 <0>         0.0602
      17  C14         6.4370   35.0710   57.0450  C.ar      1 <0>         0.1713
      18  C15         6.6420   33.9240   56.2890  C.ar      1 <0>        -0.1405
      19  C16         5.9040   33.7130   55.1400  C.ar      1 <0>        -0.0977
      20  C17         4.9610   34.6450   54.7410  C.ar      1 <0>         0.0448
      21  C18         4.7540   35.7910   55.4930  C.ar      1 <0>         0.0949
      22  C19         5.4880   36.0020   56.6480  C.ar      1 <0>        -0.1689
      23  F1          3.8360   36.7000   55.1020  F         1 <0>        -0.1241
      24  F2          4.2410   34.4360   53.6160  F         1 <0>        -0.1282
@<TRIPOS>BOND
     1     1     2 1
     2     2     7 ar
     3     2     3 ar
     4     3     4 ar
     5     4     5 ar
     6     5    11 ar
     7     5     6 ar
     8     6     7 ar
     9     6     8 ar
    10     8     9 ar
    11     9    10 ar
    12     9    13 1
    13    10    11 ar
    14    10    12 1
    15    13    14 2
    16    13    15 am
    17    15    16 1
    18    15    17 1
    19    17    22 ar
    20    17    18 ar
    21    18    19 ar
    22    19    20 ar
    23    20    21 ar
    24    20    24 1
    25    21    22 ar
    26    21    23 1

@<TRIPOS>MOLECULE
ZINC46693578_replica-1.pdb
 25 25 0 0 0
SMALL
GASTEIGER

@<TRIPOS>ATOM
       1  C1          4.7170   34.2560   54.4440  C.3       1 <0>        -0.1533
       2  C2          3.8970   35.4960   54.8060  C.3       1 <0>        -0.1099
       3  C3          3.5140   35.4400   56.2850  C.3       1 <0>        -0.1026
       4  C4          2.1000   34.8730   56.4250  C.3       1 <0>        -0.1197
       5  C5          1.2990   35.7340   57.4030  C.3       1 <0>        -0.1562
       6  C6          4.5010   34.5420   57.0340  C.3       1 <0>         0.1327
       7  N1          5.1360   35.3060   58.1110  N.am      1 <0>        -0.6263
       8  C7          4.4450   35.4780   59.3910  C.3       1 <0>         0.1052
       9  C8          4.1020   34.1050   59.9750  C.3       1 <0>        -0.1755
      10  C9          6.3550   35.8490   57.9250  C.2       1 <0>         0.7089
      11  O1          6.9280   35.7060   56.8620  O.2       1 <0>        -0.5839
      12  N2          6.9390   36.5510   58.9160  N.am      1 <0>        -0.7418
      13  C10         8.2640   37.1420   58.7130  C.3       1 <0>         0.2035
      14  C11         8.2280   38.6200   59.1050  C.3       1 <0>        -0.1580
      15  C12         9.2730   36.4190   59.5680  C.ar      1 <0>        -0.1062
      16  C13         9.8090   35.2200   59.1360  C.ar      1 <0>        -0.0934
      17  C14        10.7340   34.5550   59.9180  C.ar      1 <0>        -0.1151
      18  C15        11.1250   35.0920   61.1380  C.ar      1 <0>         0.1471
      19  C16        10.5840   36.2970   61.5670  C.ar      1 <0>        -0.1403
      20  C17         9.6640   36.9590   60.7790  C.ar      1 <0>        -0.0855
      21  N3         12.0610   34.4200   61.9310  N.am      1 <0>        -0.6781
      22  C18        11.7640   33.2100   62.4460  C.2       1 <0>         0.5105
      23  O2         10.7240   32.6620   62.1470  O.2       1 <0>        -0.5173
      24  C19        12.7240   32.5380   63.3930  C.3       1 <0>        -0.1433
      25  C20        12.7600   31.0360   63.1020  C.3       1 <0>        -0.1395
@<TRIPOS>BOND
     1     1     2 1
     2     2     3 1
     3     3     4 1
     4     3     6 1
     5     4     5 1
     6     6     7 1
     7     7     8 1
     8     7    10 am
     9     8     9 1
    10    10    11 2
    11    10    12 am
    12    12    13 1
    13    13    14 1
    14    13    15 1
    15    15    20 ar
    16    15    16 ar
    17    16    17 ar
    18    17    18 ar
    19    18    19 ar
    20    18    21 1
    21    19    20 ar
    22    21    22 am
    23    22    23 2
    24    22    24 1
    25    24    25 1

@<TRIPOS>MOLECULE
ZINC61630231_replica-1.pdb
 21 21 0 0 0
SMALL
GASTEIGER

@<TRIPOS>ATOM
       1  C1          5.1460   34.5800   54.1340  C.3       1 <0>        -0.1541
       2  C2          5.3240   33.5630   55.2640  C.3       1 <0>         0.0568
       3  O1          6.7160   33.3070   55.4590  O.3       1 <0>        -0.3832
       4  C3          6.9880   32.2120   56.3360  C.3       1 <0>         0.0486
       5  C4          7.7050   32.7260   57.5850  C.3       1 <0>         0.1449
       6  C5          6.6710   33.1370   58.6340  C.3       1 <0>        -0.1691
       7  N1          8.5310   33.8830   57.2330  N.pl3     1 <0>        -0.7257
       8  C6          8.9770   34.7540   58.2320  C.ar      1 <0>         0.3110
       9  C7          9.7500   34.2720   59.2810  C.ar      1 <0>        -0.1823
      10  C8         10.1890   35.1350   60.2660  C.ar      1 <0>        -0.0334
      11  C9          9.8610   36.4780   60.2090  C.ar      1 <0>         0.0290
      12  C10         9.0910   36.9610   59.1640  C.ar      1 <0>        -0.0003
      13  C11         8.6530   36.1030   58.1740  C.ar      1 <0>        -0.7093
      14  S1          7.6800   36.7190   56.8410  S.o2      1 <0>         2.4845
      15  O2          8.3290   36.2460   55.6680  O.2       1 <0>        -0.8518
      16  O3          6.3520   36.3170   57.1450  O.2       1 <0>        -0.8566
      17  C12         7.8260   38.5240   56.9510  C.3       1 <0>        -0.0264
      18  F1          9.1740   38.8880   56.8530  F         1 <0>        -0.1549
      19  F2          7.1080   39.1150   55.9060  F         1 <0>        -0.1549
      20  F3          7.3130   38.9590   58.1770  F         1 <0>        -0.1508
      21  F4         10.2910   37.3210   61.1740  F         1 <0>        -0.1334
@<TRIPOS>BOND
     1     1     2 1
     2     2     3 1
     3     3     4 1
     4     4     5 1
     5     5     6 1
     6     5     7 1
     7     7     8 1
     8     8    13 ar
     9     8     9 ar
    10     9    10 ar
    11    10    11 ar
    12    11    12 ar
    13    11    21 1
    14    12    13 ar
    15    13    14 1
    16    14    15 2
    17    14    16 2
    18    14    17 1
    19    17    18 1
    20    17    19 1
    21    17    20 1

@<TRIPOS>MOLECULE
ZINC06277300_replica-1.pdb
 22 24 0 0 0
SMALL
GASTEIGER

@<TRIPOS>ATOM
       1  C1          3.0150   26.6330   61.9850  C.3       1 <0>        -0.1127
       2  C2          2.3670   26.9130   60.6540  C.ar      1 <0>        -0.0853
       3  C3          1.1610   26.3130   60.3350  C.ar      1 <0>        -0.1252
       4  C4          0.5640   26.5640   59.1170  C.ar      1 <0>        -0.0915
       5  C5          1.1750   27.4260   58.2080  C.ar      1 <0>        -0.0384
       6  C6          2.3920   28.0240   58.5340  C.ar      1 <0>        -0.0783
       7  C7          2.9780   27.7700   59.7560  C.ar      1 <0>        -0.1273
       8  C8          0.5380   27.7020   56.8980  C.ar      1 <0>         0.2036
       9  C9         -0.1350   28.9200   56.7160  C.ar      1 <0>        -0.1322
      10  C10        -0.7370   29.1900   55.4950  C.ar      1 <0>        -0.0199
      11  C11        -0.6290   28.1680   54.4530  C.ar      1 <0>        -0.0836
      12  C12        -1.2040   28.3490   53.1900  C.ar      1 <0>        -0.0706
      13  C13        -1.0790   27.3710   52.2480  C.ar      1 <0>        -0.1041
      14  C14        -0.3870   26.1930   52.5270  C.ar      1 <0>        -0.1022
      15  C15         0.1830   25.9860   53.7450  C.ar      1 <0>        -0.0985
      16  C16         0.0750   26.9730   54.7440  C.ar      1 <0>         0.1236
      17  N1          0.6230   26.7980   55.9470  N.ar      1 <0>        -0.4843
      18  C17        -1.6970   27.5650   50.8870  C.3       1 <0>        -0.1097
      19  C18        -1.4580   30.4580   55.2560  C.2       1 <0>         0.5029
      20  O1         -0.8670   31.4180   54.8030  O.co2     1 <0>        -0.6171
      21  C19        -0.2050   29.9250   57.8370  C.3       1 <0>        -0.1087
      22  O2         -2.7730   30.5490   55.5400  O.co2     1 <0>        -0.7387
@<TRIPOS>BOND
     1     1     2 1
     2     2     7 ar
     3     2     3 ar
     4     3     4 ar
     5     4     5 ar
     6     5     6 ar
     7     5     8 1
     8     6     7 ar
     9     8    17 ar
    10     8     9 ar
    11     9    10 ar
    12     9    21 1
    13    10    11 ar
    14    10    19 1
    15    11    16 ar
    16    11    12 ar
    17    12    13 ar
    18    13    14 ar
    19    13    18 1
    20    14    15 ar
    21    15    16 ar
    22    16    17 ar
    23    19    20 2
    24    19    22 1

@<TRIPOS>MOLECULE
ZINC36972362_replica-1.pdb
 20 21 0 0 0
SMALL
GASTEIGER

@<TRIPOS>ATOM
       1  C1          6.3910   37.4960   59.9830  C.3       1 <0>        -0.1715
       2  C2          7.7970   37.3510   59.3970  C.3       1 <0>         0.1443
       3  C3          7.9320   38.2550   58.1690  C.3       1 <0>        -0.1292
       4  C4          8.6850   37.5080   57.0670  C.3       1 <0>        -0.1136
       5  C5          7.8150   36.3670   56.5370  C.3       1 <0>        -0.0983
       6  C6          7.5270   36.5900   55.0510  C.3       1 <0>        -0.1500
       7  C7          8.5510   35.0380   56.7190  C.3       1 <0>        -0.1490
       8  N1          8.7880   37.7420   60.4020  N.pl3     1 <0>        -0.7337
       9  C8          9.7270   36.8150   60.8530  C.ar      1 <0>         0.2385
      10  C9         10.4160   37.0440   62.0390  C.ar      1 <0>        -0.1985
      11  C10        11.3440   36.1290   62.4860  C.ar      1 <0>        -0.0210
      12  C11        11.5930   34.9710   61.7470  C.ar      1 <0>        -0.0875
      13  C12        10.9000   34.7440   60.5570  C.ar      1 <0>        -0.0590
      14  C13         9.9700   35.6600   60.1170  C.ar      1 <0>        -0.1972
      15  C14        12.5890   33.9880   62.2240  C.2       1 <0>         0.2342
      16  N2         13.8960   34.1330   62.2200  N.2       1 <0>        -0.2903
      17  N3         14.4510   33.0810   62.7060  N.2       1 <0>        -0.2941
      18  C15        13.5400   32.2110   63.0480  C.2       1 <0>         0.1498
      19  N4         12.3260   32.7560   62.7590  N.pl3     1 <0>        -0.4832
      20  C16        11.0100   32.1490   62.9740  C.3       1 <0>         0.0684
@<TRIPOS>BOND
     1     1     2 1
     2     2     3 1
     3     2     8 1
     4     3     4 1
     5     4     5 1
     6     5     6 1
     7     5     7 1
     8     8     9 1
     9     9    14 ar
    10     9    10 ar
    11    10    11 ar
    12    11    12 ar
    13    12    13 ar
    14    12    15 1
    15    13    14 ar
    16    15    19 1
    17    15    16 2
    18    16    17 1
    19    17    18 2
    20    18    19 1
    21    19    20 1

@<TRIPOS>MOLECULE
ZINC36197635_replica-1.pdb
 20 20 0 0 0
SMALL
GASTEIGER

@<TRIPOS>ATOM
       1  C1         10.6650   36.8830   62.2270  C.3       1 <0>        -0.1473
       2  C2          9.7620   36.2250   61.1820  C.3       1 <0>        -0.1172
       3  C3          9.2550   37.2860   60.2030  C.3       1 <0>        -0.1484
       4  C4         10.5560   35.1640   60.4170  C.3       1 <0>         0.1306
       5  N1         10.4810   33.8880   61.1320  N.pl3     1 <0>        -0.6245
       6  C5          9.2430   33.1040   61.1010  C.3       1 <0>         0.1231
       7  C6          8.6190   33.1890   59.7070  C.3       1 <0>        -0.1151
       8  C7          8.5770   31.7930   59.0810  C.3       1 <0>        -0.1503
       9  C8          7.1960   33.7410   59.8170  C.3       1 <0>        -0.1479
      10  C9         11.5900   33.4160   61.8430  C.ar      1 <0>         0.1670
      11  C10        12.7680   34.1520   61.8590  C.ar      1 <0>        -0.1140
      12  C11        13.8630   33.6860   62.5600  C.ar      1 <0>        -0.1516
      13  C12        13.7870   32.4830   63.2490  C.ar      1 <0>         0.2159
      14  C13        12.6080   31.7470   63.2320  C.ar      1 <0>        -0.2212
      15  C14        11.5110   32.2160   62.5350  C.ar      1 <0>        -0.1069
      16  C15        12.5260   30.4410   63.9780  C.3       1 <0>         0.5113
      17  F1         13.1070   30.5880   65.2420  F         1 <0>        -0.1775
      18  F2         11.1850   30.0700   64.1230  F         1 <0>        -0.1794
      19  F3         13.2090   29.4510   63.2630  F         1 <0>        -0.1797
      20  N2         14.8970   32.0100   63.9590  N.pl3     1 <0>        -0.8773
@<TRIPOS>BOND
     1     1     2 1
     2     2     3 1
     3     2     4 1
     4     4     5 1
     5     5     6 1
     6     5    10 1
     7     6     7 1
     8     7     8 1
     9     7     9 1
    10    10    15 ar
    11    10    11 ar
    12    11    12 ar
    13    12    13 ar
    14    13    14 ar
    15    13    20 1
    16    14    15 ar
    17    14    16 1
    18    16    17 1
    19    16    18 1
    20    16    19 1

@<TRIPOS>MOLECULE
ZINC52254631_replica-1.pdb
 20 20 0 0 0
SMALL
GASTEIGER

@<TRIPOS>ATOM
       1  C1          8.5110   38.7020   57.2020  C.3       1 <0>        -0.1529
       2  C2          7.9270   37.9990   58.4290  C.3       1 <0>        -0.1291
       3  C3          8.2800   36.5110   58.3800  C.3       1 <0>         0.2016
       4  C4          9.2440   36.1870   59.4920  C.ar      1 <0>        -0.1307
       5  C5          9.4560   37.0990   60.5100  C.ar      1 <0>        -0.0710
       6  C6         10.3390   36.8020   61.5310  C.ar      1 <0>        -0.1638
       7  C7         11.0110   35.5920   61.5340  C.ar      1 <0>         0.1049
       8  C8         10.7990   34.6800   60.5140  C.ar      1 <0>        -0.1602
       9  C9          9.9110   34.9760   59.4970  C.ar      1 <0>        -0.0721
      10  F1         11.8760   35.3010   62.5310  F         1 <0>        -0.1396
      11  C10         7.0080   35.6790   58.5500  C.3       1 <0>        -0.1061
      12  C11         5.9150   36.5410   59.1850  C.3       1 <0>        -0.1131
      13  C12         4.5460   36.0830   58.6800  C.3       1 <0>        -0.1529
      14  C13         5.9720   36.3980   60.7070  C.3       1 <0>        -0.1531
      15  C14         6.5420   35.1900   57.2020  C.2       1 <0>         0.4679
      16  O1          6.2040   35.9830   56.3570  O.2       1 <0>        -0.4859
      17  O2          6.5040   33.8740   56.9420  O.3       1 <0>        -0.3438
      18  C15         6.9970   32.9970   57.9570  C.3       1 <0>         0.0563
      19  C16         8.2770   32.3170   57.4650  C.3       1 <0>        -0.1531
      20  O3          8.8840   36.2050   57.1220  O.3       1 <0>        -0.5476
@<TRIPOS>BOND
     1     1     2 1
     2     2     3 1
     3     3     4 1
     4     3    11 1
     5     3    20 1
     6     4     9 ar
     7     4     5 ar
     8     5     6 ar
     9     6     7 ar
    10     7     8 ar
    11     7    10 1
    12     8     9 ar
    13    11    12 1
    14    11    15 1
    15    12    13 1
    16    12    14 1
    17    15    16 2
    18    15    17 1
    19    17    18 1
    20    18    19 1

@<TRIPOS>MOLECULE
ZINC41127758_replica-1.pdb
 24 26 0 0 0
SMALL
GASTEIGER

@<TRIPOS>ATOM
       1  C1         12.7310   30.8020   63.4170  C.3       1 <0>        -0.1511
       2  C2         13.9320   31.6060   63.9190  C.3       1 <0>        -0.1246
       3  C3         14.2050   32.7660   62.9590  C.3       1 <0>         0.0564
       4  O1         13.7480   33.9870   63.5440  O.3       1 <0>        -0.3131
       5  C4         12.7480   34.6430   62.9010  C.ar      1 <0>         0.1499
       6  C5         12.1870   34.0960   61.7540  C.ar      1 <0>        -0.2135
       7  C6         11.1720   34.7590   61.0980  C.ar      1 <0>        -0.0467
       8  C7         10.7060   35.9810   61.5890  C.ar      1 <0>        -0.0958
       9  C8         11.2730   36.5260   62.7440  C.ar      1 <0>        -0.0385
      10  C9         12.2840   35.8550   63.3960  C.ar      1 <0>        -0.1569
      11  C10         9.6200   36.6930   60.8900  C.2       1 <0>         0.1143
      12  N1          8.5590   37.0600   61.5430  N.2       1 <0>        -0.2413
      13  N2          7.5280   37.7350   60.8800  N.pl3     1 <0>        -0.5689
      14  C11         6.7840   37.0830   59.9090  C.ar      1 <0>         0.2732
      15  C12         5.8050   36.1630   60.2560  C.ar      1 <0>        -0.2327
      16  C13         5.0780   35.5270   59.2600  C.ar      1 <0>         0.1939
      17  N3          5.2880   35.7670   57.9860  N.ar      1 <0>        -0.5136
      18  C14         6.2160   36.6410   57.5800  C.ar      1 <0>         0.1689
      19  C15         6.9970   37.3380   58.5330  C.ar      1 <0>        -0.1459
      20  C16         7.9630   38.2550   58.1010  C.ar      1 <0>        -0.0928
      21  C17         8.1380   38.4730   56.7670  C.ar      1 <0>        -0.1266
      22  C18         7.3670   37.7940   55.8270  C.ar      1 <0>        -0.0927
      23  C19         6.4270   36.8880   56.2130  C.ar      1 <0>        -0.0998
      24  C20         4.0180   34.5290   59.6520  C.3       1 <0>        -0.1071
@<TRIPOS>BOND
     1     1     2 1
     2     2     3 1
     3     3     4 1
     4     4     5 1
     5     5    10 ar
     6     5     6 ar
     7     6     7 ar
     8     7     8 ar
     9     8     9 ar
    10     8    11 1
    11     9    10 ar
    12    11    12 2
    13    12    13 1
    14    13    14 1
    15    14    19 ar
    16    14    15 ar
    17    15    16 ar
    18    16    17 ar
    19    16    24 1
    20    17    18 ar
    21    18    23 ar
    22    18    19 ar
    23    19    20 ar
    24    20    21 ar
    25    21    22 ar
    26    22    23 ar

@<TRIPOS>MOLECULE
ZINC35587219_replica-1.pdb
 22 23 0 0 0
SMALL
GASTEIGER

@<TRIPOS>ATOM
       1  C1          3.8900   34.1460   58.4530  C.3       1 <0>        -0.1594
       2  C2          3.2090   35.2670   57.6650  C.3       1 <0>        -0.0799
       3  C3          2.3010   36.0680   58.5990  C.3       1 <0>        -0.1188
       4  C4          1.2360   35.1420   59.1920  C.3       1 <0>        -0.1167
       5  C5          0.4000   34.5370   58.0630  C.3       1 <0>        -0.1278
       6  C6          1.3090   33.7370   57.1280  C.3       1 <0>         0.1476
       7  C7          2.3720   34.6610   56.5350  C.3       1 <0>        -0.0940
       8  C8          3.2820   33.8600   55.6000  C.3       1 <0>        -0.1513
       9  N1          0.5080   33.1570   56.0470  N.pl3     1 <0>        -0.6807
      10  C9          0.4220   31.8180   55.9150  C.2       1 <0>         0.5622
      11  S1          0.6510   30.8080   57.2780  S.2       1 <0>        -0.6381
      12  N2          0.1570   31.2750   54.7100  N.pl3     1 <0>        -0.6883
      13  C10         0.0630   29.8200   54.5670  C.3       1 <0>         0.1293
      14  C11        -1.1780   29.4670   53.7440  C.3       1 <0>        -0.0868
      15  C12        -0.9750   28.1320   53.0770  C.ar      1 <0>        -0.1228
      16  C13        -1.5520   27.8800   51.8460  C.ar      1 <0>        -0.0701
      17  C14        -1.3680   26.6560   51.2320  C.ar      1 <0>        -0.1495
      18  C15        -0.6040   25.6790   51.8530  C.ar      1 <0>         0.1296
      19  C16        -0.0260   25.9330   53.0880  C.ar      1 <0>        -0.2062
      20  C17        -0.2080   27.1600   53.6960  C.ar      1 <0>        -0.0696
      21  O1         -0.4220   24.4730   51.2520  O.3       1 <0>        -0.3174
      22  C18        -0.3440   23.3290   52.1040  C.3       1 <0>         0.0262
@<TRIPOS>BOND
     1     1     2 1
     2     2     7 1
     3     2     3 1
     4     3     4 1
     5     4     5 1
     6     5     6 1
     7     6     7 1
     8     6     9 1
     9     7     8 1
    10     9    10 1
    11    10    11 2
    12    10    12 1
    13    12    13 1
    14    13    14 1
    15    14    15 1
    16    15    20 ar
    17    15    16 ar
    18    16    17 ar
    19    17    18 ar
    20    18    19 ar
    21    18    21 1
    22    19    20 ar
    23    21    22 1

@<TRIPOS>MOLECULE
ZINC40228054_replica-1.pdb
 21 22 0 0 0
SMALL
GASTEIGER

@<TRIPOS>ATOM
       1  C1          9.8670   34.9950   59.3460  C.ar      1 <0>        -0.0047
       2  C2          9.1770   35.8670   58.5350  C.ar      1 <0>        -0.1565
       3  C3          8.8410   37.1330   58.9990  C.ar      1 <0>         0.1690
       4  C4          9.2000   37.5260   60.2830  C.ar      1 <0>        -0.2166
       5  C5          9.8910   36.6600   61.1010  C.ar      1 <0>        -0.0405
       6  C6         10.2310   35.3850   60.6390  C.ar      1 <0>        -0.1551
       7  C7         10.9700   34.4550   61.5110  C.2       1 <0>         0.4022
       8  S1         12.2730   35.0270   62.4630  S.2       1 <0>        -0.5582
       9  N1         10.6190   33.1540   61.5590  N.pl3     1 <0>        -0.7640
      10  O1          8.1610   37.9900   58.1960  O.3       1 <0>        -0.3043
      11  C8          8.5900   38.0860   56.8370  C.3       1 <0>         0.0604
      12  C9          7.4030   37.8320   55.9060  C.3       1 <0>        -0.1204
      13  C10         7.6520   36.5560   55.0990  C.3       1 <0>         0.0675
      14  O2          6.7840   35.5200   55.5650  O.3       1 <0>        -0.3824
      15  C11         5.6870   35.9910   56.3490  C.3       1 <0>         0.0990
      16  C12         5.7060   35.2770   57.7150  C.3       1 <0>        -0.1396
      17  C13         4.9140   36.0990   58.6960  C.3       1 <0>        -0.1190
      18  C14         3.4460   35.6420   58.7990  C.3       1 <0>        -0.1186
      19  C15         2.8270   35.3070   57.4290  C.3       1 <0>        -0.1231
      20  C16         3.2140   36.2980   56.3640  C.3       1 <0>        -0.1113
      21  C17         4.4510   35.7570   55.6170  C.3       1 <0>        -0.1241
@<TRIPOS>BOND
     1     1     6 ar
     2     1     2 ar
     3     2     3 ar
     4     3     4 ar
     5     3    10 1
     6     4     5 ar
     7     5     6 ar
     8     6     7 1
     9     7     8 2
    10     7     9 1
    11    10    11 1
    12    11    12 1
    13    12    13 1
    14    13    14 1
    15    14    15 1
    16    15    21 1
    17    15    16 1
    18    16    17 1
    19    17    18 1
    20    18    19 1
    21    19    20 1
    22    20    21 1

@<TRIPOS>MOLECULE
ZINC10156564_replica-1.pdb
 24 27 0 0 0
SMALL
GASTEIGER

@<TRIPOS>ATOM
       1  C1          7.2570   38.3340   59.3050  C.3       1 <0>        -0.1167
       2  C2          7.2560   36.8350   59.4670  C.ar      1 <0>         0.2805
       3  C3          8.3240   36.1840   60.0990  C.ar      1 <0>        -0.3395
       4  C4          8.2860   34.7910   60.2320  C.ar      1 <0>         0.2802
       5  N1          7.2410   34.1400   59.7520  N.ar      1 <0>        -0.5727
       6  C5          6.2490   34.7890   59.1560  C.ar      1 <0>         0.5889
       7  N2          6.2520   36.1090   59.0100  N.ar      1 <0>        -0.5633
       8  N3          5.1790   34.0680   58.6690  N.pl3     1 <0>        -0.6269
       9  C6          4.0680   34.7360   58.1430  C.ar      1 <0>         0.1544
      10  C7          4.0380   35.0840   56.7990  C.ar      1 <0>        -0.1444
      11  C8          2.9420   35.7480   56.2840  C.ar      1 <0>        -0.0995
      12  C9          1.8710   36.0560   57.1020  C.ar      1 <0>        -0.1332
      13  C10         1.8980   35.7100   58.4420  C.ar      1 <0>        -0.1006
      14  C11         2.9930   35.0510   58.9640  C.ar      1 <0>        -0.1104
      15  C12         9.3950   34.0350   60.9080  C.3       1 <0>        -0.0753
      16  C13        10.6950   34.8350   60.8940  C.3       1 <0>         0.0082
      17  C14        10.4510   36.2200   61.5080  C.3       1 <0>        -0.1494
      18  C15         9.4690   36.9480   60.6120  C.2       1 <0>         0.4175
      19  O1          9.6220   38.1170   60.3300  O.2       1 <0>        -0.4428
      20  C16        11.7410   34.1060   61.6970  C.2       1 <0>        -0.1463
      21  C17        13.0550   34.3990   61.8530  C.2       1 <0>        -0.1447
      22  C18        13.8340   33.5810   62.6500  C.2       1 <0>        -0.1582
      23  C19        13.2630   32.5050   63.2440  C.2       1 <0>        -0.1669
      24  S1         11.5710   32.6290   62.6850  S.3       1 <0>         0.0413
@<TRIPOS>BOND
     1     1     2 1
     2     2     7 ar
     3     2     3 ar
     4     3    18 1
     5     3     4 ar
     6     4     5 ar
     7     4    15 1
     8     5     6 ar
     9     6     7 ar
    10     6     8 1
    11     8     9 1
    12     9    14 ar
    13     9    10 ar
    14    10    11 ar
    15    11    12 ar
    16    12    13 ar
    17    13    14 ar
    18    15    16 1
    19    16    17 1
    20    16    20 1
    21    17    18 1
    22    18    19 2
    23    20    24 1
    24    20    21 2
    25    21    22 1
    26    22    23 2
    27    23    24 1

@<TRIPOS>MOLECULE
ZINC41392205_replica-1.pdb
 20 21 0 0 0
SMALL
GASTEIGER

@<TRIPOS>ATOM
       1  C1         12.7070   30.1190   64.5550  C.3       1 <0>        -0.1060
       2  C2         13.2420   31.3340   63.8420  C.2       1 <0>         0.1679
       3  C3         12.4980   32.2640   63.1360  C.2       1 <0>        -0.3459
       4  C4         13.4050   33.2290   62.6370  C.2       1 <0>         0.1284
       5  N1         14.6040   32.8910   63.0220  N.2       1 <0>        -0.2933
       6  N2         14.5250   31.7170   63.7790  N.pl3     1 <0>        -0.4610
       7  C5         13.0470   34.4350   61.8070  C.3       1 <0>        -0.0397
       8  C6         11.8740   35.1730   62.4560  C.3       1 <0>        -0.0723
       9  C7         10.9210   35.6390   61.3870  C.ar      1 <0>        -0.0886
      10  C8         10.2450   36.8360   61.5370  C.ar      1 <0>        -0.1116
      11  C9          9.3700   37.2640   60.5570  C.ar      1 <0>        -0.1135
      12  C10         9.1720   36.4960   59.4250  C.ar      1 <0>        -0.0709
      13  C11         9.8480   35.3000   59.2730  C.ar      1 <0>        -0.1193
      14  C12        10.7270   34.8740   60.2520  C.ar      1 <0>        -0.1129
      15  C13         8.2170   36.9620   58.3550  C.3       1 <0>        -0.0311
      16  C14         8.3740   36.0820   57.1130  C.3       1 <0>        -0.1391
      17  C15         6.7820   36.8620   58.8740  C.3       1 <0>        -0.1452
      18  C16         8.5280   38.4160   57.9930  C.3       1 <0>        -0.1393
      19  C17        11.0440   32.2520   62.9420  C.2       1 <0>         0.4134
      20  O1         10.5770   31.9310   61.8700  O.2       1 <0>        -0.4772
@<TRIPOS>BOND
     1     1     2 1
     2     2     6 1
     3     2     3 2
     4     3     4 1
     5     3    19 1
     6     4     5 2
     7     4     7 1
     8     5     6 1
     9     7     8 1
    10     8     9 1
    11     9    14 ar
    12     9    10 ar
    13    10    11 ar
    14    11    12 ar
    15    12    13 ar
    16    12    15 1
    17    13    14 ar
    18    15    16 1
    19    15    17 1
    20    15    18 1
    21    19    20 2

@<TRIPOS>MOLECULE
ZINC57454760_replica-1.pdb
 24 25 0 0 0
SMALL
GASTEIGER

@<TRIPOS>ATOM
       1  C1         10.1850   31.7750   62.4450  C.3       1 <0>        -0.1528
       2  C2         11.2540   32.2610   63.4250  C.3       1 <0>        -0.1334
       3  C3         11.9730   33.4750   62.8340  C.3       1 <0>         0.1510
       4  C4         13.3910   33.0770   62.4190  C.3       1 <0>        -0.1064
       5  C5         14.2680   34.3270   62.3360  C.3       1 <0>        -0.1392
       6  C6         13.9740   32.1130   63.4550  C.3       1 <0>        -0.1458
       7  N1         11.2380   33.9550   61.6600  N.am      1 <0>        -0.7319
       8  C7         10.8930   35.2540   61.5660  C.2       1 <0>         0.5751
       9  O1         11.1920   36.0280   62.4540  O.2       1 <0>        -0.5575
      10  C8         10.1530   35.7370   60.3850  C.ar      1 <0>        -0.2585
      11  C9          9.5790   37.0120   60.3920  C.ar      1 <0>        -0.0404
      12  C10         8.8900   37.4610   59.2880  C.ar      1 <0>        -0.1906
      13  C11         8.7640   36.6460   58.1660  C.ar      1 <0>         0.3099
      14  C12         9.3340   35.3760   58.1570  C.ar      1 <0>        -0.2789
      15  C13        10.0300   34.9250   59.2550  C.ar      1 <0>         0.0047
      16  N2          8.0660   37.1020   57.0530  N.2       1 <0>        -1.0792
      17  S1          6.8210   36.2040   56.4320  S.o2      1 <0>         2.6349
      18  O2          5.9130   37.1220   55.8390  O.2       1 <0>        -1.0159
      19  O3          7.4140   35.1400   55.7000  O.2       1 <0>        -1.0161
      20  C14         5.9780   35.4690   57.7930  C.2       1 <0>        -0.6718
      21  C15         5.3990   36.0690   58.8630  C.2       1 <0>        -0.0431
      22  C16         4.7860   35.2840   59.8210  C.2       1 <0>        -0.1810
      23  C17         4.7810   33.9370   59.6630  C.2       1 <0>        -0.1673
      24  S2          5.6580   33.7430   58.1200  S.3       1 <0>         0.1418
@<TRIPOS>BOND
     1     1     2 1
     2     2     3 1
     3     3     4 1
     4     3     7 1
     5     4     5 1
     6     4     6 1
     7     7     8 am
     8     8     9 2
     9     8    10 1
    10    10    15 ar
    11    10    11 ar
    12    11    12 ar
    13    12    13 ar
    14    13    14 ar
    15    13    16 1
    16    14    15 ar
    17    16    17 1
    18    17    18 2
    19    17    19 2
    20    17    20 1
    21    20    24 1
    22    20    21 2
    23    21    22 1
    24    22    23 2
    25    23    24 1

@<TRIPOS>MOLECULE
ZINC65005470_replica-1.pdb
 27 29 0 0 0
SMALL
GASTEIGER

@<TRIPOS>ATOM
       1  C1         -0.3860   24.1680   52.2200  C.3       1 <0>        -0.1528
       2  C2         -0.6770   25.1620   51.0930  C.3       1 <0>        -0.0978
       3  C3         -0.9910   26.5120   51.6830  C.ar      1 <0>        -0.0595
       4  C4         -1.9200   27.3380   51.0530  C.ar      1 <0>        -0.0276
       5  C5         -2.2260   28.5640   51.5600  C.ar      1 <0>        -0.1386
       6  C6         -1.5980   29.0090   52.7380  C.ar      1 <0>         0.1644
       7  C7         -0.6550   28.1660   53.3740  C.ar      1 <0>        -0.1181
       8  C8         -0.3670   26.9080   52.8280  C.ar      1 <0>        -0.0691
       9  C9         -0.0250   28.6170   54.5580  C.ar      1 <0>         0.3456
      10  C10        -0.3680   29.8720   55.0380  C.ar      1 <0>        -0.2636
      11  C11        -1.3030   30.6370   54.3550  C.ar      1 <0>         0.2316
      12  N1         -1.8810   30.2080   53.2580  N.ar      1 <0>        -0.4998
      13  N2          0.9050   27.8280   55.2190  N.pl3     1 <0>        -0.6240
      14  C12         0.4940   26.9760   56.2460  C.ar      1 <0>         0.1657
      15  C13         0.1950   27.4920   57.5020  C.ar      1 <0>        -0.1418
      16  C14        -0.2110   26.6460   58.5150  C.ar      1 <0>         0.0100
      17  C15        -0.3180   25.2870   58.2820  C.ar      1 <0>        -0.6737
      18  C16        -0.0210   24.7700   57.0340  C.ar      1 <0>         0.0066
      19  C17         0.3790   25.6110   56.0150  C.ar      1 <0>        -0.1604
      20  S1         -0.8350   24.2100   59.5780  S.o2      1 <0>         2.6839
      21  O1          0.2660   24.0880   60.4690  O.2       1 <0>        -0.9432
      22  O2         -2.1110   24.6690   60.0030  O.2       1 <0>        -0.9447
      23  N3         -1.0680   22.7140   58.9080  N.pl3     1 <0>        -0.9932
      24  C18        -2.3340   22.4000   58.2410  C.3       1 <0>         0.1199
      25  C19        -3.0940   21.3520   59.0570  C.3       1 <0>        -0.1783
      26  C20        -0.0090   21.7040   58.9820  C.3       1 <0>         0.1047
      27  C21         0.3020   21.1860   57.5760  C.3       1 <0>        -0.1760
@<TRIPOS>BOND
     1     1     2 1
     2     2     3 1
     3     3     8 ar
     4     3     4 ar
     5     4     5 ar
     6     5     6 ar
     7     6    12 ar
     8     6     7 ar
     9     7     8 ar
    10     7     9 ar
    11     9    10 ar
    12     9    13 1
    13    10    11 ar
    14    11    12 ar
    15    13    14 1
    16    14    19 ar
    17    14    15 ar
    18    15    16 ar
    19    16    17 ar
    20    17    18 ar
    21    17    20 1
    22    18    19 ar
    23    20    21 2
    24    20    22 2
    25    20    23 1
    26    23    24 1
    27    23    26 1
    28    24    25 1
    29    26    27 1

@<TRIPOS>MOLECULE
ZINC62772125_replica-1.pdb
 19 20 0 0 0
SMALL
GASTEIGER

@<TRIPOS>ATOM
       1  C1         13.4080   31.2970   63.6180  C.3       1 <0>        -0.1506
       2  C2         13.4790   32.7040   63.0220  C.3       1 <0>        -0.1239
       3  C3         12.0820   33.3300   63.0220  C.3       1 <0>         0.0607
       4  O1         12.1870   34.7270   62.7380  O.3       1 <0>        -0.3205
       5  C4         11.3560   35.2260   61.7830  C.ar      1 <0>         0.0717
       6  C5         11.0880   34.4850   60.6410  C.ar      1 <0>        -0.1584
       7  C6         10.2440   34.9920   59.6730  C.ar      1 <0>        -0.1566
       8  C7          9.6630   36.2410   59.8420  C.ar      1 <0>         0.1878
       9  C8          9.9330   36.9820   60.9850  C.ar      1 <0>        -0.1592
      10  C9         10.7730   36.4720   61.9560  C.ar      1 <0>        -0.1031
      11  N1          8.8080   36.7550   58.8600  N.pl3     1 <0>        -0.7428
      12  C10         8.5280   38.1920   58.8130  C.3       1 <0>         0.1534
      13  C11         8.6150   38.6810   57.3650  C.3       1 <0>        -0.1710
      14  C12         7.1220   38.4560   59.3550  C.3       1 <0>        -0.0486
      15  C13         6.3500   37.1620   59.4010  C.2       1 <0>        -0.0083
      16  C14         5.9330   36.5350   60.5150  C.2       1 <0>        -0.2098
      17  C15         5.2540   35.3660   60.0970  C.2       1 <0>        -0.2127
      18  C16         5.2970   35.3510   58.7530  C.2       1 <0>        -0.0413
      19  O2          5.9570   36.4440   58.3370  O.3       1 <0>        -0.1738
@<TRIPOS>BOND
     1     1     2 1
     2     2     3 1
     3     3     4 1
     4     4     5 1
     5     5    10 ar
     6     5     6 ar
     7     6     7 ar
     8     7     8 ar
     9     8     9 ar
    10     8    11 1
    11     9    10 ar
    12    11    12 1
    13    12    13 1
    14    12    14 1
    15    14    15 1
    16    15    19 1
    17    15    16 2
    18    16    17 1
    19    17    18 2
    20    18    19 1

@<TRIPOS>MOLECULE
ZINC37092082_replica-1.pdb
 19 19 0 0 0
SMALL
GASTEIGER

@<TRIPOS>ATOM
       1  C1         -1.4300   28.3450   59.4640  C.3       1 <0>        -0.1546
       2  C2         -1.0960   29.2810   58.3000  C.3       1 <0>        -0.1197
       3  C3         -1.7240   28.7380   57.0150  C.3       1 <0>        -0.0907
       4  C4         -2.9280   27.8620   57.3640  C.3       1 <0>        -0.1506
       5  C5         -2.1810   29.9070   56.1370  C.3       1 <0>        -0.1243
       6  C6         -1.5150   29.8040   54.7650  C.3       1 <0>         0.1472
       7  C7         -0.8400   31.1360   54.4250  C.3       1 <0>        -0.1394
       8  C8          0.2980   31.3970   55.4150  C.3       1 <0>        -0.1513
       9  N1         -0.5090   28.7390   54.7880  N.pl3     1 <0>        -0.7298
      10  C9         -0.5340   27.7320   53.8140  C.ar      1 <0>         0.1957
      11  C10        -1.1540   27.9590   52.5940  C.ar      1 <0>        -0.1446
      12  C11        -1.1780   26.9630   51.6360  C.ar      1 <0>        -0.1362
      13  C12        -0.5840   25.7380   51.8900  C.ar      1 <0>         0.0731
      14  C13         0.0350   25.5060   53.1060  C.ar      1 <0>        -0.1985
      15  C14         0.0680   26.5000   54.0680  C.ar      1 <0>         0.0828
      16  O1          0.6820   26.2760   55.2610  O.3       1 <0>        -0.3149
      17  C15         0.3470   25.0670   55.9460  C.3       1 <0>         0.0567
      18  C16        -0.1190   25.3970   57.3650  C.3       1 <0>        -0.1520
      19  F1         -0.6120   24.7680   50.9500  F         1 <0>        -0.1434
@<TRIPOS>BOND
     1     1     2 1
     2     2     3 1
     3     3     4 1
     4     3     5 1
     5     5     6 1
     6     6     7 1
     7     6     9 1
     8     7     8 1
     9     9    10 1
    10    10    15 ar
    11    10    11 ar
    12    11    12 ar
    13    12    13 ar
    14    13    14 ar
    15    13    19 1
    16    14    15 ar
    17    15    16 1
    18    16    17 1
    19    17    18 1

@<TRIPOS>MOLECULE
ZINC65565284_replica-1.pdb
 22 23 0 0 0
SMALL
GASTEIGER

@<TRIPOS>ATOM
       1  C1          5.4670   36.1170   57.9720  C.3       1 <0>         0.0709
       2  N1          6.3610   36.3710   56.8400  N.pl3     1 <0>        -0.4685
       3  C2          6.2580   35.8630   55.5760  C.2       1 <0>         0.1599
       4  N2          7.2520   36.3410   54.8830  N.2       1 <0>        -0.2887
       5  N3          7.9720   37.1110   55.6170  N.2       1 <0>        -0.2832
       6  C3          7.4680   37.1710   56.8280  C.2       1 <0>         0.1372
       7  S1          8.1030   38.1030   58.1820  S.3       1 <0>         0.1017
       8  C4          8.8980   36.8980   59.1920  C.ar      1 <0>        -0.1521
       9  C5          9.3490   35.7090   58.6320  C.ar      1 <0>        -0.0291
      10  C6          9.9720   34.7650   59.4240  C.ar      1 <0>        -0.1502
      11  C7         10.1480   35.0040   60.7800  C.ar      1 <0>         0.1809
      12  C8          9.6960   36.1910   61.3410  C.ar      1 <0>        -0.1292
      13  C9          9.0800   37.1380   60.5490  C.ar      1 <0>        -0.0297
      14  N4         10.7800   34.0460   61.5840  N.am      1 <0>        -0.6667
      15  C10        11.9060   34.3650   62.2540  C.2       1 <0>         0.5384
      16  O1         12.4170   35.4530   62.0950  O.2       1 <0>        -0.4882
      17  C11        12.5280   33.3700   63.1990  C.3       1 <0>        -0.1445
      18  S2         11.5700   31.8300   63.1740  S.3       1 <0>        -0.0721
      19  C12        12.6750   30.6130   63.9390  C.3       1 <0>         0.4491
      20  F1         12.0020   29.9620   64.9800  F         1 <0>        -0.1699
      21  F2         13.0700   29.6740   62.9810  F         1 <0>        -0.1447
      22  F3         13.8040   31.2630   64.4480  F         1 <0>        -0.1694
@<TRIPOS>BOND
     1     1     2 1
     2     2     6 1
     3     2     3 1
     4     3     4 2
     5     4     5 1
     6     5     6 2
     7     6     7 1
     8     7     8 1
     9     8    13 ar
    10     8     9 ar
    11     9    10 ar
    12    10    11 ar
    13    11    12 ar
    14    11    14 1
    15    12    13 ar
    16    14    15 am
    17    15    16 2
    18    15    17 1
    19    17    18 1
    20    18    19 1
    21    19    20 1
    22    19    21 1
    23    19    22 1

@<TRIPOS>MOLECULE
ZINC43763494_replica-1.pdb
 24 25 0 0 0
SMALL
GASTEIGER

@<TRIPOS>ATOM
       1  C1          8.0140   32.1580   57.9390  C.3       1 <0>        -0.1516
       2  C2          6.9810   32.3260   59.0550  C.3       1 <0>        -0.0823
       3  C3          7.6960   32.6550   60.3670  C.3       1 <0>        -0.1466
       4  C4          6.0240   33.4650   58.6960  C.3       1 <0>        -0.0682
       5  C5          6.6270   34.7990   59.1440  C.3       1 <0>        -0.0840
       6  C6          6.9560   35.6330   57.9330  C.2       1 <0>        -0.1415
       7  C7          8.0990   36.2770   57.9210  C.2       1 <0>        -0.0358
       8  C8          8.5530   37.1510   56.7890  C.3       1 <0>        -0.0784
       9  C9          7.7370   36.8480   55.5300  C.3       1 <0>        -0.1176
      10  C10         6.2490   36.8690   55.8970  C.3       1 <0>        -0.1367
      11  C11         5.9620   35.6730   56.8110  C.3       1 <0>        -0.0765
      12  C12         8.9910   36.1340   59.0910  C.ar      1 <0>        -0.0362
      13  C13         9.8890   35.0700   59.1610  C.ar      1 <0>        -0.0629
      14  C14        10.7200   34.9430   60.2560  C.ar      1 <0>        -0.1353
      15  C15        10.6620   35.8680   61.2830  C.ar      1 <0>        -0.1223
      16  C16         9.7730   36.9260   61.2200  C.ar      1 <0>        -0.1295
      17  C17         8.9410   37.0680   60.1270  C.ar      1 <0>        -0.1182
      18  C18         4.7050   33.2520   59.3920  C.2       1 <0>         0.4691
      19  O1          4.3320   32.1320   59.6470  O.2       1 <0>        -0.4806
      20  O2          3.9450   34.3060   59.7280  O.3       1 <0>        -0.3482
      21  C19         2.7900   34.5560   58.9260  C.3       1 <0>         0.1199
      22  C20         2.7300   36.0430   58.5680  C.3       1 <0>        -0.1920
      23  C21         2.8700   33.7270   57.6420  C.3       1 <0>        -0.1421
      24  C22         1.5330   34.1680   59.7060  C.3       1 <0>        -0.1840
@<TRIPOS>BOND
     1     1     2 1
     2     2     3 1
     3     2     4 1
     4     4     5 1
     5     4    18 1
     6     5     6 1
     7     6    11 1
     8     6     7 2
     9     7     8 1
    10     7    12 1
    11     8     9 1
    12     9    10 1
    13    10    11 1
    14    12    17 ar
    15    12    13 ar
    16    13    14 ar
    17    14    15 ar
    18    15    16 ar
    19    16    17 ar
    20    18    19 2
    21    18    20 1
    22    20    21 1
    23    21    22 1
    24    21    23 1
    25    21    24 1

@<TRIPOS>MOLECULE
ZINC66886773_replica-1.pdb
 22 22 0 0 0
SMALL
GASTEIGER

@<TRIPOS>ATOM
       1  C1          0.4940   34.0810   59.9830  C.3       1 <0>        -0.1540
       2  C2          1.0590   32.9610   59.1070  C.3       1 <0>         0.0803
       3  O1          0.7310   33.2140   57.7390  O.3       1 <0>        -0.3622
       4  C3          0.4930   32.1430   56.9580  C.2       1 <0>         0.6564
       5  O2          1.1810   31.9420   55.9770  O.2       1 <0>        -0.5610
       6  N1         -0.5070   31.2940   57.2670  N.am      1 <0>        -0.6964
       7  C4         -0.7650   30.1290   56.4180  C.3       1 <0>         0.1791
       8  C5         -0.8190   28.8690   57.2830  C.3       1 <0>        -0.1025
       9  C6          0.5070   28.1140   57.1680  C.3       1 <0>        -0.1393
      10  C7         -1.0560   29.2620   58.7430  C.3       1 <0>        -0.1538
      11  C8         -2.0820   30.3060   55.7080  C.2       1 <0>         0.4664
      12  O3         -2.8130   31.2200   56.0100  O.2       1 <0>        -0.4944
      13  O4         -2.4440   29.4510   54.7400  O.3       1 <0>        -0.3336
      14  C9         -1.8550   29.6400   53.4510  C.3       1 <0>         0.1281
      15  C10        -2.8950   30.2260   52.4960  C.3       1 <0>        -0.1669
      16  C11        -1.3740   28.3140   52.9190  C.ar      1 <0>        -0.0663
      17  C12        -1.7330   27.9090   51.6470  C.ar      1 <0>        -0.1027
      18  C13        -1.2920   26.6930   51.1570  C.ar      1 <0>        -0.0899
      19  C14        -0.4930   25.8820   51.9400  C.ar      1 <0>        -0.1465
      20  C15        -0.1320   26.2870   53.2140  C.ar      1 <0>         0.1005
      21  C16        -0.5690   27.5070   53.7010  C.ar      1 <0>        -0.1411
      22  F1          0.6490   25.4940   53.9800  F         1 <0>        -0.1363
@<TRIPOS>BOND
     1     1     2 1
     2     2     3 1
     3     3     4 1
     4     4     5 2
     5     4     6 am
     6     6     7 1
     7     7     8 1
     8     7    11 1
     9     8     9 1
    10     8    10 1
    11    11    12 2
    12    11    13 1
    13    13    14 1
    14    14    15 1
    15    14    16 1
    16    16    21 ar
    17    16    17 ar
    18    17    18 ar
    19    18    19 ar
    20    19    20 ar
    21    20    21 ar
    22    20    22 1

@<TRIPOS>MOLECULE
ZINC45330908_replica-1.pdb
 21 21 0 0 0
SMALL
GASTEIGER

@<TRIPOS>ATOM
       1  C1         -0.0870   27.9980   57.2510  C.3       1 <0>        -0.1049
       2  C2         -0.2140   27.6460   55.7910  C.ar      1 <0>        -0.1222
       3  C3          0.3930   26.5070   55.2990  C.ar      1 <0>        -0.0809
       4  C4          0.2770   26.1840   53.9600  C.ar      1 <0>        -0.1488
       5  C5         -0.4480   26.9990   53.1090  C.ar      1 <0>        -0.0419
       6  C6         -1.0570   28.1380   53.5960  C.ar      1 <0>        -0.2037
       7  C7         -0.9460   28.4620   54.9410  C.ar      1 <0>         0.1315
       8  O1         -1.5490   29.5810   55.4240  O.3       1 <0>        -0.3115
       9  C8         -1.2350   30.8170   54.7780  C.3       1 <0>         0.0585
      10  C9          0.2340   31.1610   55.0260  C.3       1 <0>        -0.1162
      11  C10         0.3590   31.9620   56.3240  C.3       1 <0>        -0.1230
      12  C11         1.7790   32.5170   56.4470  C.3       1 <0>        -0.1040
      13  C12         1.8060   33.6180   57.5090  C.3       1 <0>         0.2104
      14  C13         0.6790   34.6170   57.2350  C.3       1 <0>        -0.1448
      15  C14         1.6180   33.0210   58.8410  C.1       1 <0>         0.1721
      16  N1          1.4730   32.5600   59.8690  N.1       1 <0>        -0.4207
      17  N2          3.0990   34.3130   57.4610  N.3       1 <0>        -0.6637
      18  C15         3.8140   34.0070   56.2150  C.3       1 <0>         0.0141
      19  C16        -0.5710   26.6430   51.6500  C.3       1 <0>        -0.0586
      20  C17        -0.6930   25.1260   51.5030  C.3       1 <0>        -0.1442
      21  C18        -1.8160   27.3140   51.0650  C.3       1 <0>        -0.1446
@<TRIPOS>BOND
     1     1     2 1
     2     2     7 ar
     3     2     3 ar
     4     3     4 ar
     5     4     5 ar
     6     5     6 ar
     7     5    19 1
     8     6     7 ar
     9     7     8 1
    10     8     9 1
    11     9    10 1
    12    10    11 1
    13    11    12 1
    14    12    13 1
    15    13    14 1
    16    13    15 1
    17    13    17 1
    18    15    16 3
    19    17    18 1
    20    19    20 1
    21    19    21 1

@<TRIPOS>MOLECULE
ZINC05710625_replica-1.pdb
 24 26 0 0 0
SMALL
GASTEIGER

@<TRIPOS>ATOM
       1  C1          4.6000   36.3510   55.7260  C.3       1 <0>        -0.1142
       2  C2          4.6590   35.7150   57.0900  C.2       1 <0>        -0.0178
       3  C3          3.5600   35.6780   57.9120  C.2       1 <0>        -0.1836
       4  C4          3.6660   35.0990   59.1370  C.2       1 <0>        -0.1747
       5  S1          5.3170   34.5700   59.1840  S.3       1 <0>         0.1821
       6  C5          5.8240   35.1350   57.5700  C.2       1 <0>        -0.2476
       7  C6          7.1320   35.0220   56.9220  C.2       1 <0>         0.5610
       8  O1          7.2620   34.3330   55.9280  O.2       1 <0>        -0.4891
       9  O2          8.1950   35.6820   57.4280  O.3       1 <0>        -0.3493
      10  C7          9.2140   34.8850   58.0850  C.3       1 <0>         0.1493
      11  C8          9.5030   35.4620   59.4470  C.2       1 <0>         0.0861
      12  C9          8.6630   36.3630   60.0100  C.2       1 <0>        -0.2273
      13  S2          9.4950   36.6690   61.5610  S.3       1 <0>         0.0648
      14  C10        10.8440   35.6040   61.3090  C.2       1 <0>         0.3402
      15  N1         10.5830   35.1040   60.1150  N.2       1 <0>        -0.5660
      16  N2         11.9190   35.3470   62.1460  N.pl3     1 <0>        -0.6114
      17  C11        12.2250   34.0290   62.5060  C.ar      1 <0>         0.1201
      18  C12        11.2070   33.0970   62.6580  C.ar      1 <0>        -0.0996
      19  C13        11.5110   31.7950   63.0090  C.ar      1 <0>        -0.1765
      20  C14        12.8300   31.4230   63.2190  C.ar      1 <0>         0.1143
      21  C15        13.8470   32.3550   63.0730  C.ar      1 <0>        -0.1139
      22  C16        13.5450   33.6550   62.7170  C.ar      1 <0>        -0.1160
      23  O3         13.1270   30.1430   63.5700  O.3       1 <0>        -0.3149
      24  C17        12.2220   29.4870   64.4590  C.3       1 <0>         0.0252
@<TRIPOS>BOND
     1     1     2 1
     2     2     6 2
     3     2     3 1
     4     3     4 2
     5     4     5 1
     6     5     6 1
     7     6     7 1
     8     7     8 2
     9     7     9 1
    10     9    10 1
    11    10    11 1
    12    11    15 1
    13    11    12 2
    14    12    13 1
    15    13    14 1
    16    14    15 2
    17    14    16 1
    18    16    17 1
    19    17    22 ar
    20    17    18 ar
    21    18    19 ar
    22    19    20 ar
    23    20    21 ar
    24    20    23 1
    25    21    22 ar
    26    23    24 1

@<TRIPOS>MOLECULE
ZINC57497055_replica-1.pdb
 21 23 0 0 0
SMALL
GASTEIGER

@<TRIPOS>ATOM
       1  C1         -2.8110   30.3860   52.7980  C.3       1 <0>        -0.1480
       2  C2         -1.7810   29.7810   53.7530  C.3       1 <0>        -0.0280
       3  C3         -1.2970   28.4650   53.2010  C.ar      1 <0>        -0.0494
       4  C4         -1.6450   28.0830   51.9190  C.ar      1 <0>        -0.1148
       5  C5         -1.2010   26.8760   51.4120  C.ar      1 <0>        -0.0856
       6  C6         -0.4090   26.0490   52.1850  C.ar      1 <0>        -0.1454
       7  C7         -0.0590   26.4310   53.4690  C.ar      1 <0>         0.1029
       8  C8         -0.4990   27.6420   53.9750  C.ar      1 <0>        -0.1341
       9  F1          0.7160   25.6230   54.2270  F         1 <0>        -0.1356
      10  S1         -2.5460   29.5110   55.3760  S.3       1 <0>         0.0045
      11  C9         -1.4110   30.2400   56.5080  C.2       1 <0>         0.3724
      12  N1         -0.8650   31.3850   56.1960  N.2       1 <0>        -0.5172
      13  C10         0.0230   32.0130   57.0230  C.2       1 <0>         0.1757
      14  C11         0.6840   33.2340   56.8260  C.2       1 <0>        -0.1588
      15  C12         1.5360   33.7040   57.7620  C.2       1 <0>        -0.1252
      16  S2          1.4740   32.4400   59.0210  S.3       1 <0>         0.1698
      17  C13         0.3160   31.3540   58.2300  C.2       1 <0>        -0.3240
      18  C14        -0.2690   30.1330   58.5550  C.2       1 <0>         0.5839
      19  O1         -0.0060   29.5730   59.6070  O.2       1 <0>        -0.5175
      20  N2         -1.1440   29.5870   57.6770  N.am      1 <0>        -0.5153
      21  C15        -1.7910   28.3060   57.9760  C.3       1 <0>         0.0600
@<TRIPOS>BOND
     1     1     2 1
     2     2     3 1
     3     2    10 1
     4     3     8 ar
     5     3     4 ar
     6     4     5 ar
     7     5     6 ar
     8     6     7 ar
     9     7     8 ar
    10     7     9 1
    11    10    11 1
    12    11    20 1
    13    11    12 2
    14    12    13 1
    15    13    17 2
    16    13    14 1
    17    14    15 2
    18    15    16 1
    19    16    17 1
    20    17    18 1
    21    18    19 2
    22    18    20 am
    23    20    21 1

@<TRIPOS>MOLECULE
ZINC02932995_replica-1.pdb
 27 29 0 0 0
SMALL
GASTEIGER

@<TRIPOS>ATOM
       1  C1          4.1350   35.6440   56.6130  C.3       1 <0>        -0.1534
       2  C2          2.7070   36.1870   56.7120  C.3       1 <0>        -0.1223
       3  C3          1.9820   35.5050   57.8740  C.3       1 <0>        -0.1324
       4  C4          0.5460   35.1810   57.4590  C.3       1 <0>         0.1176
       5  N1          0.5540   34.0930   56.4790  N.am      1 <0>        -0.7252
       6  C5          0.4480   32.8130   56.8910  C.2       1 <0>         0.5304
       7  O1          0.3460   32.5640   58.0730  O.2       1 <0>        -0.5231
       8  C6          0.4570   31.6940   55.8820  C.3       1 <0>        -0.1528
       9  S1         -1.2460   31.2810   55.4260  S.3       1 <0>         0.0903
      10  C7         -0.9840   29.7250   54.6420  C.ar      1 <0>         0.3377
      11  N2         -1.4860   29.5310   53.4370  N.ar      1 <0>        -0.5672
      12  C8         -1.3080   28.3600   52.8080  C.ar      1 <0>         0.2034
      13  C9         -1.8280   28.1190   51.5290  C.ar      1 <0>        -0.1157
      14  C10        -1.6200   26.9100   50.9330  C.ar      1 <0>        -0.0687
      15  C11        -0.8960   25.9100   51.5760  C.ar      1 <0>        -0.1391
      16  C12        -0.3760   26.1110   52.8210  C.ar      1 <0>        -0.0638
      17  C13        -0.5720   27.3410   53.4600  C.ar      1 <0>        -0.2033
      18  C14        -0.0560   27.6060   54.7530  C.ar      1 <0>         0.4885
      19  N3         -0.2870   28.7950   55.2900  N.ar      1 <0>        -0.5770
      20  N4          0.6680   26.6510   55.4350  N.pl3     1 <0>        -0.6887
      21  C15         0.1850   26.1480   56.7240  C.3       1 <0>         0.1677
      22  C16         0.1620   24.6410   56.6970  C.ar      1 <0>        -0.1164
      23  C17         0.6190   23.9630   55.5830  C.ar      1 <0>        -0.0985
      24  C18         0.6020   22.5810   55.5590  C.ar      1 <0>        -0.1217
      25  C19         0.1180   21.8770   56.6460  C.ar      1 <0>        -0.1086
      26  C20        -0.3440   22.5550   57.7580  C.ar      1 <0>        -0.1217
      27  C21        -0.3220   23.9380   57.7840  C.ar      1 <0>        -0.0986
@<TRIPOS>BOND
     1     1     2 1
     2     2     3 1
     3     3     4 1
     4     4     5 1
     5     5     6 am
     6     6     7 2
     7     6     8 1
     8     8     9 1
     9     9    10 1
    10    10    19 ar
    11    10    11 ar
    12    11    12 ar
    13    12    17 ar
    14    12    13 ar
    15    13    14 ar
    16    14    15 ar
    17    15    16 ar
    18    16    17 ar
    19    17    18 ar
    20    18    19 ar
    21    18    20 1
    22    20    21 1
    23    21    22 1
    24    22    27 ar
    25    22    23 ar
    26    23    24 ar
    27    24    25 ar
    28    25    26 ar
    29    26    27 ar

@<TRIPOS>MOLECULE
ZINC36589930_replica-1.pdb
 25 27 0 0 0
SMALL
GASTEIGER

@<TRIPOS>ATOM
       1  C1         11.4160   33.0500   62.5420  C.3       1 <0>        -0.1393
       2  C2         11.9850   34.4430   62.2650  C.3       1 <0>        -0.0388
       3  C3         12.1570   35.1970   63.5860  C.3       1 <0>        -0.1408
       4  C4         13.3430   34.3110   61.5730  C.3       1 <0>        -0.1477
       5  C5         11.0390   35.2040   61.3720  C.ar      1 <0>        -0.0089
       6  C6         10.6480   34.6660   60.1610  C.ar      1 <0>        -0.1486
       7  C7          9.7800   35.3640   59.3420  C.ar      1 <0>        -0.0222
       8  C8          9.3020   36.6000   59.7350  C.ar      1 <0>        -0.6534
       9  C9          9.6920   37.1380   60.9470  C.ar      1 <0>         0.0253
      10  C10        10.5570   36.4380   61.7680  C.ar      1 <0>        -0.1473
      11  S1          8.1960   37.4900   58.6910  S.o2      1 <0>         2.5182
      12  O1          7.7880   38.6090   59.4660  O.2       1 <0>        -0.9195
      13  O2          8.9120   37.6730   57.4770  O.2       1 <0>        -0.9295
      14  C11         6.7970   36.3670   58.4290  C.3       1 <0>        -0.5692
      15  C12         6.2970   36.5290   57.0140  C.3       1 <0>        -0.1093
      16  C13         5.3850   35.4230   56.5800  C.3       1 <0>        -0.0773
      17  C14         3.9950   35.4830   57.1320  C.ar      1 <0>        -0.1154
      18  C15         2.9870   35.0350   56.2820  C.ar      1 <0>        -0.1120
      19  C16         1.6670   35.0300   56.6740  C.ar      1 <0>        -0.1170
      20  C17         1.3280   35.4770   57.9390  C.ar      1 <0>        -0.1152
      21  C18         2.3090   35.9240   58.7870  C.ar      1 <0>        -0.0963
      22  C19         3.6660   35.9400   58.3980  C.ar      1 <0>         0.1654
      23  N1          4.5160   36.4250   59.3230  N.2       1 <0>        -0.6064
      24  C20         5.7420   36.6690   59.4310  C.2       1 <0>         0.4360
      25  O3          6.1420   37.2610   60.5740  O.3       1 <0>        -0.4760
@<TRIPOS>BOND
     1     1     2 1
     2     2     3 1
     3     2     4 1
     4     2     5 1
     5     5    10 ar
     6     5     6 ar
     7     6     7 ar
     8     7     8 ar
     9     8     9 ar
    10     8    11 1
    11     9    10 ar
    12    11    12 2
    13    11    13 2
    14    11    14 1
    15    14    24 1
    16    14    15 1
    17    15    16 1
    18    16    17 1
    19    17    22 ar
    20    17    18 ar
    21    18    19 ar
    22    19    20 ar
    23    20    21 ar
    24    21    22 ar
    25    22    23 1
    26    23    24 2
    27    24    25 1

@<TRIPOS>MOLECULE
ZINC53494081_replica-1.pdb
 20 21 0 0 0
SMALL
GASTEIGER

@<TRIPOS>ATOM
       1  C1          0.6020   27.3970   56.5370  C.3       1 <0>        -0.1672
       2  C2         -0.6450   27.8580   55.7810  C.3       1 <0>        -0.0083
       3  N1         -0.2460   28.6950   54.6420  N.4       1 <0>        -0.2618
       4  C3         -0.7240   28.1280   53.4560  C.ar      1 <0>        -0.2577
       5  C4         -1.5330   28.8690   52.6140  C.ar      1 <0>        -0.1710
       6  C5         -2.0060   28.3080   51.4420  C.ar      1 <0>        -0.0752
       7  C6         -1.6690   27.0080   51.1120  C.ar      1 <0>        -0.3029
       8  C7         -0.8600   26.2690   51.9540  C.ar      1 <0>        -0.0538
       9  C8         -0.3830   26.8300   53.1240  C.ar      1 <0>        -0.1555
      10  C9         -0.4930   24.8530   51.5940  C.3       1 <0>        -0.1066
      11  C10        -0.8090   30.0420   54.8020  C.3       1 <0>         0.0161
      12  C11        -1.9150   30.0100   55.8600  C.3       1 <0>        -0.1699
      13  C12         0.2920   31.0060   55.2460  C.3       1 <0>         0.0531
      14  N2         -0.3110   32.2790   55.6660  N.3       1 <0>        -0.6788
      15  C13         0.1330   32.6520   57.0160  C.3       1 <0>         0.1455
      16  C14         1.0560   33.8410   56.9310  C.2       1 <0>        -0.1408
      17  C15         0.8640   35.1030   57.3830  C.2       1 <0>        -0.1406
      18  C16         1.8610   36.0420   57.1930  C.2       1 <0>        -0.1586
      19  C17         3.0000   35.6720   56.5590  C.2       1 <0>        -0.1697
      20  S1          2.6870   33.9490   56.2140  S.3       1 <0>         0.0316
@<TRIPOS>BOND
     1     1     2 1
     2     2     3 1
     3     3     4 1
     4     3    11 1
     5     4     9 ar
     6     4     5 ar
     7     5     6 ar
     8     6     7 ar
     9     7     8 ar
    10     8     9 ar
    11     8    10 1
    12    11    12 1
    13    11    13 1
    14    13    14 1
    15    14    15 1
    16    15    16 1
    17    16    20 1
    18    16    17 2
    19    17    18 1
    20    18    19 2
    21    19    20 1

@<TRIPOS>MOLECULE
ZINC37780715_replica-1.pdb
 20 20 0 0 0
SMALL
GASTEIGER

@<TRIPOS>ATOM
       1  C1          8.5130   38.4710   59.4880  C.3       1 <0>        -0.1055
       2  C2          9.1580   37.1140   59.5960  C.ar      1 <0>        -0.1246
       3  C3          9.8960   36.7860   60.7160  C.ar      1 <0>        -0.1050
       4  C4         10.4890   35.5360   60.8140  C.ar      1 <0>         0.0712
       5  C5         10.3420   34.6150   59.7880  C.ar      1 <0>        -0.1644
       6  C6          9.6050   34.9410   58.6670  C.ar      1 <0>        -0.1646
       7  C7          9.0060   36.1910   58.5700  C.ar      1 <0>         0.1986
       8  N1          8.2530   36.5190   57.4370  N.pl3     1 <0>        -0.7245
       9  C8          6.7930   36.4180   57.4720  C.3       1 <0>         0.1509
      10  C9          6.2340   36.6200   56.0610  C.3       1 <0>        -0.1716
      11  C10         6.3880   35.0370   57.9880  C.3       1 <0>        -0.1144
      12  C11         5.5470   35.1920   59.2560  C.3       1 <0>         0.1135
      13  C12         6.2380   34.4710   60.4160  C.3       1 <0>        -0.1814
      14  C13         5.4010   36.6770   59.5930  C.3       1 <0>        -0.1794
      15  O1          4.2540   34.6210   59.0430  O.3       1 <0>        -0.3674
      16  C14         3.2310   35.5830   58.7790  C.3       1 <0>         0.0270
      17  O2         11.2160   35.2140   61.9180  O.3       1 <0>        -0.3158
      18  C15        11.9980   34.0190   61.8540  C.3       1 <0>         0.0797
      19  C16        13.4460   34.3360   62.2340  C.3       1 <0>        -0.1803
      20  C17        11.4280   32.9850   62.8280  C.3       1 <0>        -0.1492
@<TRIPOS>BOND
     1     1     2 1
     2     2     7 ar
     3     2     3 ar
     4     3     4 ar
     5     4     5 ar
     6     4    17 1
     7     5     6 ar
     8     6     7 ar
     9     7     8 1
    10     8     9 1
    11     9    10 1
    12     9    11 1
    13    11    12 1
    14    12    13 1
    15    12    14 1
    16    12    15 1
    17    15    16 1
    18    17    18 1
    19    18    19 1
    20    18    20 1

@<TRIPOS>MOLECULE
ZINC42780905_replica-1.pdb
 21 21 0 0 0
SMALL
GASTEIGER

@<TRIPOS>ATOM
       1  C1         12.8850   30.8580   62.8990  C.3       1 <0>        -0.1752
       2  C2         12.3070   32.1350   63.5100  C.3       1 <0>         0.1086
       3  N1         12.7350   33.2920   62.7200  N.pl3     1 <0>        -0.6108
       4  C3         14.1560   33.4960   62.4290  C.3       1 <0>         0.0755
       5  C4         14.9120   33.7510   63.7340  C.3       1 <0>         0.4284
       6  F1         16.1640   34.3070   63.4470  F         1 <0>        -0.1770
       7  F2         14.1800   34.6390   64.5310  F         1 <0>        -0.1780
       8  F3         15.0840   32.5440   64.4180  F         1 <0>        -0.1811
       9  C5         11.7920   34.1970   62.2440  C.ar      1 <0>         0.2406
      10  C6         11.9020   35.5480   62.5650  C.ar      1 <0>        -0.1642
      11  C7         10.9720   36.4460   62.0960  C.ar      1 <0>        -0.0351
      12  C8          9.9150   36.0020   61.2950  C.ar      1 <0>        -0.1170
      13  C9          9.8070   34.6450   60.9740  C.ar      1 <0>        -0.0653
      14  C10        10.7440   33.7520   61.4430  C.ar      1 <0>        -0.1496
      15  C11         8.6700   34.1620   60.1120  C.3       1 <0>         0.5023
      16  F4          8.6530   32.7630   60.1040  F         1 <0>        -0.1846
      17  F5          7.4600   34.6380   60.6260  F         1 <0>        -0.1741
      18  F6          8.8410   34.6340   58.8070  F         1 <0>        -0.1273
      19  C12         8.9160   36.9610   60.7910  C.2       1 <0>         0.3700
      20  S1          9.0740   37.6130   59.2160  S.2       1 <0>        -0.5108
      21  N2          7.8790   37.3250   61.5710  N.pl3     1 <0>        -0.7604
@<TRIPOS>BOND
     1     1     2 1
     2     2     3 1
     3     3     4 1
     4     3     9 1
     5     4     5 1
     6     5     6 1
     7     5     7 1
     8     5     8 1
     9     9    14 ar
    10     9    10 ar
    11    10    11 ar
    12    11    12 ar
    13    12    13 ar
    14    12    19 1
    15    13    14 ar
    16    13    15 1
    17    15    16 1
    18    15    17 1
    19    15    18 1
    20    19    20 2
    21    19    21 1

@<TRIPOS>MOLECULE
ZINC29963210_replica-1.pdb
 27 30 0 0 0
SMALL
GASTEIGER

@<TRIPOS>ATOM
       1  C1         -0.6820   25.4270   51.9740  C.3       1 <0>        -0.1488
       2  C2         -0.7040   26.9270   51.6730  C.3       1 <0>        -0.0675
       3  C3         -1.8970   27.2490   50.7690  C.3       1 <0>        -0.1495
       4  C4         -0.8280   27.6970   52.9620  C.ar      1 <0>        -0.0381
       5  C5         -0.0910   27.3170   54.0680  C.ar      1 <0>        -0.1067
       6  C6         -0.2050   28.0230   55.2510  C.ar      1 <0>        -0.0746
       7  C7         -1.0570   29.1090   55.3270  C.ar      1 <0>        -0.1489
       8  C8         -1.7980   29.4850   54.2230  C.ar      1 <0>        -0.1125
       9  C9         -1.6800   28.7840   53.0390  C.ar      1 <0>        -0.1008
      10  C10        -1.1820   29.8780   56.6180  C.3       1 <0>         0.2024
      11  C11        -1.5650   28.9350   57.7290  C.2       1 <0>        -0.2519
      12  C12        -2.5070   27.9600   57.7360  C.2       1 <0>        -0.0737
      13  C13        -2.6870   27.2090   58.8820  C.2       1 <0>        -0.1712
      14  C14        -1.9150   27.4690   59.9650  C.2       1 <0>        -0.1094
      15  S1         -0.8900   28.8060   59.3770  S.3       1 <0>         0.0509
      16  N1          0.1040   30.5130   56.9350  N.4       1 <0>        -0.5445
      17  C15         0.1900   31.8540   56.3390  C.3       1 <0>         0.1090
      18  C16         0.7820   32.8110   57.3400  C.2       1 <0>         0.0967
      19  N2          2.0550   33.0700   57.5100  N.2       1 <0>        -0.4247
      20  C17         2.1110   33.9790   58.5100  C.2       1 <0>         0.2506
      21  N3          0.8790   34.2220   58.8800  N.2       1 <0>        -0.3432
      22  O1          0.1080   33.5600   58.2180  O.3       1 <0>         0.1140
      23  C18         3.3370   34.5900   59.0770  C.2       1 <0>        -0.0873
      24  C19         3.8580   35.7680   58.5460  C.2       1 <0>        -0.1397
      25  C20         4.9790   36.2700   59.1120  C.2       1 <0>        -0.1772
      26  S2          5.3160   35.0860   60.4020  S.3       1 <0>         0.1669
      27  C21         3.9840   34.0120   60.1300  C.2       1 <0>        -0.1592
@<TRIPOS>BOND
     1     1     2 1
     2     2     3 1
     3     2     4 1
     4     4     9 ar
     5     4     5 ar
     6     5     6 ar
     7     6     7 ar
     8     7     8 ar
     9     7    10 1
    10     8     9 ar
    11    10    11 1
    12    10    16 1
    13    11    15 1
    14    11    12 2
    15    12    13 1
    16    13    14 2
    17    14    15 1
    18    16    17 1
    19    17    18 1
    20    18    22 1
    21    18    19 2
    22    19    20 1
    23    20    21 2
    24    20    23 1
    25    21    22 1
    26    23    27 2
    27    23    24 1
    28    24    25 2
    29    25    26 1
    30    26    27 1

@<TRIPOS>MOLECULE
ZINC52253286_replica-1.pdb
 20 20 0 0 0
SMALL
GASTEIGER

@<TRIPOS>ATOM
       1  C1          8.8420   38.6280   57.4590  C.3       1 <0>        -0.1520
       2  C2          7.4870   38.0010   57.1240  C.3       1 <0>        -0.0824
       3  C3          7.1660   38.2390   55.6460  C.3       1 <0>        -0.1620
       4  C4          7.5400   36.4960   57.3980  C.3       1 <0>        -0.1064
       5  C5          7.1200   36.2270   58.8440  C.3       1 <0>         0.1711
       6  C6          8.3490   36.1150   59.7110  C.ar      1 <0>        -0.1463
       7  C7          9.3650   35.2480   59.3590  C.ar      1 <0>        -0.0821
       8  C8         10.4920   35.1440   60.1510  C.ar      1 <0>        -0.1384
       9  C9         10.6020   35.9110   61.3020  C.ar      1 <0>         0.1091
      10  C10         9.5800   36.7800   61.6540  C.ar      1 <0>        -0.1932
      11  C11         8.4580   36.8850   60.8550  C.ar      1 <0>        -0.0268
      12  O1         11.7090   35.8090   62.0840  O.3       1 <0>        -0.3216
      13  C12        12.1880   34.4930   62.3630  C.3       1 <0>         0.4117
      14  F1         13.3370   34.2430   61.6040  F         1 <0>        -0.1975
      15  F2         12.4970   34.3870   63.7240  F         1 <0>        -0.1976
      16  O2          6.3040   37.3010   59.3110  O.3       1 <0>        -0.5372
      17  C13         6.6020   35.7810   56.4600  C.2       1 <0>         0.4662
      18  O3          7.0450   35.1110   55.5580  O.2       1 <0>        -0.4933
      19  O4          5.2740   35.8860   56.6290  O.3       1 <0>        -0.3444
      20  C14         4.4480   35.4780   55.5370  C.3       1 <0>         0.0284
@<TRIPOS>BOND
     1     1     2 1
     2     2     3 1
     3     2     4 1
     4     4     5 1
     5     4    17 1
     6     5     6 1
     7     5    16 1
     8     6    11 ar
     9     6     7 ar
    10     7     8 ar
    11     8     9 ar
    12     9    10 ar
    13     9    12 1
    14    10    11 ar
    15    12    13 1
    16    13    14 1
    17    13    15 1
    18    17    18 2
    19    17    19 1
    20    19    20 1

@<TRIPOS>MOLECULE
ZINC59181092_replica-1.pdb
 20 21 0 0 0
SMALL
GASTEIGER

@<TRIPOS>ATOM
       1  C1         -0.9260   25.2140   51.5420  C.3       1 <0>        -0.1439
       2  C2         -0.6090   26.7070   51.6440  C.3       1 <0>        -0.0590
       3  C3         -1.7780   27.5180   51.0780  C.3       1 <0>        -0.1438
       4  C4         -0.3940   27.0780   53.0890  C.ar      1 <0>        -0.0279
       5  C5          0.2460   26.1970   53.9400  C.ar      1 <0>        -0.1716
       6  C6          0.4460   26.5330   55.2660  C.ar      1 <0>        -0.0695
       7  C7          0.0050   27.7510   55.7450  C.ar      1 <0>        -0.2032
       8  C8         -0.6390   28.6390   54.8920  C.ar      1 <0>         0.2176
       9  C9         -0.8320   28.3000   53.5600  C.ar      1 <0>        -0.1913
      10  N1         -1.0860   29.8720   55.3740  N.pl3     1 <0>        -0.7474
      11  C10        -0.2710   31.0740   55.1800  C.3       1 <0>         0.2228
      12  C11         0.0920   31.6560   56.5220  C.2       1 <0>        -0.2373
      13  C12         0.0350   31.0920   57.7560  C.2       1 <0>         0.0636
      14  N2          0.4180   31.8380   58.7720  N.2       1 <0>        -0.5182
      15  C13         0.8360   33.0670   58.5950  C.2       1 <0>         0.0750
      16  S1          0.7250   33.2750   56.9300  S.3       1 <0>         0.1221
      17  C14         1.3080   34.0530   59.6330  C.3       1 <0>         0.0206
      18  C15         2.6890   33.6360   60.1430  C.3       1 <0>        -0.1360
      19  C16         1.3940   35.4480   59.0090  C.3       1 <0>        -0.1540
      20  C17         0.3190   34.0770   60.8010  C.3       1 <0>        -0.1357
@<TRIPOS>BOND
     1     1     2 1
     2     2     3 1
     3     2     4 1
     4     4     9 ar
     5     4     5 ar
     6     5     6 ar
     7     6     7 ar
     8     7     8 ar
     9     8     9 ar
    10     8    10 1
    11    10    11 1
    12    11    12 1
    13    12    16 1
    14    12    13 2
    15    13    14 1
    16    14    15 2
    17    15    16 1
    18    15    17 1
    19    17    18 1
    20    17    19 1
    21    17    20 1

@<TRIPOS>MOLECULE
ZINC37112509_replica-1.pdb
 18 18 0 0 0
SMALL
GASTEIGER

@<TRIPOS>ATOM
       1  C1          7.9910   36.2720   55.2420  C.3       1 <0>        -0.1482
       2  C2          7.4380   37.2600   56.2710  C.3       1 <0>        -0.1395
       3  C3          8.4690   37.4730   57.3800  C.3       1 <0>         0.1673
       4  C4          8.5740   38.9660   57.7000  C.3       1 <0>        -0.1676
       5  N1          8.0530   36.7450   58.5810  N.pl3     1 <0>        -0.6662
       6  C5          6.6280   36.5470   58.8600  C.3       1 <0>         0.1400
       7  C6          6.1760   37.5370   59.9350  C.3       1 <0>        -0.1837
       8  C7          9.0150   36.2390   59.4630  C.ar      1 <0>         0.1298
       9  C8          9.4180   36.9890   60.5580  C.ar      1 <0>        -0.0822
      10  C9         10.3680   36.4870   61.4270  C.ar      1 <0>        -0.1269
      11  C10        10.9210   35.2390   61.2080  C.ar      1 <0>        -0.1379
      12  C11        10.5260   34.4850   60.1190  C.ar      1 <0>        -0.1490
      13  C12         9.5690   34.9780   59.2450  C.ar      1 <0>         0.2116
      14  N2          9.1630   34.2140   58.1440  N.pl3     1 <0>        -0.8707
      15  C13        11.9580   34.6990   62.1600  C.3       1 <0>         0.5072
      16  F1         11.4710   33.5390   62.7710  F         1 <0>        -0.1768
      17  F2         13.1270   34.3980   61.4530  F         1 <0>        -0.1776
      18  F3         12.2380   35.6590   63.1370  F         1 <0>        -0.1776
@<TRIPOS>BOND
     1     1     2 1
     2     2     3 1
     3     3     4 1
     4     3     5 1
     5     5     6 1
     6     5     8 1
     7     6     7 1
     8     8    13 ar
     9     8     9 ar
    10     9    10 ar
    11    10    11 ar
    12    11    12 ar
    13    11    15 1
    14    12    13 ar
    15    13    14 1
    16    15    16 1
    17    15    17 1
    18    15    18 1

@<TRIPOS>MOLECULE
ZINC42585550_replica-1.pdb
 20 20 0 0 0
SMALL
GASTEIGER

@<TRIPOS>ATOM
       1  C1          3.6720   35.5430   56.2130  C.3       1 <0>        -0.1824
       2  C2          4.6740   36.1870   57.1730  C.3       1 <0>         0.0116
       3  C3          4.4160   35.6820   58.5940  C.3       1 <0>        -0.1392
       4  C4          5.6630   35.9100   59.4490  C.3       1 <0>        -0.1052
       5  C5          5.5940   37.2970   60.0920  C.3       1 <0>        -0.1608
       6  C6          5.7310   34.8440   60.5460  C.3       1 <0>        -0.1511
       7  N1          6.0400   35.8290   56.7660  N.4       1 <0>        -0.3845
       8  C7          5.9930   34.6780   55.8530  C.3       1 <0>        -0.0574
       9  C8          6.6610   36.9700   56.0810  C.3       1 <0>        -0.0054
      10  C9          8.1420   37.0490   56.4630  C.3       1 <0>         0.0265
      11  O1          8.2700   37.6420   57.7570  O.3       1 <0>        -0.3310
      12  C10         8.9520   36.9360   58.6920  C.ar      1 <0>         0.0927
      13  C11         9.2630   37.5230   59.9140  C.ar      1 <0>        -0.2167
      14  C12         9.9560   36.8100   60.8650  C.ar      1 <0>        -0.0485
      15  C13        10.3470   35.4920   60.6030  C.ar      1 <0>        -0.1464
      16  C14        10.0310   34.9060   59.3730  C.ar      1 <0>        -0.0476
      17  C15         9.3330   35.6250   58.4290  C.ar      1 <0>        -0.1554
      18  C16        11.0880   34.7260   61.6180  C.2       1 <0>         0.5158
      19  O2         10.8390   33.5410   61.7940  O.co2     1 <0>        -0.6824
      20  O3         11.9540   35.2740   62.2860  O.co2     1 <0>        -0.6808
@<TRIPOS>BOND
     1     1     2 1
     2     2     3 1
     3     2     7 1
     4     3     4 1
     5     4     5 1
     6     4     6 1
     7     7     8 1
     8     7     9 1
     9     9    10 1
    10    10    11 1
    11    11    12 1
    12    12    17 ar
    13    12    13 ar
    14    13    14 ar
    15    14    15 ar
    16    15    16 ar
    17    15    18 1
    18    16    17 ar
    19    18    19 2
    20    18    20 1

@<TRIPOS>MOLECULE
ZINC37986412_replica-1.pdb
 20 22 0 0 0
SMALL
GASTEIGER

@<TRIPOS>ATOM
       1  C1         -2.2870   29.6900   53.9920  C.3       1 <0>        -0.1670
       2  C2         -0.8810   29.2700   53.5590  C.3       1 <0>        -0.0670
       3  C3         -0.0010   29.0810   54.7960  C.3       1 <0>        -0.0055
       4  N1          0.7330   30.3230   55.0690  N.4       1 <0>        -0.5096
       5  C4          0.4720   30.7530   56.4490  C.3       1 <0>        -0.0005
       6  C5          0.4480   32.2820   56.5120  C.3       1 <0>         0.0493
       7  C6          0.2780   32.7670   57.9720  C.3       1 <0>        -0.0969
       8  C7          1.1480   34.0090   57.9920  C.ar      1 <0>        -0.1715
       9  C8          1.2360   35.0620   58.8750  C.ar      1 <0>        -0.0670
      10  C9          2.1330   36.0890   58.6400  C.ar      1 <0>        -0.1299
      11  C10         2.9390   36.0520   57.5160  C.ar      1 <0>        -0.0797
      12  C11         2.8550   34.9970   56.6330  C.ar      1 <0>        -0.1243
      13  C12         1.9570   33.9570   56.8640  C.ar      1 <0>         0.0889
      14  O1          1.7240   32.8270   56.1380  O.3       1 <0>        -0.3123
      15  C13        -0.9580   27.9740   52.7940  C.ar      1 <0>        -0.1026
      16  C14        -1.6940   27.9020   51.6280  C.ar      1 <0>        -0.1142
      17  C15        -1.7650   26.7130   50.9260  C.ar      1 <0>        -0.1134
      18  C16        -1.0960   25.5960   51.3900  C.ar      1 <0>        -0.1046
      19  C17        -0.3580   25.6680   52.5570  C.ar      1 <0>        -0.1122
      20  C18        -0.2850   26.8580   53.2560  C.ar      1 <0>        -0.1062
@<TRIPOS>BOND
     1     1     2 1
     2     2     3 1
     3     2    15 1
     4     3     4 1
     5     4     5 1
     6     5     6 1
     7     6    14 1
     8     6     7 1
     9     7     8 1
    10     8    13 ar
    11     8     9 ar
    12     9    10 ar
    13    10    11 ar
    14    11    12 ar
    15    12    13 ar
    16    13    14 1
    17    15    20 ar
    18    15    16 ar
    19    16    17 ar
    20    17    18 ar
    21    18    19 ar
    22    19    20 ar

@<TRIPOS>MOLECULE
ZINC58632647_replica-1.pdb
 19 19 0 0 0
SMALL
GASTEIGER

@<TRIPOS>ATOM
       1  C1          0.6640   31.4440   55.5490  C.3       1 <0>        -0.1287
       2  C2         -0.3800   31.5820   56.6580  C.3       1 <0>        -0.1128
       3  C3          0.2710   32.1450   57.8940  C.2       1 <0>         0.5152
       4  O1          0.5380   31.4160   58.8260  O.2       1 <0>        -0.5033
       5  N1          0.5560   33.4610   57.9650  N.am      1 <0>        -0.7211
       6  C4          1.1890   34.0100   59.1660  C.3       1 <0>         0.1700
       7  C5          0.2540   33.8270   60.3650  C.3       1 <0>        -0.1649
       8  C6          2.5050   33.2760   59.4310  C.3       1 <0>        -0.1561
       9  C7          1.4670   35.5000   58.9610  C.3       1 <0>        -0.1639
      10  S1         -1.0800   29.9510   57.0340  S.3       1 <0>        -0.0543
      11  C8         -0.9500   29.0690   55.5130  C.ar      1 <0>        -0.0874
      12  C9         -1.6190   29.5270   54.3850  C.ar      1 <0>        -0.1275
      13  C10        -1.5150   28.8340   53.1940  C.ar      1 <0>        -0.0968
      14  C11        -0.7470   27.6870   53.1260  C.ar      1 <0>        -0.0794
      15  C12        -0.0800   27.2290   54.2470  C.ar      1 <0>        -0.0941
      16  C13        -0.1730   27.9200   55.4390  C.ar      1 <0>        -0.0955
      17  C14        -0.6350   26.9350   51.8250  C.3       1 <0>        -0.0565
      18  C15        -0.5690   25.4330   52.1080  C.3       1 <0>        -0.1450
      19  C16        -1.8580   27.2360   50.9550  C.3       1 <0>        -0.1454
@<TRIPOS>BOND
     1     1     2 1
     2     2     3 1
     3     2    10 1
     4     3     4 2
     5     3     5 am
     6     5     6 1
     7     6     7 1
     8     6     8 1
     9     6     9 1
    10    10    11 1
    11    11    16 ar
    12    11    12 ar
    13    12    13 ar
    14    13    14 ar
    15    14    15 ar
    16    14    17 1
    17    15    16 ar
    18    17    18 1
    19    17    19 1

@<TRIPOS>MOLECULE
ZINC06626722_replica-1.pdb
 27 30 0 0 0
SMALL
GASTEIGER

@<TRIPOS>ATOM
       1  C1         -1.8040   27.0510   50.7080  C.3       1 <0>        -0.1213
       2  C2         -1.4490   27.6940   52.0230  C.ar      1 <0>        -0.0217
       3  C3         -1.8390   28.9730   52.3080  C.ar      1 <0>        -0.1664
       4  C4         -1.4990   29.5480   53.5300  C.ar      1 <0>         0.1740
       5  N1         -0.8080   28.8920   54.4320  N.ar      1 <0>        -0.4744
       6  C5         -0.3970   27.6400   54.2160  C.ar      1 <0>         0.1273
       7  C6         -0.7130   26.9930   52.9970  C.ar      1 <0>        -0.0846
       8  C7         -0.2840   25.6740   52.7760  C.ar      1 <0>        -0.1011
       9  C8          0.4270   25.0220   53.7370  C.ar      1 <0>        -0.0933
      10  C9          0.7390   25.6430   54.9430  C.ar      1 <0>        -0.1395
      11  C10         0.3470   26.9400   55.1910  C.ar      1 <0>         0.1417
      12  N2          0.6670   27.5510   56.4040  N.pl3     1 <0>        -0.5646
      13  C11        -0.1040   27.3380   57.4930  C.2       1 <0>         0.3188
      14  C12         0.2140   27.9440   58.6960  C.2       1 <0>        -0.3234
      15  C13         0.7120   27.3000   59.9200  C.2       1 <0>         0.1648
      16  N3          0.8820   28.2280   60.8110  N.2       1 <0>        -0.2796
      17  N4          0.5420   29.4830   60.3060  N.pl3     1 <0>        -0.3267
      18  C14         0.1360   29.3720   59.0250  C.2       1 <0>         0.3159
      19  S1         -0.3730   30.6400   57.9930  S.2       1 <0>        -0.5740
      20  C15         0.6160   30.6840   61.0230  C.ar      1 <0>         0.1382
      21  C16        -0.3160   30.9630   62.0130  C.ar      1 <0>        -0.0855
      22  C17        -0.2380   32.1490   62.7180  C.ar      1 <0>        -0.1064
      23  C18         0.7660   33.0560   62.4380  C.ar      1 <0>        -0.1089
      24  C19         1.6950   32.7820   61.4520  C.ar      1 <0>        -0.1119
      25  C20         1.6270   31.5960   60.7470  C.ar      1 <0>        -0.1004
      26  C21         0.9760   25.8270   60.1070  C.3       1 <0>        -0.0828
      27  C22        -1.9380   30.9580   53.8240  C.3       1 <0>        -0.1114
@<TRIPOS>BOND
     1     1     2 1
     2     2     7 ar
     3     2     3 ar
     4     3     4 ar
     5     4     5 ar
     6     4    27 1
     7     5     6 ar
     8     6    11 ar
     9     6     7 ar
    10     7     8 ar
    11     8     9 ar
    12     9    10 ar
    13    10    11 ar
    14    11    12 1
    15    12    13 1
    16    13    14 2
    17    14    18 1
    18    14    15 1
    19    15    16 2
    20    15    26 1
    21    16    17 1
    22    17    18 1
    23    17    20 1
    24    18    19 2
    25    20    25 ar
    26    20    21 ar
    27    21    22 ar
    28    22    23 ar
    29    23    24 ar
    30    24    25 ar

@<TRIPOS>MOLECULE
ZINC20095397_replica-1.pdb
 20 22 0 0 0
SMALL
GASTEIGER

@<TRIPOS>ATOM
       1  C1         -1.6730   28.5210   62.8510  C.3       1 <0>        -0.1532
       2  C2         -1.5610   29.1400   61.4570  C.3       1 <0>        -0.1800
       3  C3         -0.1560   29.3930   60.9060  C.3       1 <0>        -0.1372
       4  C4         -1.0090   28.2590   60.3340  C.3       1 <0>        -0.0449
       5  C5         -1.5840   28.4490   58.9540  C.2       1 <0>         0.0571
       6  C6         -2.4000   27.5900   58.3170  C.2       1 <0>        -0.2229
       7  C7         -2.6930   28.1610   57.0580  C.2       1 <0>        -0.1323
       8  C8         -2.0390   29.3360   57.0000  C.2       1 <0>        -0.1187
       9  O1         -1.3640   29.5010   58.1490  O.3       1 <0>        -0.1668
      10  C9         -2.0550   30.2970   55.8410  C.3       1 <0>         0.0985
      11  N1         -2.3780   29.5700   54.6050  N.4       1 <0>        -0.5437
      12  C10        -1.2530   29.6080   53.6620  C.3       1 <0>         0.0896
      13  C11         0.0060   30.0880   54.3880  C.3       1 <0>        -0.1800
      14  C12        -1.0160   28.2270   53.1070  C.ar      1 <0>        -0.1582
      15  C13        -0.2670   27.3130   53.8250  C.ar      1 <0>        -0.0904
      16  C14        -0.0450   26.0490   53.3150  C.ar      1 <0>        -0.1428
      17  C15        -0.5710   25.6970   52.0820  C.ar      1 <0>         0.1326
      18  C16        -1.3200   26.6130   51.3650  C.ar      1 <0>        -0.1431
      19  C17        -1.5420   27.8780   51.8770  C.ar      1 <0>        -0.0563
      20  F1         -0.3540   24.4600   51.5820  F         1 <0>        -0.1228
@<TRIPOS>BOND
     1     1     2 1
     2     2     4 1
     3     2     3 1
     4     3     4 1
     5     4     5 1
     6     5     9 1
     7     5     6 2
     8     6     7 1
     9     7     8 2
    10     8     9 1
    11     8    10 1
    12    10    11 1
    13    11    12 1
    14    12    13 1
    15    12    14 1
    16    14    19 ar
    17    14    15 ar
    18    15    16 ar
    19    16    17 ar
    20    17    18 ar
    21    17    20 1
    22    18    19 ar

@<TRIPOS>MOLECULE
ZINC49214489_replica-1.pdb
 20 21 0 0 0
SMALL
GASTEIGER

@<TRIPOS>ATOM
       1  C1          5.6720   35.5270   60.5020  C.3       1 <0>        -0.1462
       2  C2          5.6060   36.7130   59.5370  C.3       1 <0>        -0.1297
       3  C3          7.0120   37.0330   59.0270  C.3       1 <0>         0.2340
       4  C4          7.1000   36.7050   57.5580  C.2       1 <0>        -0.1590
       5  C5          8.1730   36.7730   56.7320  C.2       1 <0>        -0.1412
       6  C6          8.0200   36.4180   55.4040  C.2       1 <0>        -0.1560
       7  C7          6.8020   36.0140   54.9680  C.2       1 <0>        -0.1647
       8  S1          5.8230   36.1200   56.4580  S.3       1 <0>         0.0354
       9  N1          7.9930   36.2320   59.7640  N.am      1 <0>        -0.7230
      10  C8          9.1130   36.8120   60.2420  C.2       1 <0>         0.5638
      11  O1          9.3080   37.9970   60.0610  O.2       1 <0>        -0.5260
      12  C9         10.1030   36.0040   60.9860  C.ar      1 <0>        -0.1432
      13  C10        10.2090   34.6330   60.7480  C.ar      1 <0>        -0.0826
      14  C11        11.1350   33.8850   61.4460  C.ar      1 <0>        -0.1253
      15  C12        11.9580   34.4920   62.3790  C.ar      1 <0>        -0.0469
      16  C13        11.8560   35.8500   62.6200  C.ar      1 <0>        -0.1229
      17  C14        10.9390   36.6100   61.9240  C.ar      1 <0>        -0.0540
      18  C15        12.9670   33.6680   63.1370  C.3       1 <0>        -0.0623
      19  C16        12.5520   32.1960   63.1040  C.3       1 <0>        -0.1462
      20  C17        14.3440   33.8260   62.4900  C.3       1 <0>        -0.1461
@<TRIPOS>BOND
     1     1     2 1
     2     2     3 1
     3     3     4 1
     4     3     9 1
     5     4     8 1
     6     4     5 2
     7     5     6 1
     8     6     7 2
     9     7     8 1
    10     9    10 am
    11    10    11 2
    12    10    12 1
    13    12    17 ar
    14    12    13 ar
    15    13    14 ar
    16    14    15 ar
    17    15    16 ar
    18    15    18 1
    19    16    17 ar
    20    18    19 1
    21    18    20 1

@<TRIPOS>MOLECULE
ZINC40404489_replica-1.pdb
 26 27 0 0 0
SMALL
GASTEIGER

@<TRIPOS>ATOM
       1  C1          5.5650   33.9580   60.3840  C.3       1 <0>        -0.1541
       2  C2          6.1890   35.3160   60.7080  C.3       1 <0>        -0.1216
       3  C3          7.7070   35.2340   60.5310  C.3       1 <0>        -0.1095
       4  C4          8.2840   36.6470   60.4240  C.3       1 <0>         0.2096
       5  C5          9.7960   36.5990   60.6550  C.3       1 <0>        -0.1388
       6  C6         10.3450   35.2610   60.1570  C.3       1 <0>        -0.1240
       7  C7         11.2690   34.6610   61.2190  C.3       1 <0>        -0.1553
       8  C8          8.0040   37.2020   59.0510  C.2       1 <0>         0.0262
       9  C9          8.4580   38.3730   58.5680  C.2       1 <0>        -0.2127
      10  C10         7.9570   38.4940   57.2510  C.2       1 <0>        -0.1311
      11  C11         7.2270   37.3900   57.0090  C.2       1 <0>        -0.1093
      12  O1          7.2630   36.6080   58.1010  O.3       1 <0>        -0.1561
      13  C12         6.4960   37.0800   55.7280  C.3       1 <0>         0.0885
      14  N1          5.5470   35.9840   55.9590  N.4       1 <0>        -0.3882
      15  C13         4.1980   36.4110   55.5610  C.3       1 <0>        -0.0137
      16  C14         3.1680   35.8030   56.5140  C.3       1 <0>        -0.1493
      17  C15         3.6790   35.9070   57.9520  C.3       1 <0>        -0.1542
      18  C16         5.9450   34.8150   55.1630  C.3       1 <0>         0.0413
      19  C17         6.4270   33.7230   56.0810  C.ar      1 <0>        -0.1942
      20  C18         7.7520   33.6860   56.4750  C.ar      1 <0>        -0.0650
      21  C19         8.1950   32.6830   57.3170  C.ar      1 <0>        -0.1192
      22  C20         7.3150   31.7170   57.7680  C.ar      1 <0>        -0.0558
      23  C21         5.9900   31.7530   57.3760  C.ar      1 <0>        -0.1434
      24  C22         5.5440   32.7590   56.5360  C.ar      1 <0>         0.1140
      25  F1          4.2480   32.7980   56.1560  F         1 <0>        -0.1339
      26  O2          7.6780   37.4860   61.4090  O.3       1 <0>        -0.5268
@<TRIPOS>BOND
     1     1     2 1
     2     2     3 1
     3     3     4 1
     4     4     5 1
     5     4     8 1
     6     4    26 1
     7     5     6 1
     8     6     7 1
     9     8    12 1
    10     8     9 2
    11     9    10 1
    12    10    11 2
    13    11    12 1
    14    11    13 1
    15    13    14 1
    16    14    15 1
    17    14    18 1
    18    15    16 1
    19    16    17 1
    20    18    19 1
    21    19    24 ar
    22    19    20 ar
    23    20    21 ar
    24    21    22 ar
    25    22    23 ar
    26    23    24 ar
    27    24    25 1

@<TRIPOS>MOLECULE
ZINC36931984_replica-1.pdb
 19 19 0 0 0
SMALL
GASTEIGER

@<TRIPOS>ATOM
       1  C1         15.8190   33.9690   64.8640  C.3       1 <0>        -0.1556
       2  C2         15.4340   33.8110   63.3910  C.3       1 <0>        -0.1198
       3  C3         13.9440   33.4750   63.2870  C.3       1 <0>        -0.0928
       4  C4         13.7560   31.9590   63.3780  C.3       1 <0>        -0.1529
       5  C5         13.4010   33.9770   61.9480  C.3       1 <0>        -0.1233
       6  C6         12.3210   35.0300   62.1980  C.3       1 <0>         0.1391
       7  C7         12.2060   35.2990   63.7000  C.3       1 <0>        -0.1405
       8  C8         11.9430   36.7880   63.9330  C.3       1 <0>        -0.1631
       9  N1         11.0360   34.5420   61.6900  N.pl3     1 <0>        -0.7168
      10  C9         10.3490   35.2670   60.7130  C.ar      1 <0>         0.2232
      11  C10         9.9120   36.5640   60.9720  C.ar      1 <0>        -0.1800
      12  C11         9.2350   37.2410   59.9710  C.ar      1 <0>        -0.0338
      13  C12         9.0180   36.6140   58.7580  C.ar      1 <0>        -0.5012
      14  N2          9.4450   35.3850   58.5440  N.ar      1 <0>        -0.3535
      15  C13        10.0980   34.7070   59.4670  C.ar      1 <0>         0.0112
      16  S1          8.1570   37.4700   57.4810  S.o2      1 <0>         2.5152
      17  O1          6.8080   37.5200   57.9240  O.2       1 <0>        -0.9221
      18  O2          8.8980   38.6650   57.2800  O.2       1 <0>        -0.9382
      19  C14         8.2960   36.3960   56.0250  C.3       1 <0>        -0.6492
@<TRIPOS>BOND
     1     1     2 1
     2     2     3 1
     3     3     4 1
     4     3     5 1
     5     5     6 1
     6     6     7 1
     7     6     9 1
     8     7     8 1
     9     9    10 1
    10    10    15 ar
    11    10    11 ar
    12    11    12 ar
    13    12    13 ar
    14    13    14 ar
    15    13    16 1
    16    14    15 ar
    17    16    17 2
    18    16    18 2
    19    16    19 1

@<TRIPOS>MOLECULE
ZINC62769966_replica-1.pdb
 20 21 0 0 0
SMALL
GASTEIGER

@<TRIPOS>ATOM
       1  C1          7.0850   38.7310   59.3620  C.3       1 <0>        -0.1709
       2  C2          8.4980   38.3120   58.9500  C.3       1 <0>         0.1515
       3  C3          8.7780   38.7960   57.5260  C.3       1 <0>        -0.0483
       4  C4          8.1960   37.8180   56.5390  C.2       1 <0>        -0.0122
       5  C5          7.0680   37.9940   55.8270  C.2       1 <0>        -0.2015
       6  C6          6.8990   36.8360   55.0340  C.2       1 <0>        -0.2124
       7  C7          7.9330   36.0200   55.3090  C.2       1 <0>        -0.0405
       8  O1          8.7190   36.6230   56.2170  O.3       1 <0>        -0.1763
       9  N1          8.6080   36.8520   59.0000  N.pl3     1 <0>        -0.7379
      10  C8          9.5230   36.2510   59.8690  C.ar      1 <0>         0.2283
      11  C9          9.9020   36.8990   61.0370  C.ar      1 <0>        -0.1962
      12  C10        10.8050   36.3010   61.8940  C.ar      1 <0>        -0.0568
      13  C11        11.3320   35.0590   61.5890  C.ar      1 <0>        -0.1456
      14  C12        10.9570   34.4120   60.4270  C.ar      1 <0>        -0.0576
      15  C13        10.0490   35.0010   59.5690  C.ar      1 <0>        -0.1945
      16  C14        12.3180   34.4100   62.5270  C.3       1 <0>         0.0864
      17  C15        13.6750   34.2840   61.8320  C.3       1 <0>        -0.1453
      18  C16        12.4670   35.2690   63.7840  C.3       1 <0>        -0.1393
      19  C17        11.8320   33.0730   62.9010  C.1       1 <0>         0.2158
      20  N2         11.4560   32.0400   63.1900  N.1       1 <0>        -0.4324
@<TRIPOS>BOND
     1     1     2 1
     2     2     3 1
     3     2     9 1
     4     3     4 1
     5     4     8 1
     6     4     5 2
     7     5     6 1
     8     6     7 2
     9     7     8 1
    10     9    10 1
    11    10    15 ar
    12    10    11 ar
    13    11    12 ar
    14    12    13 ar
    15    13    14 ar
    16    13    16 1
    17    14    15 ar
    18    16    17 1
    19    16    18 1
    20    16    19 1
    21    19    20 3

@<TRIPOS>MOLECULE
ZINC38898010_replica-1.pdb
 25 26 0 0 0
SMALL
GASTEIGER

@<TRIPOS>ATOM
       1  C1          8.0230   37.8050   57.6050  C.3       1 <0>        -0.1529
       2  C2          8.0810   36.6800   56.5700  C.3       1 <0>        -0.1321
       3  C3          7.1630   35.5360   57.0080  C.3       1 <0>         0.1409
       4  C4          7.6990   34.2130   56.4570  C.3       1 <0>        -0.1653
       5  N1          5.8120   35.7700   56.4920  N.am      1 <0>        -0.7269
       6  C5          4.7640   35.7980   57.3390  C.2       1 <0>         0.5191
       7  O1          4.9380   35.6310   58.5270  O.2       1 <0>        -0.5327
       8  C6          3.3740   36.0400   56.8080  C.3       1 <0>        -0.0750
       9  C7          2.6350   34.7290   56.7210  C.2       1 <0>        -0.2447
      10  C8          1.6530   34.4260   57.6190  C.2       1 <0>         0.2032
      11  N2          1.0050   33.2670   57.5350  N.2       1 <0>        -0.5398
      12  C9          1.2900   32.3890   56.5920  C.2       1 <0>         0.3712
      13  N3          2.2600   32.6370   55.6690  N.am      1 <0>        -0.6141
      14  C10         2.9420   33.8010   55.7100  C.2       1 <0>         0.5418
      15  O2          3.8100   34.0430   54.8870  O.2       1 <0>        -0.5296
      16  S1          0.4010   30.8680   56.5280  S.3       1 <0>        -0.0023
      17  C11        -0.5240   30.9670   54.9710  C.3       1 <0>        -0.0511
      18  C12        -0.5080   29.6220   54.2910  C.ar      1 <0>        -0.1008
      19  C13         0.4110   28.6640   54.6780  C.ar      1 <0>        -0.0660
      20  C14         0.4260   27.4300   54.0550  C.ar      1 <0>        -0.1538
      21  C15        -0.4790   27.1530   53.0450  C.ar      1 <0>         0.1129
      22  C16        -1.3990   28.1140   52.6590  C.ar      1 <0>        -0.1535
      23  C17        -1.4160   29.3440   53.2860  C.ar      1 <0>        -0.0658
      24  F1         -0.4650   25.9470   52.4360  F         1 <0>        -0.1351
      25  C18         1.3020   35.4060   58.7090  C.3       1 <0>        -0.1104
@<TRIPOS>BOND
     1     1     2 1
     2     2     3 1
     3     3     4 1
     4     3     5 1
     5     5     6 am
     6     6     7 2
     7     6     8 1
     8     8     9 1
     9     9    14 1
    10     9    10 2
    11    10    11 1
    12    10    25 1
    13    11    12 2
    14    12    13 1
    15    12    16 1
    16    13    14 am
    17    14    15 2
    18    16    17 1
    19    17    18 1
    20    18    23 ar
    21    18    19 ar
    22    19    20 ar
    23    20    21 ar
    24    21    22 ar
    25    21    24 1
    26    22    23 ar

@<TRIPOS>MOLECULE
ZINC37185567_replica-1.pdb
 18 19 0 0 0
SMALL
GASTEIGER

@<TRIPOS>ATOM
       1  C1          8.3170   36.2840   55.5500  C.3       1 <0>        -0.1459
       2  C2          8.2550   37.3710   56.6250  C.3       1 <0>        -0.0966
       3  C3          7.4510   38.5630   56.1000  C.3       1 <0>        -0.1478
       4  C4          7.5750   36.8100   57.8770  C.3       1 <0>         0.2424
       5  C5          8.6250   36.3990   58.8760  C.2       1 <0>        -0.1569
       6  C6          9.4290   35.3070   58.8700  C.2       1 <0>        -0.1532
       7  C7         10.3310   35.1330   59.9010  C.2       1 <0>        -0.1556
       8  C8         10.3860   36.0580   60.8900  C.2       1 <0>        -0.1769
       9  S1          9.1420   37.2280   60.3710  S.3       1 <0>         0.0495
      10  N1          6.7660   35.6440   57.5120  N.pl3     1 <0>        -0.7339
      11  C9          5.3710   35.7510   57.4540  C.ar      1 <0>         0.1338
      12  C10         4.7290   35.9450   56.2320  C.ar      1 <0>        -0.1116
      13  C11         3.3500   36.0440   56.2220  C.ar      1 <0>        -0.1402
      14  C12         2.6540   35.9460   57.4210  C.ar      1 <0>         0.2662
      15  N2          3.2960   35.7610   58.5610  N.ar      1 <0>        -0.5015
      16  C13         4.6110   35.6570   58.6090  C.ar      1 <0>         0.0699
      17  O1          1.3000   36.0410   57.4210  O.3       1 <0>        -0.3127
      18  C14         0.5740   34.9570   58.0040  C.3       1 <0>         0.0426
@<TRIPOS>BOND
     1     1     2 1
     2     2     3 1
     3     2     4 1
     4     4     5 1
     5     4    10 1
     6     5     9 1
     7     5     6 2
     8     6     7 1
     9     7     8 2
    10     8     9 1
    11    10    11 1
    12    11    16 ar
    13    11    12 ar
    14    12    13 ar
    15    13    14 ar
    16    14    15 ar
    17    14    17 1
    18    15    16 ar
    19    17    18 1

@<TRIPOS>MOLECULE
ZINC67450454_replica-1.pdb
 23 25 0 0 0
SMALL
GASTEIGER

@<TRIPOS>ATOM
       1  C1         11.1980   31.3670   63.4030  C.ar      1 <0>        -0.0564
       2  C2         12.3410   30.7350   63.8590  C.ar      1 <0>        -0.1475
       3  C3         13.5750   31.3410   63.7160  C.ar      1 <0>        -0.0728
       4  C4         13.6700   32.5880   63.1150  C.ar      1 <0>        -0.1749
       5  C5         12.5180   33.2260   62.6550  C.ar      1 <0>         0.2538
       6  C6         11.2840   32.6100   62.8030  C.ar      1 <0>        -0.1778
       7  N1         12.6060   34.4840   62.0470  N.pl3     1 <0>        -0.7412
       8  C7         11.9230   35.6350   62.6420  C.3       1 <0>         0.2145
       9  C8         10.8010   36.0760   61.7390  C.2       1 <0>         0.2766
      10  N2         10.6450   35.7270   60.4930  N.2       1 <0>        -0.5172
      11  C9          9.5380   36.3030   59.9890  C.2       1 <0>         0.3303
      12  N3          8.9800   37.0300   60.9260  N.2       1 <0>        -0.3204
      13  O1          9.7920   36.8870   62.0820  O.3       1 <0>        -0.0925
      14  C10         9.0350   36.1420   58.6040  C.2       1 <0>        -0.1527
      15  C11         8.9050   34.8900   57.8480  C.2       1 <0>        -0.1819
      16  C12         8.4080   35.2320   56.6470  C.2       1 <0>        -0.0266
      17  O2          8.2290   36.5610   56.6120  O.3       1 <0>        -0.1703
      18  C13         8.5920   37.1220   57.7730  C.2       1 <0>         0.0550
      19  S1         15.2410   33.3630   62.9330  S.3       1 <0>        -0.0431
      20  C14        15.6070   34.0100   64.5880  C.3       1 <0>         0.4596
      21  F1         14.5710   34.8560   64.9980  F         1 <0>        -0.1615
      22  F2         15.7250   32.9460   65.4890  F         1 <0>        -0.1440
      23  F3         16.8070   34.7270   64.5530  F         1 <0>        -0.1615
@<TRIPOS>BOND
     1     1     6 ar
     2     1     2 ar
     3     2     3 ar
     4     3     4 ar
     5     4     5 ar
     6     4    19 1
     7     5     6 ar
     8     5     7 1
     9     7     8 1
    10     8     9 1
    11     9    13 1
    12     9    10 2
    13    10    11 1
    14    11    12 2
    15    11    14 1
    16    12    13 1
    17    14    18 2
    18    14    15 1
    19    15    16 2
    20    16    17 1
    21    17    18 1
    22    19    20 1
    23    20    21 1
    24    20    22 1
    25    20    23 1

@<TRIPOS>MOLECULE
ZINC37360268_replica-1.pdb
 20 21 0 0 0
SMALL
GASTEIGER

@<TRIPOS>ATOM
       1  C1          9.3690   34.8350   59.5670  C.ar      1 <0>        -0.0712
       2  C2          9.9820   33.8860   60.3610  C.ar      1 <0>        -0.0732
       3  C3         10.7150   34.2800   61.4720  C.ar      1 <0>        -0.0982
       4  C4         10.8280   35.6310   61.7830  C.ar      1 <0>        -0.1117
       5  C5         10.2130   36.5750   60.9850  C.ar      1 <0>        -0.0932
       6  C6          9.4840   36.1780   59.8790  C.ar      1 <0>        -0.0875
       7  C7          8.8130   37.2110   59.0110  C.3       1 <0>        -0.0023
       8  C8          7.6390   37.8020   59.7500  C.2       1 <0>         0.4983
       9  O1          7.2020   38.8930   59.4260  O.co2     1 <0>        -0.6310
      10  O2          7.1260   37.1890   60.6700  O.co2     1 <0>        -0.6617
      11  N1          8.3410   36.5780   57.7720  N.4       1 <0>        -0.3701
      12  C9          6.8710   36.3740   57.8280  C.3       1 <0>         0.0028
      13  C10         6.4720   36.2570   56.3360  C.3       1 <0>        -0.1432
      14  C11         7.4000   37.2860   55.6490  C.3       1 <0>        -0.1408
      15  C12         8.5800   37.4750   56.6190  C.3       1 <0>        -0.0123
      16  S1         11.5000   33.0720   62.4880  S.3       1 <0>        -0.0136
      17  C13        13.2200   33.6360   62.5930  C.3       1 <0>         0.4507
      18  F1         14.0570   32.5400   62.8290  F         1 <0>        -0.1642
      19  F2         13.5830   34.2510   61.3890  F         1 <0>        -0.1421
      20  F3         13.3470   34.5540   63.6410  F         1 <0>        -0.1605
@<TRIPOS>BOND
     1     1     6 ar
     2     1     2 ar
     3     2     3 ar
     4     3     4 ar
     5     3    16 1
     6     4     5 ar
     7     5     6 ar
     8     6     7 1
     9     7     8 1
    10     7    11 1
    11     8     9 2
    12     8    10 1
    13    11    15 1
    14    11    12 1
    15    12    13 1
    16    13    14 1
    17    14    15 1
    18    16    17 1
    19    17    18 1
    20    17    19 1
    21    17    20 1

@<TRIPOS>MOLECULE
ZINC67333435_replica-1.pdb
 25 28 0 0 0
SMALL
GASTEIGER

@<TRIPOS>ATOM
       1  C1          0.7630   31.6490   59.1200  C.3       1 <0>        -0.1405
       2  C2          1.5790   32.3960   58.0980  C.2       1 <0>         0.0120
       3  C3          2.5820   33.2870   58.5120  C.ar      1 <0>        -0.2216
       4  C4          2.9900   33.6330   59.8250  C.ar      1 <0>         0.2619
       5  N1          3.9620   34.5020   59.9900  N.ar      1 <0>        -0.5298
       6  C5          4.5820   35.0740   58.9710  C.ar      1 <0>         0.3621
       7  N2          4.2530   34.7970   57.7240  N.ar      1 <0>        -0.4895
       8  C6          3.2910   33.9370   57.4680  C.ar      1 <0>         0.1416
       9  S1          2.5410   33.2870   55.9990  S.3       1 <0>         0.1360
      10  C7          1.3520   32.2040   56.7710  C.2       1 <0>        -0.2220
      11  C8          0.3660   31.3210   56.1300  C.2       1 <0>         0.6152
      12  O1         -0.8100   31.6320   56.1150  O.2       1 <0>        -0.5096
      13  N3          0.7660   30.1680   55.5570  N.am      1 <0>        -0.6951
      14  C9         -0.2170   29.2890   54.9180  C.3       1 <0>         0.0975
      15  C10        -0.8170   28.1660   55.7660  C.3       1 <0>        -0.1775
      16  C11         0.1950   27.8370   54.6660  C.3       1 <0>        -0.1239
      17  C12        -0.3270   27.1720   53.4180  C.ar      1 <0>        -0.0242
      18  C13        -1.0200   27.9130   52.4790  C.ar      1 <0>        -0.1304
      19  C14        -1.4990   27.3040   51.3340  C.ar      1 <0>        -0.0843
      20  C15        -1.2850   25.9540   51.1270  C.ar      1 <0>        -0.1561
      21  C16        -0.5910   25.2110   52.0670  C.ar      1 <0>         0.1028
      22  C17        -0.1070   25.8240   53.2110  C.ar      1 <0>        -0.1462
      23  F1         -0.3820   23.8920   51.8670  F         1 <0>        -0.1381
      24  C18         5.6880   36.0610   59.2410  C.3       1 <0>        -0.0876
      25  C19         2.3140   33.0110   61.0200  C.3       1 <0>        -0.1227
@<TRIPOS>BOND
     1     1     2 1
     2     2    10 2
     3     2     3 1
     4     3     8 ar
     5     3     4 ar
     6     4     5 ar
     7     4    25 1
     8     5     6 ar
     9     6     7 ar
    10     6    24 1
    11     7     8 ar
    12     8     9 1
    13     9    10 1
    14    10    11 1
    15    11    12 2
    16    11    13 am
    17    13    14 1
    18    14    16 1
    19    14    15 1
    20    15    16 1
    21    16    17 1
    22    17    22 ar
    23    17    18 ar
    24    18    19 ar
    25    19    20 ar
    26    20    21 ar
    27    21    22 ar
    28    21    23 1

@<TRIPOS>MOLECULE
ZINC52253906_replica-1.pdb
 19 19 0 0 0
SMALL
GASTEIGER

@<TRIPOS>ATOM
       1  C1         -2.7290   30.4820   52.9220  C.3       1 <0>        -0.1437
       2  C2         -1.7950   29.7000   53.8490  C.3       1 <0>        -0.0447
       3  C3         -0.5750   30.5580   54.1870  C.3       1 <0>        -0.1504
       4  C4         -0.8420   31.3410   55.4730  C.3       1 <0>         0.1206
       5  C5          0.0250   30.7790   56.6020  C.3       1 <0>        -0.1138
       6  C6         -0.8590   30.0190   57.5930  C.3       1 <0>        -0.0830
       7  C7         -0.9660   28.5550   57.1610  C.3       1 <0>        -0.1566
       8  C8         -0.2410   30.0950   58.9910  C.3       1 <0>        -0.1541
       9  C9          0.7170   31.9120   57.3140  C.2       1 <0>         0.4709
      10  O1          1.8970   31.8370   57.5670  O.2       1 <0>        -0.4998
      11  O2          0.0250   33.0060   57.6680  O.3       1 <0>        -0.3463
      12  C10         0.4880   33.7260   58.8130  C.3       1 <0>         0.0290
      13  O3         -2.2210   31.2190   55.8260  O.3       1 <0>        -0.5476
      14  C11        -1.3470   28.4360   53.1610  C.ar      1 <0>        -0.0756
      15  C12        -1.7720   28.1620   51.8740  C.ar      1 <0>        -0.1151
      16  C13        -1.3610   27.0030   51.2420  C.ar      1 <0>        -0.1192
      17  C14        -0.5250   26.1180   51.8980  C.ar      1 <0>        -0.1259
      18  C15        -0.0990   26.3930   53.1840  C.ar      1 <0>        -0.1190
      19  C16        -0.5070   27.5540   53.8140  C.ar      1 <0>        -0.1183
@<TRIPOS>BOND
     1     1     2 1
     2     2     3 1
     3     2    14 1
     4     3     4 1
     5     4     5 1
     6     4    13 1
     7     5     6 1
     8     5     9 1
     9     6     7 1
    10     6     8 1
    11     9    10 2
    12     9    11 1
    13    11    12 1
    14    14    19 ar
    15    14    15 ar
    16    15    16 ar
    17    16    17 ar
    18    17    18 ar
    19    18    19 ar

@<TRIPOS>MOLECULE
ZINC20524245_replica-1.pdb
 19 19 0 0 0
SMALL
GASTEIGER

@<TRIPOS>ATOM
       1  C1          6.4500   37.3780   59.9350  C.3       1 <0>        -0.1717
       2  C2          7.3040   36.6670   58.8850  C.3       1 <0>         0.1528
       3  C3          6.7870   37.0120   57.4870  C.3       1 <0>        -0.1132
       4  C4          7.0710   35.8470   56.5360  C.3       1 <0>         0.1147
       5  C5          5.7970   35.5000   55.7630  C.3       1 <0>        -0.1831
       6  C6          8.1720   36.2470   55.5530  C.3       1 <0>        -0.1819
       7  O1          7.4950   34.7090   57.2900  O.3       1 <0>        -0.3661
       8  C7          7.7040   33.5350   56.5020  C.3       1 <0>         0.0242
       9  N1          8.6980   37.1020   59.0130  N.pl3     1 <0>        -0.7346
      10  C8          9.5670   36.4210   59.8690  C.ar      1 <0>         0.2338
      11  C9         10.0250   35.1550   59.5310  C.ar      1 <0>        -0.2095
      12  C10        10.8880   34.4860   60.3780  C.ar      1 <0>        -0.0711
      13  C11        11.2870   35.0730   61.5640  C.ar      1 <0>        -0.1387
      14  C12        10.8290   36.3320   61.9060  C.ar      1 <0>        -0.0648
      15  C13         9.9700   37.0080   61.0620  C.ar      1 <0>        -0.1987
      16  C14        12.2250   34.3380   62.4880  C.3       1 <0>        -0.0207
      17  C15        12.3960   35.1360   63.7820  C.3       1 <0>        -0.1392
      18  C16        11.6460   32.9600   62.8110  C.3       1 <0>        -0.1445
      19  C17        13.5850   34.1730   61.8070  C.3       1 <0>        -0.1390
@<TRIPOS>BOND
     1     1     2 1
     2     2     3 1
     3     2     9 1
     4     3     4 1
     5     4     5 1
     6     4     6 1
     7     4     7 1
     8     7     8 1
     9     9    10 1
    10    10    15 ar
    11    10    11 ar
    12    11    12 ar
    13    12    13 ar
    14    13    14 ar
    15    13    16 1
    16    14    15 ar
    17    16    17 1
    18    16    18 1
    19    16    19 1

@<TRIPOS>MOLECULE
ZINC35521403_replica-1.pdb
 29 31 0 0 0
SMALL
GASTEIGER

@<TRIPOS>ATOM
       1  C1          3.5030   33.8500   55.4480  C.3       1 <0>        -0.1879
       2  C2          2.6760   34.8740   56.2290  C.3       1 <0>        -0.0170
       3  N1          1.3030   34.3770   56.3870  N.4       1 <0>        -0.3866
       4  C3          1.3280   32.9200   56.5810  C.3       1 <0>        -0.0156
       5  C4          0.0320   32.4740   57.2590  C.3       1 <0>        -0.1881
       6  C5          0.6820   35.0150   57.5560  C.3       1 <0>        -0.0149
       7  C6          1.7740   35.4870   58.5170  C.3       1 <0>        -0.1521
       8  C7          1.5530   34.8500   59.8910  C.3       1 <0>        -0.1257
       9  C8          2.4720   33.6360   60.0440  C.3       1 <0>         0.1406
      10  C9          2.0130   32.7950   61.2370  C.3       1 <0>        -0.1702
      11  N2          3.8470   34.0900   60.2660  N.am      1 <0>        -0.7423
      12  C10         4.8570   33.5590   59.5490  C.2       1 <0>         0.5957
      13  O1          4.6180   32.7700   58.6520  O.2       1 <0>        -0.5143
      14  C11         6.2420   33.9300   59.8470  C.2       1 <0>        -0.0453
      15  C12         7.2160   33.0840   60.2820  C.2       1 <0>        -0.0473
      16  C13         8.4150   33.8370   60.4510  C.2       1 <0>        -0.1881
      17  C14         9.7990   33.6390   60.8640  C.2       1 <0>        -0.0954
      18  C15        10.6320   34.6890   60.8750  C.2       1 <0>        -0.1999
      19  S1          9.6020   36.0360   60.3230  S.3       1 <0>         0.1176
      20  C16         8.0840   35.1470   60.0950  C.2       1 <0>         0.0270
      21  N3          6.7820   35.2000   59.7280  N.pl3     1 <0>        -0.3953
      22  C17         6.0640   36.3980   59.2840  C.3       1 <0>         0.1757
      23  C18         6.3190   37.5400   60.2700  C.3       1 <0>        -0.1869
      24  C19         6.5510   36.7970   57.9160  C.ar      1 <0>        -0.1206
      25  C20         7.4350   37.8500   57.7770  C.ar      1 <0>        -0.0892
      26  C21         7.8830   38.2170   56.5220  C.ar      1 <0>        -0.1048
      27  C22         7.4470   37.5300   55.4040  C.ar      1 <0>        -0.0979
      28  C23         6.5630   36.4760   55.5430  C.ar      1 <0>        -0.1161
      29  C24         6.1190   36.1070   56.7990  C.ar      1 <0>        -0.0985
@<TRIPOS>BOND
     1     1     2 1
     2     2     3 1
     3     3     4 1
     4     3     6 1
     5     4     5 1
     6     6     7 1
     7     7     8 1
     8     8     9 1
     9     9    10 1
    10     9    11 1
    11    11    12 am
    12    12    13 2
    13    12    14 1
    14    14    21 1
    15    14    15 2
    16    15    16 1
    17    16    20 2
    18    16    17 1
    19    17    18 2
    20    18    19 1
    21    19    20 1
    22    20    21 1
    23    21    22 1
    24    22    23 1
    25    22    24 1
    26    24    29 ar
    27    24    25 ar
    28    25    26 ar
    29    26    27 ar
    30    27    28 ar
    31    28    29 ar

@<TRIPOS>MOLECULE
ZINC36357593_replica-1.pdb
 24 27 0 0 0
SMALL
GASTEIGER

@<TRIPOS>ATOM
       1  C1          9.5030   35.3080   58.8340  C.ar      1 <0>        -0.0863
       2  C2         10.4300   34.6690   59.6370  C.ar      1 <0>        -0.1216
       3  C3         10.7960   35.2260   60.8500  C.ar      1 <0>         0.0717
       4  C4         10.2310   36.4260   61.2580  C.ar      1 <0>         0.0727
       5  C5          9.3050   37.0620   60.4520  C.ar      1 <0>        -0.1101
       6  C6          8.9410   36.5030   59.2410  C.ar      1 <0>        -0.0630
       7  C7          7.9320   37.1970   58.3640  C.3       1 <0>         0.0664
       8  C8          8.4540   37.2670   56.9200  C.3       1 <0>        -0.0987
       9  C9          7.3210   37.4820   55.9590  C.2       1 <0>         0.3876
      10  N1          6.1230   37.0350   56.1240  N.2       1 <0>        -0.5383
      11  C10         5.7920   36.3360   57.2800  C.2       1 <0>         0.3291
      12  C11         6.6610   36.4210   58.3440  C.2       1 <0>        -0.3102
      13  S1          5.8790   35.4180   59.5720  S.3       1 <0>         0.0291
      14  C12         4.4420   34.9770   58.6020  C.2       1 <0>         0.4025
      15  N2          4.6870   35.6050   57.4620  N.2       1 <0>        -0.5694
      16  N3          3.3590   34.1850   58.9490  N.pl3     1 <0>        -0.5575
      17  C13         3.5540   32.9480   59.7190  C.3       1 <0>         0.1233
      18  C14         2.6500   32.9890   60.9550  C.3       1 <0>        -0.1370
      19  C15         1.2050   33.2380   60.5180  C.3       1 <0>        -0.1222
      20  C16         1.1100   34.5880   59.8060  C.3       1 <0>        -0.1373
      21  C17         1.9950   34.5680   58.5610  C.3       1 <0>         0.1249
      22  O1          7.5750   38.1960   54.8410  O.3       1 <0>        -0.4617
      23  F1         10.5870   36.9710   62.4420  F         1 <0>        -0.1255
      24  F2         11.7000   34.6020   61.6360  F         1 <0>        -0.1260
@<TRIPOS>BOND
     1     1     6 ar
     2     1     2 ar
     3     2     3 ar
     4     3     4 ar
     5     3    24 1
     6     4     5 ar
     7     4    23 1
     8     5     6 ar
     9     6     7 1
    10     7    12 1
    11     7     8 1
    12     8     9 1
    13     9    10 2
    14     9    22 1
    15    10    11 1
    16    11    15 1
    17    11    12 2
    18    12    13 1
    19    13    14 1
    20    14    15 2
    21    14    16 1
    22    16    21 1
    23    16    17 1
    24    17    18 1
    25    18    19 1
    26    19    20 1
    27    20    21 1

@<TRIPOS>MOLECULE
ZINC15906188_replica-1.pdb
 30 34 0 0 0
SMALL
GASTEIGER

@<TRIPOS>ATOM
       1  C1          5.6880   33.2510   55.1580  C.3       1 <0>        -0.1503
       2  C2          5.3700   34.7140   54.8430  C.3       1 <0>        -0.0534
       3  C3          4.1000   35.1220   55.5870  C.3       1 <0>        -0.1113
       4  C4          4.2860   34.9530   57.0820  C.2       1 <0>         0.3903
       5  C5          5.4990   35.1330   57.5710  C.2       1 <0>        -0.9027
       6  C6          6.7020   35.4660   56.7680  C.2       1 <0>         0.1887
       7  N1          7.7590   35.6000   57.4720  N.2       1 <0>        -0.3023
       8  N2          7.7670   35.4330   58.8620  N.pl3     1 <0>        -0.8167
       9  P1          6.1880   35.0590   59.2520  P.3       1 <0>         2.7350
      10  S1          5.4290   36.3460   60.3670  S.2       1 <0>        -1.2600
      11  N3          6.0620   33.5560   59.8960  N.pl3     1 <0>        -1.0577
      12  C7          5.3420   33.3400   61.1580  C.3       1 <0>         0.1189
      13  C8          4.2830   32.2550   60.9420  C.3       1 <0>        -0.1355
      14  C9          4.9520   30.9990   60.3770  C.3       1 <0>        -0.1156
      15  C10         5.5940   31.3240   59.0270  C.3       1 <0>        -0.1372
      16  C11         6.6620   32.3990   59.2180  C.3       1 <0>         0.1003
      17  C12         8.8520   35.5540   59.7290  C.ar      1 <0>         0.2101
      18  C13         9.6850   34.4640   59.9580  C.ar      1 <0>        -0.1696
      19  C14        10.7590   34.5880   60.8170  C.ar      1 <0>        -0.0741
      20  C15        11.0070   35.7940   61.4480  C.ar      1 <0>        -0.1432
      21  C16        10.1810   36.8800   61.2220  C.ar      1 <0>        -0.0876
      22  C17         9.1080   36.7650   60.3610  C.ar      1 <0>        -0.1364
      23  C18         6.5610   35.5870   55.2580  C.3       1 <0>        -0.0333
      24  N4          3.2240   34.6230   57.9020  N.pl3     1 <0>        -0.6737
      25  C19         2.4440   35.6710   58.5730  C.3       1 <0>         0.1225
      26  C20         0.9610   35.4680   58.2440  C.3       1 <0>        -0.1346
      27  C21         0.5500   34.0420   58.6180  C.3       1 <0>        -0.1191
      28  C22         1.3690   33.0430   57.7970  C.3       1 <0>        -0.1377
      29  C23         2.8510   33.2180   58.1160  C.3       1 <0>         0.1335
      30  C24         5.1390   34.8640   53.3380  C.3       1 <0>        -0.1434
@<TRIPOS>BOND
     1     1     2 1
     2     2    23 1
     3     2     3 1
     4     2    30 1
     5     3     4 1
     6     4     5 2
     7     4    24 1
     8     5     9 1
     9     5     6 1
    10     6     7 2
    11     6    23 1
    12     7     8 1
    13     8     9 1
    14     8    17 1
    15     9    10 2
    16     9    11 1
    17    11    16 1
    18    11    12 1
    19    12    13 1
    20    13    14 1
    21    14    15 1
    22    15    16 1
    23    17    22 ar
    24    17    18 ar
    25    18    19 ar
    26    19    20 ar
    27    20    21 ar
    28    21    22 ar
    29    24    29 1
    30    24    25 1
    31    25    26 1
    32    26    27 1
    33    27    28 1
    34    28    29 1

@<TRIPOS>MOLECULE
ZINC40737548_replica-1.pdb
 20 21 0 0 0
SMALL
GASTEIGER

@<TRIPOS>ATOM
       1  C1          1.7180   33.3210   57.2390  C.3       1 <0>        -0.1484
       2  C2          1.1620   31.8960   57.1900  C.3       1 <0>        -0.0868
       3  C3          0.8720   31.4130   58.6130  C.3       1 <0>        -0.1160
       4  C4          0.3160   29.9880   58.5640  C.3       1 <0>        -0.1165
       5  C5         -0.9760   29.9720   57.7460  C.3       1 <0>        -0.0882
       6  C6         -0.6860   30.4540   56.3230  C.3       1 <0>         0.1559
       7  C7         -0.1310   31.8790   56.3710  C.3       1 <0>        -0.1312
       8  N1          0.2990   29.5680   55.6980  N.pl3     1 <0>        -0.7350
       9  C8         -0.0750   28.7490   54.6300  C.ar      1 <0>         0.2229
      10  C9          0.4490   27.4680   54.5190  C.ar      1 <0>        -0.1976
      11  C10         0.0760   26.6610   53.4620  C.ar      1 <0>        -0.0646
      12  C11        -0.8180   27.1270   52.5160  C.ar      1 <0>        -0.1471
      13  C12        -1.3410   28.4030   52.6230  C.ar      1 <0>        -0.0638
      14  C13        -0.9770   29.2130   53.6810  C.ar      1 <0>        -0.1970
      15  C14        -1.2220   26.2440   51.3630  C.3       1 <0>        -0.0715
      16  C15        -0.6490   24.8410   51.5700  C.3       1 <0>         0.0802
      17  O1         -0.3250   24.2660   50.3030  O.3       1 <0>        -0.5774
      18  C16        -1.5320   28.5470   57.6970  C.3       1 <0>        -0.0889
      19  C17        -1.7730   28.0450   59.1220  C.3       1 <0>        -0.1508
      20  C18        -2.8520   28.5400   56.9240  C.3       1 <0>        -0.1496
@<TRIPOS>BOND
     1     1     2 1
     2     2     7 1
     3     2     3 1
     4     3     4 1
     5     4     5 1
     6     5     6 1
     7     5    18 1
     8     6     7 1
     9     6     8 1
    10     8     9 1
    11     9    14 ar
    12     9    10 ar
    13    10    11 ar
    14    11    12 ar
    15    12    13 ar
    16    12    15 1
    17    13    14 ar
    18    15    16 1
    19    16    17 1
    20    18    19 1
    21    18    20 1

@<TRIPOS>MOLECULE
ZINC00382311_replica-1.pdb
 21 22 0 0 0
SMALL
GASTEIGER

@<TRIPOS>ATOM
       1  C1          0.5950   34.2760   59.3830  C.3       1 <0>        -0.1563
       2  C2          0.4270   34.3510   57.8640  C.3       1 <0>        -0.1154
       3  C3          1.3080   33.2920   57.2000  C.3       1 <0>        -0.0981
       4  C4          2.4230   33.9800   56.4090  C.3       1 <0>        -0.1689
       5  C5          0.4600   32.4430   56.2520  C.3       1 <0>        -0.1456
       6  C6          0.4320   30.9960   56.7480  C.3       1 <0>         0.2956
       7  N1         -0.9400   30.6000   57.1040  N.pl3     1 <0>        -0.6779
       8  C7         -1.2730   29.5750   56.3000  C.2       1 <0>         0.5474
       9  S1         -2.7850   28.7720   56.3400  S.2       1 <0>        -0.5966
      10  N2         -0.2770   29.2600   55.4620  N.pl3     1 <0>        -0.3657
      11  N3          0.8050   30.0700   55.6590  N.3       1 <0>        -0.4347
      12  C8         -0.3360   28.2350   54.5120  C.ar      1 <0>         0.1351
      13  C9          0.2650   27.0100   54.7710  C.ar      1 <0>        -0.0998
      14  C10         0.2000   25.9990   53.8320  C.ar      1 <0>        -0.1114
      15  C11        -0.4520   26.2090   52.6300  C.ar      1 <0>        -0.0721
      16  C12        -1.0460   27.4300   52.3670  C.ar      1 <0>        -0.0754
      17  C13        -0.9890   28.4430   53.3040  C.ar      1 <0>        -0.0748
      18  C14        -1.7560   27.6550   51.0570  C.3       1 <0>        -0.1181
      19  C15        -0.5150   25.1060   51.6060  C.3       1 <0>        -0.1212
      20  C16         1.3690   30.8190   57.9440  C.3       1 <0>        -0.1088
      21  C17         0.5500   30.4530   59.1830  C.3       1 <0>        -0.1507
@<TRIPOS>BOND
     1     1     2 1
     2     2     3 1
     3     3     4 1
     4     3     5 1
     5     5     6 1
     6     6    11 1
     7     6     7 1
     8     6    20 1
     9     7     8 1
    10     8     9 2
    11     8    10 1
    12    10    11 1
    13    10    12 1
    14    12    17 ar
    15    12    13 ar
    16    13    14 ar
    17    14    15 ar
    18    15    16 ar
    19    15    19 1
    20    16    17 ar
    21    16    18 1
    22    20    21 1

@<TRIPOS>MOLECULE
ZINC01360944_replica-1.pdb
 29 31 0 0 0
SMALL
GASTEIGER

@<TRIPOS>ATOM
       1  C1          3.8020   35.4930   54.9970  C.3       1 <0>        -0.1516
       2  C2          3.5270   36.0270   56.4040  C.3       1 <0>        -0.0858
       3  C3          4.6840   35.6860   57.3070  C.ar      1 <0>        -0.1160
       4  C4          5.8910   36.2920   57.1280  C.ar      1 <0>        -0.0424
       5  C5          6.9500   35.9400   57.9900  C.ar      1 <0>        -0.1054
       6  C6          8.2230   36.5120   57.8510  C.ar      1 <0>        -0.0542
       7  C7          9.2230   36.1480   58.7020  C.ar      1 <0>        -0.1208
       8  C8          8.9980   35.2140   59.7100  C.ar      1 <0>        -0.0560
       9  C9          7.7740   34.6390   59.8730  C.ar      1 <0>        -0.1087
      10  C10         6.7190   34.9850   59.0110  C.ar      1 <0>         0.1482
      11  N1          5.5100   34.4310   59.1460  N.ar      1 <0>        -0.4856
      12  C11         4.5180   34.7510   58.3390  C.ar      1 <0>         0.1350
      13  S1          2.9450   33.9890   58.5650  S.3       1 <0>         0.0428
      14  C12         3.1790   32.4860   57.5840  C.3       1 <0>        -0.1439
      15  C13         2.0170   32.3160   56.6410  C.2       1 <0>         0.5327
      16  O1          1.3230   33.2690   56.3550  O.2       1 <0>        -0.5226
      17  N2          1.7490   31.1050   56.1140  N.am      1 <0>        -0.5178
      18  N3          0.6680   30.9460   55.2360  N.am      1 <0>        -0.5246
      19  C14        -0.2900   30.0370   55.5030  C.2       1 <0>         0.5160
      20  O2         -0.2160   29.3550   56.5040  O.2       1 <0>        -0.5248
      21  C15        -1.4520   29.8670   54.5600  C.3       1 <0>        -0.0896
      22  C16        -1.1800   28.7130   53.6300  C.ar      1 <0>        -0.0738
      23  C17        -1.7170   28.7110   52.3560  C.ar      1 <0>        -0.1032
      24  C18        -1.4630   27.6540   51.5010  C.ar      1 <0>        -0.1189
      25  C19        -0.6810   26.5950   51.9250  C.ar      1 <0>        -0.1158
      26  C20        -0.1510   26.5950   53.2010  C.ar      1 <0>        -0.1189
      27  C21        -0.3990   27.6530   54.0540  C.ar      1 <0>        -0.1031
      28  C22        10.1260   34.8330   60.6350  C.3       1 <0>        -0.1188
      29  C23         8.4840   37.5240   56.7650  C.3       1 <0>        -0.1205
@<TRIPOS>BOND
     1     1     2 1
     2     2     3 1
     3     3    12 ar
     4     3     4 ar
     5     4     5 ar
     6     5    10 ar
     7     5     6 ar
     8     6     7 ar
     9     6    29 1
    10     7     8 ar
    11     8     9 ar
    12     8    28 1
    13     9    10 ar
    14    10    11 ar
    15    11    12 ar
    16    12    13 1
    17    13    14 1
    18    14    15 1
    19    15    16 2
    20    15    17 am
    21    17    18 1
    22    18    19 am
    23    19    20 2
    24    19    21 1
    25    21    22 1
    26    22    27 ar
    27    22    23 ar
    28    23    24 ar
    29    24    25 ar
    30    25    26 ar
    31    26    27 ar

@<TRIPOS>MOLECULE
ZINC35661740_replica-1.pdb
 20 22 0 0 0
SMALL
GASTEIGER

@<TRIPOS>ATOM
       1  C1         -2.3310   29.9980   54.8490  C.3       1 <0>        -0.1798
       2  C2         -0.9540   29.9050   54.1890  C.3       1 <0>         0.1242
       3  C3         -0.4490   28.4880   54.2770  C.ar      1 <0>        -0.0622
       4  C4          0.2420   28.0740   55.3740  C.ar      1 <0>        -0.0950
       5  C5          0.7160   26.7680   55.4730  C.ar      1 <0>        -0.1145
       6  C6          0.5020   25.8680   54.4750  C.ar      1 <0>        -0.1105
       7  C7         -0.2070   26.2570   53.3260  C.ar      1 <0>        -0.0520
       8  C8         -0.6940   27.5850   53.2290  C.ar      1 <0>        -0.0438
       9  C9         -1.4100   27.9740   52.0820  C.ar      1 <0>        -0.1112
      10  C10        -1.6280   27.0710   51.0870  C.ar      1 <0>        -0.1154
      11  C11        -1.1540   25.7640   51.1860  C.ar      1 <0>        -0.1189
      12  C12        -0.4470   25.3570   52.2740  C.ar      1 <0>        -0.1047
      13  N1         -0.0190   30.8010   54.8820  N.3       1 <0>        -0.6817
      14  C13        -0.7240   31.6510   55.8510  C.3       1 <0>         0.0629
      15  C14        -0.0490   31.5320   57.2190  C.3       1 <0>        -0.0382
      16  C15         0.2930   32.9080   57.7320  C.2       1 <0>        -0.0107
      17  C16         0.4850   33.2420   59.0200  C.2       1 <0>        -0.2095
      18  C17         0.7830   34.6240   59.0450  C.2       1 <0>        -0.2145
      19  C18         0.7550   35.0510   57.7700  C.2       1 <0>        -0.0410
      20  O1          0.4630   34.0070   56.9790  O.3       1 <0>        -0.1748
@<TRIPOS>BOND
     1     1     2 1
     2     2     3 1
     3     2    13 1
     4     3     8 ar
     5     3     4 ar
     6     4     5 ar
     7     5     6 ar
     8     6     7 ar
     9     7    12 ar
    10     7     8 ar
    11     8     9 ar
    12     9    10 ar
    13    10    11 ar
    14    11    12 ar
    15    13    14 1
    16    14    15 1
    17    15    16 1
    18    16    20 1
    19    16    17 2
    20    17    18 1
    21    18    19 2
    22    19    20 1

@<TRIPOS>MOLECULE
ZINC05667616_replica-1.pdb
 27 29 0 0 0
SMALL
GASTEIGER

@<TRIPOS>ATOM
       1  C1          8.1040   35.4110   56.0940  C.3       1 <0>        -0.1538
       2  C2          7.2160   36.2300   55.1540  C.3       1 <0>         0.0542
       3  O1          6.2520   35.3720   54.5410  O.3       1 <0>        -0.3136
       4  C3          5.0450   35.2600   55.1590  C.ar      1 <0>         0.1515
       5  C4          4.4240   36.3910   55.6760  C.ar      1 <0>        -0.2031
       6  C5          3.2030   36.2900   56.3050  C.ar      1 <0>        -0.0231
       7  C6          2.5820   35.0450   56.4230  C.ar      1 <0>         0.0219
       8  C7          3.2120   33.9040   55.8990  C.ar      1 <0>         0.0990
       9  C8          4.4400   34.0190   55.2650  C.ar      1 <0>        -0.1554
      10  N1          2.3660   32.8390   56.1670  N.pl3     1 <0>        -0.5853
      11  C9          1.2790   33.3410   56.8250  C.2       1 <0>         0.2474
      12  N2          1.4080   34.6350   56.9750  N.2       1 <0>        -0.4841
      13  S1         -0.0910   32.3880   57.3880  S.3       1 <0>         0.0659
      14  C10         0.7790   30.9370   58.0340  C.3       1 <0>        -0.1045
      15  C11         0.3710   30.7040   59.4900  C.3       1 <0>        -0.1459
      16  C12         0.4180   29.7270   57.2120  C.2       1 <0>         0.5354
      17  O2         -0.0720   28.7540   57.7460  O.2       1 <0>        -0.5212
      18  N3          0.6400   29.7250   55.8820  N.am      1 <0>        -0.7202
      19  C13         0.2890   28.5480   55.0830  C.3       1 <0>         0.1275
      20  C14        -0.7340   28.9440   54.0170  C.3       1 <0>        -0.0621
      21  C15        -2.0800   29.2350   54.6840  C.3       1 <0>        -0.1472
      22  C16        -0.8960   27.8140   53.0320  C.ar      1 <0>        -0.0796
      23  C17        -0.2970   26.5930   53.2770  C.ar      1 <0>        -0.1124
      24  C18        -0.4500   25.5550   52.3760  C.ar      1 <0>        -0.1171
      25  C19        -1.1930   25.7430   51.2260  C.ar      1 <0>        -0.1203
      26  C20        -1.7870   26.9650   50.9780  C.ar      1 <0>        -0.1180
      27  C21        -1.6390   28.0020   51.8810  C.ar      1 <0>        -0.1133
@<TRIPOS>BOND
     1     1     2 1
     2     2     3 1
     3     3     4 1
     4     4     9 ar
     5     4     5 ar
     6     5     6 ar
     7     6     7 ar
     8     7    12 1
     9     7     8 ar
    10     8     9 ar
    11     8    10 1
    12    10    11 1
    13    11    12 2
    14    11    13 1
    15    13    14 1
    16    14    15 1
    17    14    16 1
    18    16    17 2
    19    16    18 am
    20    18    19 1
    21    19    20 1
    22    20    21 1
    23    20    22 1
    24    22    27 ar
    25    22    23 ar
    26    23    24 ar
    27    24    25 ar
    28    25    26 ar
    29    26    27 ar

@<TRIPOS>MOLECULE
ZINC00726508_replica-1.pdb
 24 26 0 0 0
SMALL
GASTEIGER

@<TRIPOS>ATOM
       1  C1         11.8830   31.5170   63.1140  C.3       1 <0>        -0.1540
       2  C2         11.7040   33.0370   63.0880  C.3       1 <0>         0.0605
       3  O1         10.8460   33.3970   62.0020  O.3       1 <0>        -0.3390
       4  C3         11.2800   34.3730   61.1780  C.2       1 <0>         0.5066
       5  O2         12.4680   34.4830   60.9370  O.2       1 <0>        -0.4863
       6  C4         10.3540   35.2690   60.5930  C.3       1 <0>        -0.1762
       7  C5         10.1110   36.4480   61.1890  C.2       1 <0>         0.2540
       8  N1          9.2280   37.3340   60.6380  N.2       1 <0>        -0.5421
       9  C6          8.8750   37.2420   59.3190  C.2       1 <0>         0.1882
      10  C7          9.0700   36.0910   58.6380  C.2       1 <0>        -0.2887
      11  C8          9.6680   34.8850   59.3160  C.3       1 <0>         0.0438
      12  C9          8.5710   33.9020   59.6350  C.ar      1 <0>        -0.0845
      13  C10         8.7220   32.5670   59.3100  C.ar      1 <0>        -0.1262
      14  C11         7.7190   31.6650   59.6080  C.ar      1 <0>        -0.0784
      15  C12         6.5570   32.1000   60.2210  C.ar      1 <0>        -0.0943
      16  C13         6.4040   33.4360   60.5410  C.ar      1 <0>        -0.0808
      17  C14         7.4100   34.3370   60.2480  C.ar      1 <0>        -0.0696
      18  I1          5.0320   30.7340   60.6650  I         1 <0>        -0.0350
      19  C15         8.7240   35.9860   57.2790  C.2       1 <0>         0.3995
      20  O3          8.9050   34.9350   56.6970  O.2       1 <0>        -0.4654
      21  C16         8.1370   37.1530   56.5320  C.3       1 <0>        -0.1576
      22  C17         8.6360   38.4540   57.1670  C.3       1 <0>        -0.1153
      23  C18         8.2590   38.4450   58.6520  C.3       1 <0>        -0.0791
      24  C19        10.8180   36.7980   62.4740  C.3       1 <0>        -0.1279
@<TRIPOS>BOND
     1     1     2 1
     2     2     3 1
     3     3     4 1
     4     4     5 2
     5     4     6 1
     6     6    11 1
     7     6     7 1
     8     7    24 1
     9     7     8 2
    10     8     9 1
    11     9    23 1
    12     9    10 2
    13    10    11 1
    14    10    19 1
    15    11    12 1
    16    12    17 ar
    17    12    13 ar
    18    13    14 ar
    19    14    15 ar
    20    15    16 ar
    21    15    18 1
    22    16    17 ar
    23    19    20 2
    24    19    21 1
    25    21    22 1
    26    22    23 1

@<TRIPOS>MOLECULE
ZINC67111703_replica-1.pdb
 22 23 0 0 0
SMALL
GASTEIGER

@<TRIPOS>ATOM
       1  C1          0.3420   33.2960   60.8600  C.3       1 <0>        -0.1512
       2  C2          1.0080   34.1100   59.7480  C.3       1 <0>        -0.1237
       3  C3          0.5350   33.5950   58.3870  C.3       1 <0>         0.0625
       4  O1          1.4440   32.5980   57.9130  O.3       1 <0>        -0.3795
       5  C4          0.8320   31.5870   57.1090  C.3       1 <0>         0.0792
       6  C5         -0.5210   32.0890   56.5990  C.3       1 <0>        -0.1431
       7  C6         -1.1600   31.0200   55.7110  C.3       1 <0>        -0.1340
       8  C7         -1.3950   29.7490   56.5360  C.3       1 <0>         0.1024
       9  N1         -0.1240   29.3430   57.1490  N.am      1 <0>        -0.6121
      10  C8          0.6220   30.3240   57.9490  C.3       1 <0>         0.1154
      11  C9          0.3510   28.0920   56.9800  C.2       1 <0>         0.5180
      12  O2          1.4020   27.7690   57.4920  O.2       1 <0>        -0.5309
      13  C10        -0.4240   27.0970   56.1560  C.3       1 <0>        -0.1334
      14  C11         0.4450   26.6090   54.9960  C.3       1 <0>        -0.0341
      15  C12         0.6970   25.1070   55.1430  C.3       1 <0>        -0.1511
      16  C13        -0.2640   26.8730   53.6930  C.ar      1 <0>        -0.0887
      17  C14        -0.3650   25.8710   52.7460  C.ar      1 <0>        -0.0862
      18  C15        -1.0150   26.1110   51.5500  C.ar      1 <0>        -0.1509
      19  C16        -1.5670   27.3560   51.3010  C.ar      1 <0>         0.0942
      20  C17        -1.4660   28.3590   52.2500  C.ar      1 <0>        -0.1506
      21  C18        -0.8190   28.1150   53.4470  C.ar      1 <0>        -0.0854
      22  F1         -2.2030   27.5920   50.1330  F         1 <0>        -0.1400
@<TRIPOS>BOND
     1     1     2 1
     2     2     3 1
     3     3     4 1
     4     4     5 1
     5     5    10 1
     6     5     6 1
     7     6     7 1
     8     7     8 1
     9     8     9 1
    10     9    10 1
    11     9    11 am
    12    11    12 2
    13    11    13 1
    14    13    14 1
    15    14    15 1
    16    14    16 1
    17    16    21 ar
    18    16    17 ar
    19    17    18 ar
    20    18    19 ar
    21    19    20 ar
    22    19    22 1
    23    20    21 ar

@<TRIPOS>MOLECULE
ZINC04881085_replica-1.pdb
 24 24 0 0 0
SMALL
GASTEIGER

@<TRIPOS>ATOM
       1  C1         13.4290   31.2830   63.6490  C.3       1 <0>        -0.1738
       2  C2         11.9980   31.8200   63.5750  C.3       1 <0>         0.1134
       3  N1         11.9950   33.1010   62.8630  N.pl3     1 <0>        -0.6177
       4  C3         12.9910   34.1230   63.1910  C.3       1 <0>         0.1128
       5  C4         14.1370   34.0620   62.1790  C.3       1 <0>        -0.1738
       6  C5         11.0450   33.3470   61.8770  C.ar      1 <0>         0.2501
       7  C6         11.0790   34.5400   61.1620  C.ar      1 <0>        -0.2079
       8  C7         10.1420   34.7850   60.1850  C.ar      1 <0>        -0.0020
       9  C8          9.1540   33.8350   59.9120  C.ar      1 <0>        -0.2008
      10  C9          9.1220   32.6360   60.6330  C.ar      1 <0>        -0.0348
      11  C10        10.0630   32.3970   61.6080  C.ar      1 <0>        -0.2073
      12  C11         8.1470   34.0940   58.8670  C.2       1 <0>         0.5821
      13  O1          7.0130   34.4040   59.1780  O.2       1 <0>        -0.5100
      14  N2          8.4840   33.9890   57.5660  N.am      1 <0>        -0.5866
      15  N3          7.5270   34.2360   56.5720  N.2       1 <0>        -0.2301
      16  C12         7.4830   35.3770   55.9950  C.2       1 <0>         0.1040
      17  C13         6.4540   35.6420   54.9260  C.3       1 <0>        -0.0574
      18  C14         5.0710   35.2420   55.4410  C.3       1 <0>        -0.0908
      19  C15         4.2050   36.4930   55.6040  C.3       1 <0>        -0.1502
      20  C16         4.4080   34.2930   54.4390  C.3       1 <0>        -0.1479
      21  C17         8.4610   36.4560   56.3840  C.3       1 <0>        -0.1229
      22  C18         7.7450   37.5110   57.2300  C.3       1 <0>        -0.0923
      23  C19         8.5460   37.7700   58.5080  C.3       1 <0>        -0.1509
      24  C20         7.6270   38.8110   56.4300  C.3       1 <0>        -0.1490
@<TRIPOS>BOND
     1     1     2 1
     2     2     3 1
     3     3     4 1
     4     3     6 1
     5     4     5 1
     6     6    11 ar
     7     6     7 ar
     8     7     8 ar
     9     8     9 ar
    10     9    10 ar
    11     9    12 1
    12    10    11 ar
    13    12    13 2
    14    12    14 am
    15    14    15 1
    16    15    16 2
    17    16    17 1
    18    16    21 1
    19    17    18 1
    20    18    19 1
    21    18    20 1
    22    21    22 1
    23    22    23 1
    24    22    24 1

@<TRIPOS>MOLECULE
ZINC35745384_replica-1.pdb
 28 29 0 0 0
SMALL
GASTEIGER

@<TRIPOS>ATOM
       1  C1          0.6950   25.4300   54.3150  C.3       1 <0>        -0.1269
       2  C2         -0.1010   26.4300   53.5180  C.ar      1 <0>        -0.0727
       3  C3         -0.5460   26.1050   52.2500  C.ar      1 <0>        -0.0870
       4  C4         -1.2760   27.0230   51.5180  C.ar      1 <0>        -0.1060
       5  C5         -1.5620   28.2650   52.0550  C.ar      1 <0>        -0.1021
       6  C6         -1.1170   28.5890   53.3220  C.ar      1 <0>        -0.1569
       7  C7         -0.3910   27.6700   54.0570  C.ar      1 <0>        -0.1013
       8  C8         -1.4280   29.9420   53.9080  C.3       1 <0>         0.0388
       9  N1         -1.6100   29.8180   55.3600  N.4       1 <0>        -0.3838
      10  C9         -2.7760   28.9680   55.6370  C.3       1 <0>        -0.0115
      11  C10        -2.7910   28.5880   57.1190  C.3       1 <0>        -0.1478
      12  C11        -1.8060   27.4430   57.3600  C.3       1 <0>         0.0635
      13  O1         -0.4940   27.9750   57.5520  O.3       1 <0>        -0.3884
      14  C12         0.5160   26.9820   57.7370  C.3       1 <0>         0.0299
      15  C13        -1.8250   31.1500   55.9420  C.3       1 <0>         0.0876
      16  C14        -0.5450   31.6330   56.5770  C.2       1 <0>        -0.1093
      17  C15        -0.0920   31.2850   57.7950  C.2       1 <0>        -0.1333
      18  C16         1.1320   31.9650   57.9860  C.2       1 <0>        -0.1957
      19  C17         1.3530   32.6890   56.8740  C.2       1 <0>         0.0204
      20  O2          0.3370   32.4790   56.0220  O.3       1 <0>        -0.1544
      21  C18         2.5420   33.5800   56.6250  C.3       1 <0>         0.2933
      22  C19         2.1630   35.0130   56.8980  C.2       1 <0>        -0.1686
      23  C20         1.0280   35.2880   57.4910  C.2       1 <0>        -0.1606
      24  C21         3.0900   36.1280   56.4890  C.3       1 <0>        -0.1181
      25  C22         3.6720   33.1770   57.5380  C.2       1 <0>        -0.1394
      26  C23         4.6170   32.3830   57.0990  C.2       1 <0>        -0.1394
      27  C24         3.7130   33.6870   58.9550  C.3       1 <0>        -0.1319
      28  O3          2.9590   33.4480   55.2640  O.3       1 <0>        -0.5262
@<TRIPOS>BOND
     1     1     2 1
     2     2     7 ar
     3     2     3 ar
     4     3     4 ar
     5     4     5 ar
     6     5     6 ar
     7     6     7 ar
     8     6     8 1
     9     8     9 1
    10     9    10 1
    11     9    15 1
    12    10    11 1
    13    11    12 1
    14    12    13 1
    15    13    14 1
    16    15    16 1
    17    16    20 1
    18    16    17 2
    19    17    18 1
    20    18    19 2
    21    19    20 1
    22    19    21 1
    23    21    22 1
    24    21    25 1
    25    21    28 1
    26    22    23 2
    27    22    24 1
    28    25    26 2
    29    25    27 1

@<TRIPOS>MOLECULE
ZINC36854646_replica-1.pdb
 21 22 0 0 0
SMALL
GASTEIGER

@<TRIPOS>ATOM
       1  C1          8.4990   32.2820   58.0700  C.3       1 <0>        -0.1460
       2  C2          7.0330   32.0910   58.4650  C.3       1 <0>        -0.0838
       3  C3          6.2370   31.6080   57.2500  C.3       1 <0>        -0.1146
       4  C4          6.3320   32.6470   56.1320  C.3       1 <0>        -0.1135
       5  C5          5.7580   33.9780   56.6230  C.3       1 <0>        -0.0759
       6  C6          6.5540   34.4610   57.8370  C.3       1 <0>         0.1035
       7  C7          6.4590   33.4220   58.9550  C.3       1 <0>        -0.1374
       8  O1          7.9220   34.6400   57.4670  O.3       1 <0>        -0.3789
       9  C8          8.4300   35.9500   57.7340  C.3       1 <0>         0.0905
      10  C9          9.1340   35.9540   59.0670  C.ar      1 <0>         0.0031
      11  C10        10.1550   35.0600   59.3120  C.ar      1 <0>        -0.1095
      12  C11        10.8020   35.0620   60.5350  C.ar      1 <0>        -0.0772
      13  C12        10.4320   35.9600   61.5190  C.ar      1 <0>        -0.1315
      14  C13         9.4130   36.8610   61.2870  C.ar      1 <0>        -0.0805
      15  C14         8.7590   36.8670   60.0530  C.ar      1 <0>        -0.1246
      16  C15         7.6710   37.8310   59.7950  C.2       1 <0>         0.3883
      17  S1          6.0450   37.3870   60.0920  S.2       1 <0>        -0.5541
      18  N1          7.9590   39.0620   59.3260  N.pl3     1 <0>        -0.7677
      19  C16         5.8530   35.0180   55.5040  C.3       1 <0>        -0.0881
      20  C17         5.1620   34.4810   54.2480  C.3       1 <0>        -0.1497
      21  C18         5.1670   36.3110   55.9490  C.3       1 <0>        -0.1505
@<TRIPOS>BOND
     1     1     2 1
     2     2     7 1
     3     2     3 1
     4     3     4 1
     5     4     5 1
     6     5     6 1
     7     5    19 1
     8     6     7 1
     9     6     8 1
    10     8     9 1
    11     9    10 1
    12    10    15 ar
    13    10    11 ar
    14    11    12 ar
    15    12    13 ar
    16    13    14 ar
    17    14    15 ar
    18    15    16 1
    19    16    17 2
    20    16    18 1
    21    19    20 1
    22    19    21 1

@<TRIPOS>MOLECULE
ZINC62771800_replica-1.pdb
 21 22 0 0 0
SMALL
GASTEIGER

@<TRIPOS>ATOM
       1  C1         12.5450   34.5200   62.7700  C.3       1 <0>        -0.1076
       2  C2         11.4860   35.0760   61.8540  C.ar      1 <0>        -0.1089
       3  C3         11.0550   36.3800   62.0090  C.ar      1 <0>        -0.1059
       4  C4         10.0830   36.8960   61.1710  C.ar      1 <0>        -0.1663
       5  C5          9.5380   36.1030   60.1720  C.ar      1 <0>         0.1976
       6  C6          9.9730   34.7880   60.0160  C.ar      1 <0>         0.0605
       7  C7         10.9510   34.2810   60.8560  C.ar      1 <0>        -0.1639
       8  O1          9.4420   34.0060   59.0380  O.3       1 <0>        -0.3111
       9  C8          8.6550   32.8890   59.4580  C.3       1 <0>         0.0662
      10  C9          7.1700   33.2380   59.3360  C.3       1 <0>         0.0624
      11  O2          6.9900   34.1950   58.2910  O.3       1 <0>        -0.3833
      12  C10         5.6220   34.4970   58.0080  C.3       1 <0>         0.0303
      13  N1          8.5540   36.6210   59.3230  N.pl3     1 <0>        -0.7348
      14  C11         8.1930   38.0390   59.4010  C.3       1 <0>         0.1537
      15  C12         6.6780   38.1700   59.5740  C.3       1 <0>        -0.1699
      16  C13         8.6230   38.7470   58.1140  C.3       1 <0>        -0.0467
      17  C14         8.1830   37.9360   56.9240  C.2       1 <0>        -0.0142
      18  C15         7.2590   38.3060   56.0170  C.2       1 <0>        -0.1954
      19  C16         7.1610   37.2530   55.0800  C.2       1 <0>        -0.2106
      20  C17         8.0290   36.3010   55.4690  C.2       1 <0>        -0.0439
      21  O3          8.6490   36.7240   56.5830  O.3       1 <0>        -0.1772
@<TRIPOS>BOND
     1     1     2 1
     2     2     7 ar
     3     2     3 ar
     4     3     4 ar
     5     4     5 ar
     6     5     6 ar
     7     5    13 1
     8     6     7 ar
     9     6     8 1
    10     8     9 1
    11     9    10 1
    12    10    11 1
    13    11    12 1
    14    13    14 1
    15    14    15 1
    16    14    16 1
    17    16    17 1
    18    17    21 1
    19    17    18 2
    20    18    19 1
    21    19    20 2
    22    20    21 1

@<TRIPOS>MOLECULE
ZINC60355799_replica-1.pdb
 24 25 0 0 0
SMALL
GASTEIGER

@<TRIPOS>ATOM
       1  C1          6.9620   29.6320   57.7150  C.3       1 <0>        -0.1523
       2  C2          6.8210   31.0160   58.3530  C.3       1 <0>        -0.1167
       3  C3          7.3430   30.9700   59.7910  C.3       1 <0>        -0.1810
       4  C4          7.6310   32.0340   57.5490  C.3       1 <0>         0.0195
       5  C5          8.6880   32.6730   58.4520  C.3       1 <0>         0.0954
       6  N1          9.0130   34.0110   57.9520  N.pl3     1 <0>        -0.7636
       7  C6          9.2950   35.0430   58.8500  C.ar      1 <0>         0.3014
       8  C7         10.0730   34.7950   59.9740  C.ar      1 <0>        -0.2005
       9  C8         10.3510   35.8180   60.8590  C.ar      1 <0>         0.0016
      10  C9          9.8550   37.0880   60.6270  C.ar      1 <0>        -0.1691
      11  C10         9.0800   37.3380   59.5100  C.ar      1 <0>         0.0315
      12  C11         8.8040   36.3210   58.6170  C.ar      1 <0>        -0.7134
      13  S1          7.8230   36.6430   57.1900  S.o2      1 <0>         2.4747
      14  O1          8.5500   36.0700   56.1120  O.2       1 <0>        -0.8660
      15  O2          6.5270   36.1650   57.5250  O.2       1 <0>        -0.8403
      16  C12         7.8000   38.4510   57.0380  C.3       1 <0>        -0.0252
      17  F1          7.0290   38.8150   55.9290  F         1 <0>        -0.1876
      18  F2          7.2460   39.0090   58.1960  F         1 <0>        -0.1498
      19  F3          9.1070   38.9220   56.8730  F         1 <0>        -0.1392
      20  N2          6.7330   33.0760   57.0330  N.4       1 <0>        -0.4008
      21  C13         6.6670   33.0060   55.5510  C.3       1 <0>        -0.0149
      22  C14         5.3320   33.7180   55.2210  C.3       1 <0>        -0.1458
      23  C15         4.4050   33.2650   56.3720  C.3       1 <0>        -0.1436
      24  C16         5.3530   32.8420   57.5090  C.3       1 <0>        -0.0122
@<TRIPOS>BOND
     1     1     2 1
     2     2     3 1
     3     2     4 1
     4     4     5 1
     5     4    20 1
     6     5     6 1
     7     6     7 1
     8     7    12 ar
     9     7     8 ar
    10     8     9 ar
    11     9    10 ar
    12    10    11 ar
    13    11    12 ar
    14    12    13 1
    15    13    14 2
    16    13    15 2
    17    13    16 1
    18    16    17 1
    19    16    18 1
    20    16    19 1
    21    20    24 1
    22    20    21 1
    23    21    22 1
    24    22    23 1
    25    23    24 1

@<TRIPOS>MOLECULE
ZINC44725981_replica-1.pdb
 20 20 0 0 0
SMALL
GASTEIGER

@<TRIPOS>ATOM
       1  C1         12.3040   29.9550   64.4630  C.3       1 <0>        -0.1527
       2  C2         12.8570   30.7260   63.2620  C.3       1 <0>         0.0577
       3  O1         12.5470   32.1140   63.4030  O.3       1 <0>        -0.3865
       4  C3         11.4760   32.5580   62.5660  C.3       1 <0>         0.0521
       5  C4         11.4740   34.0860   62.5080  C.3       1 <0>         0.1446
       6  C5         12.6230   34.6300   63.3630  C.3       1 <0>        -0.1677
       7  N1         11.6490   34.5240   61.1210  N.pl3     1 <0>        -0.7205
       8  C6         10.6440   35.2590   60.4890  C.ar      1 <0>         0.2849
       9  C7         10.2370   36.4780   61.0160  C.ar      1 <0>        -0.2184
      10  C8          9.2430   37.2030   60.3870  C.ar      1 <0>         0.0390
      11  C9          8.6530   36.7150   59.2350  C.ar      1 <0>        -0.7148
      12  C10         9.0560   35.5020   58.7080  C.ar      1 <0>         0.0383
      13  C11        10.0540   34.7750   59.3280  C.ar      1 <0>        -0.2122
      14  S1          7.3850   37.6420   58.4370  S.o2      1 <0>         2.4913
      15  O2          6.3560   36.6990   58.1770  O.2       1 <0>        -0.8659
      16  O3          7.1520   38.7510   59.2950  O.2       1 <0>        -0.8661
      17  C12         8.1280   38.2030   56.8790  C.3       1 <0>        -0.0241
      18  F1          7.1620   38.8650   56.1130  F         1 <0>        -0.1586
      19  F2          9.1850   39.0770   57.1550  F         1 <0>        -0.1615
      20  F3          8.6100   37.0980   56.1690  F         1 <0>        -0.1589
@<TRIPOS>BOND
     1     1     2 1
     2     2     3 1
     3     3     4 1
     4     4     5 1
     5     5     6 1
     6     5     7 1
     7     7     8 1
     8     8    13 ar
     9     8     9 ar
    10     9    10 ar
    11    10    11 ar
    12    11    12 ar
    13    11    14 1
    14    12    13 ar
    15    14    15 2
    16    14    16 2
    17    14    17 1
    18    17    18 1
    19    17    19 1
    20    17    20 1

@<TRIPOS>MOLECULE
ZINC52256279_replica-1.pdb
 20 20 0 0 0
SMALL
GASTEIGER

@<TRIPOS>ATOM
       1  C1          0.5960   33.1680   58.6620  C.3       1 <0>        -0.1531
       2  C2          0.6560   31.8640   59.4590  C.3       1 <0>         0.0554
       3  O1          0.8140   30.7630   58.5610  O.3       1 <0>        -0.3420
       4  C3         -0.2190   29.9130   58.4520  C.2       1 <0>         0.4734
       5  O2         -0.7240   29.4440   59.4450  O.2       1 <0>        -0.5079
       6  C4         -0.7490   29.5420   57.0910  C.3       1 <0>        -0.1142
       7  C5          0.2580   28.6350   56.3800  C.3       1 <0>         0.1238
       8  C6         -0.4680   27.4120   55.8160  C.3       1 <0>        -0.1577
       9  C7          0.3790   26.7850   54.7060  C.3       1 <0>        -0.0424
      10  C8          0.6490   25.3170   55.0400  C.3       1 <0>        -0.1496
      11  C9         -0.3640   26.8740   53.3980  C.ar      1 <0>        -0.0753
      12  C10        -0.9960   28.0500   53.0390  C.ar      1 <0>        -0.1139
      13  C11        -1.6770   28.1300   51.8390  C.ar      1 <0>        -0.1193
      14  C12        -1.7260   27.0340   50.9970  C.ar      1 <0>        -0.1267
      15  C13        -1.0950   25.8580   51.3560  C.ar      1 <0>        -0.1189
      16  C14        -0.4100   25.7800   52.5540  C.ar      1 <0>        -0.1201
      17  O3          1.2550   28.2110   57.3110  O.3       1 <0>        -0.5542
      18  C15        -0.9640   30.8120   56.2640  C.3       1 <0>        -0.0807
      19  C16         0.1090   30.9020   55.1780  C.3       1 <0>        -0.1507
      20  C17        -2.3470   30.7690   55.6130  C.3       1 <0>        -0.1602
@<TRIPOS>BOND
     1     1     2 1
     2     2     3 1
     3     3     4 1
     4     4     5 2
     5     4     6 1
     6     6     7 1
     7     6    18 1
     8     7     8 1
     9     7    17 1
    10     8     9 1
    11     9    10 1
    12     9    11 1
    13    11    16 ar
    14    11    12 ar
    15    12    13 ar
    16    13    14 ar
    17    14    15 ar
    18    15    16 ar
    19    18    19 1
    20    18    20 1

@<TRIPOS>MOLECULE
ZINC36580732_replica-1.pdb
 24 23 0 0 0
SMALL
GASTEIGER

@<TRIPOS>ATOM
       1  C1         13.9840   32.9700   62.9920  C.3       1 <0>        -0.1535
       2  C2         13.3450   34.1250   62.2190  C.3       1 <0>        -0.1248
       3  C3         11.8390   33.8870   62.0980  C.3       1 <0>        -0.1180
       4  C4         11.2440   34.8810   61.0980  C.3       1 <0>        -0.1131
       5  C5         10.2270   34.1630   60.2090  C.3       1 <0>        -0.1569
       6  C6          8.8190   34.6630   60.5370  C.3       1 <0>         0.1229
       7  C7          7.8190   33.5710   60.2540  C.2       1 <0>         0.5120
       8  O1          6.6610   33.7090   60.5860  O.2       1 <0>        -0.5159
       9  N1          8.2120   32.4430   59.6300  N.am      1 <0>        -0.7210
      10  C8          7.2400   31.3820   59.3550  C.3       1 <0>         0.1697
      11  C9          6.0420   31.9700   58.6060  C.3       1 <0>        -0.1637
      12  C10         7.8960   30.2990   58.4950  C.3       1 <0>        -0.1571
      13  C11         6.7660   30.7700   60.6740  C.3       1 <0>        -0.1640
      14  N2          8.5120   35.8340   59.7120  N.am      1 <0>        -0.5826
      15  C12         8.5580   35.7420   58.3680  C.2       1 <0>         0.5243
      16  O2          8.8640   34.6940   57.8420  O.2       1 <0>        -0.5366
      17  C13         8.2280   36.9430   57.5200  C.3       1 <0>        -0.1544
      18  C14         7.3180   36.5190   56.3660  C.3       1 <0>        -0.0836
      19  C15         5.9180   36.2150   56.9050  C.3       1 <0>        -0.1558
      20  C16         7.2340   37.6500   55.3390  C.3       1 <0>        -0.1489
      21  C17         8.1550   37.1040   60.3480  C.3       1 <0>         0.1783
      22  C18         8.9000   38.2480   59.6560  C.3       1 <0>        -0.1841
      23  C19         6.6470   37.3300   60.2260  C.3       1 <0>        -0.1916
      24  C20         8.5470   37.0620   61.8260  C.3       1 <0>        -0.1700
@<TRIPOS>BOND
     1     1     2 1
     2     2     3 1
     3     3     4 1
     4     4     5 1
     5     5     6 1
     6     6     7 1
     7     6    14 1
     8     7     8 2
     9     7     9 am
    10     9    10 1
    11    10    11 1
    12    10    12 1
    13    10    13 1
    14    14    15 am
    15    14    21 1
    16    15    16 2
    17    15    17 1
    18    17    18 1
    19    18    19 1
    20    18    20 1
    21    21    22 1
    22    21    23 1
    23    21    24 1

@<TRIPOS>MOLECULE
ZINC19984899_replica-1.pdb
 19 19 0 0 0
SMALL
GASTEIGER

@<TRIPOS>ATOM
       1  C1          5.3430   36.4320   55.9720  C.3       1 <0>        -0.1562
       2  C2          6.5190   37.4040   55.8430  C.3       1 <0>        -0.1208
       3  C3          7.7220   36.8510   56.6090  C.3       1 <0>        -0.0897
       4  C4          8.5930   36.0220   55.6620  C.3       1 <0>        -0.1518
       5  C5          8.5450   38.0110   57.1730  C.3       1 <0>        -0.1219
       6  C6          8.5230   37.9570   58.7020  C.3       1 <0>         0.1527
       7  C7          7.3150   38.7400   59.2210  C.3       1 <0>        -0.1393
       8  C8          6.3420   37.7780   59.9070  C.3       1 <0>        -0.1592
       9  N1          8.4260   36.5630   59.1400  N.pl3     1 <0>        -0.7511
      10  C9          9.3980   36.0290   59.9890  C.ar      1 <0>         0.2223
      11  C10         9.8260   34.7180   59.8180  C.ar      1 <0>        -0.2005
      12  C11        10.7900   34.1940   60.6560  C.ar      1 <0>        -0.0765
      13  C12        11.3220   34.9680   61.6700  C.ar      1 <0>        -0.1312
      14  C13        10.8950   36.2720   61.8460  C.ar      1 <0>        -0.0678
      15  C14         9.9350   36.8050   61.0090  C.ar      1 <0>        -0.1992
      16  C15        12.3710   34.3920   62.5860  C.3       1 <0>        -0.0217
      17  C16        13.7070   34.3110   61.8430  C.3       1 <0>        -0.1394
      18  C17        12.5240   35.2900   63.8150  C.3       1 <0>        -0.1450
      19  C18        11.9480   32.9900   63.0270  C.3       1 <0>        -0.1395
@<TRIPOS>BOND
     1     1     2 1
     2     2     3 1
     3     3     4 1
     4     3     5 1
     5     5     6 1
     6     6     7 1
     7     6     9 1
     8     7     8 1
     9     9    10 1
    10    10    15 ar
    11    10    11 ar
    12    11    12 ar
    13    12    13 ar
    14    13    14 ar
    15    13    16 1
    16    14    15 ar
    17    16    17 1
    18    16    18 1
    19    16    19 1

@<TRIPOS>MOLECULE
ZINC36995329_replica-1.pdb
 19 20 0 0 0
SMALL
GASTEIGER

@<TRIPOS>ATOM
       1  C1         -0.8480   25.0840   51.4620  C.3       1 <0>        -0.1442
       2  C2         -0.6940   26.6050   51.4870  C.3       1 <0>        -0.0496
       3  C3         -1.9660   27.2560   50.9410  C.3       1 <0>        -0.1439
       4  C4         -0.4620   27.0640   52.9040  C.ar      1 <0>        -0.1308
       5  C5          0.2810   26.2820   53.7690  C.ar      1 <0>        -0.0695
       6  C6          0.4960   26.6990   55.0680  C.ar      1 <0>        -0.1924
       7  C7         -0.0370   27.9050   55.5050  C.ar      1 <0>         0.2168
       8  C8         -0.7830   28.6880   54.6340  C.ar      1 <0>        -0.1469
       9  C9         -0.9880   28.2670   53.3340  C.ar      1 <0>        -0.0651
      10  C10        -1.3630   29.9960   55.1040  C.3       1 <0>        -0.0460
      11  C11        -0.5010   31.1510   54.5890  C.3       1 <0>        -0.1441
      12  C12        -2.7870   30.1450   54.5680  C.3       1 <0>        -0.1421
      13  N1          0.1780   28.3290   56.8190  N.pl3     1 <0>        -0.7433
      14  C13         0.3540   27.3430   57.8880  C.3       1 <0>         0.2095
      15  C14        -0.9880   26.7760   58.2730  C.2       1 <0>         0.0568
      16  C15        -2.0810   27.5090   58.7470  C.2       1 <0>        -0.2592
      17  C16        -3.0940   26.6420   58.9780  C.2       1 <0>         0.0594
      18  N2         -2.6580   25.4050   58.6590  N.pl3     1 <0>        -0.4724
      19  N3         -1.3340   25.5160   58.2150  N.2       1 <0>        -0.2751
@<TRIPOS>BOND
     1     1     2 1
     2     2     3 1
     3     2     4 1
     4     4     9 ar
     5     4     5 ar
     6     5     6 ar
     7     6     7 ar
     8     7     8 ar
     9     7    13 1
    10     8     9 ar
    11     8    10 1
    12    10    11 1
    13    10    12 1
    14    13    14 1
    15    14    15 1
    16    15    19 2
    17    15    16 1
    18    16    17 2
    19    17    18 1
    20    18    19 1

@<TRIPOS>MOLECULE
ZINC13415728_replica-1.pdb
 25 26 0 0 0
SMALL
GASTEIGER

@<TRIPOS>ATOM
       1  C1          7.4100   38.3090   56.9270  C.3       1 <0>        -0.1526
       2  C2          6.8100   36.9630   57.3390  C.3       1 <0>        -0.1400
       3  C3          7.6470   36.3540   58.4340  C.2       1 <0>         0.5425
       4  O1          7.2570   35.3660   59.0190  O.2       1 <0>        -0.4938
       5  N1          8.8310   36.9090   58.7650  N.am      1 <0>        -0.6673
       6  C4          9.6590   36.2830   59.7030  C.ar      1 <0>         0.1430
       7  C5          9.9550   36.9170   60.9020  C.ar      1 <0>        -0.1164
       8  C6         10.7730   36.2960   61.8260  C.ar      1 <0>        -0.0946
       9  C7         11.2960   35.0450   61.5580  C.ar      1 <0>        -0.0852
      10  C8         11.0030   34.4110   60.3640  C.ar      1 <0>        -0.1024
      11  C9         10.1860   35.0270   59.4360  C.ar      1 <0>        -0.1416
      12  C10        12.1890   34.3700   62.5670  C.3       1 <0>        -0.0283
      13  C11        11.6120   32.9970   62.9200  C.3       1 <0>        -0.1388
      14  C12        13.5890   34.1970   61.9750  C.3       1 <0>        -0.1445
      15  C13        12.2710   35.2290   63.8310  C.3       1 <0>        -0.1400
      16  S1          6.7850   35.8510   55.9110  S.3       1 <0>         0.1161
      17  C14         5.1410   35.2280   56.0390  C.2       1 <0>         0.0353
      18  N2          4.0500   35.8470   56.4510  N.2       1 <0>        -0.4352
      19  C15         2.8850   35.2270   56.4840  C.2       1 <0>         0.1191
      20  C16         2.8300   33.9330   56.0840  C.2       1 <0>        -0.2246
      21  S2          4.5400   33.6470   55.6500  S.3       1 <0>         0.0045
      22  C17         1.6450   35.9410   56.9540  C.3       1 <0>        -0.1014
      23  C18         1.1180   35.2670   58.1950  C.2       1 <0>         0.4681
      24  O2          1.6210   35.4970   59.2690  O.co2     1 <0>        -0.6197
      25  O3          0.0880   34.4100   58.1070  O.co2     1 <0>        -0.7747
@<TRIPOS>BOND
     1     1     2 1
     2     2     3 1
     3     2    16 1
     4     3     4 2
     5     3     5 am
     6     5     6 1
     7     6    11 ar
     8     6     7 ar
     9     7     8 ar
    10     8     9 ar
    11     9    10 ar
    12     9    12 1
    13    10    11 ar
    14    12    13 1
    15    12    14 1
    16    12    15 1
    17    16    17 1
    18    17    21 1
    19    17    18 2
    20    18    19 1
    21    19    20 2
    22    19    22 1
    23    20    21 1
    24    22    23 1
    25    23    24 2
    26    23    25 1

@<TRIPOS>MOLECULE
ZINC57456175_replica-1.pdb
 25 26 0 0 0
SMALL
GASTEIGER

@<TRIPOS>ATOM
       1  C1         15.2390   33.7370   64.1760  C.3       1 <0>        -0.1524
       2  C2         14.5310   33.1860   62.9370  C.3       1 <0>        -0.1328
       3  C3         13.0170   33.2760   63.1330  C.3       1 <0>         0.1484
       4  C4         12.3710   31.9470   62.7330  C.3       1 <0>        -0.1051
       5  C5         12.8720   30.8370   63.6590  C.3       1 <0>        -0.1471
       6  C6         10.8500   32.0630   62.8500  C.3       1 <0>        -0.1397
       7  N1         12.4790   34.3510   62.2960  N.am      1 <0>        -0.7360
       8  C7         12.0600   35.5000   62.8630  C.2       1 <0>         0.5074
       9  O1         12.1290   35.6440   64.0650  O.2       1 <0>        -0.5129
      10  C8         11.5080   36.6070   62.0020  C.3       1 <0>        -0.0773
      11  C9         10.3300   36.0920   61.2160  C.ar      1 <0>        -0.1812
      12  C10         9.0500   36.5000   61.5450  C.ar      1 <0>        -0.0607
      13  C11         7.9690   36.0290   60.8260  C.ar      1 <0>        -0.1813
      14  C12         8.1680   35.1460   59.7730  C.ar      1 <0>         0.2826
      15  C13         9.4550   34.7390   59.4450  C.ar      1 <0>        -0.2639
      16  C14        10.5330   35.2180   60.1640  C.ar      1 <0>        -0.0468
      17  N2          7.0750   34.6680   59.0440  N.2       1 <0>        -1.0876
      18  S1          6.6720   35.3720   57.6000  S.o2      1 <0>         2.6289
      19  O2          7.2900   36.6520   57.5860  O.2       1 <0>        -1.0210
      20  O3          6.9130   34.3990   56.5930  O.2       1 <0>        -1.0229
      21  C15         4.9330   35.6520   57.6250  C.2       1 <0>        -0.6644
      22  C16         4.1040   35.7810   58.6900  C.2       1 <0>        -0.0472
      23  C17         2.7580   36.0000   58.4690  C.2       1 <0>        -0.1796
      24  C18         2.3060   36.0800   57.1930  C.2       1 <0>        -0.1707
      25  S2          3.8060   35.8480   56.2540  S.3       1 <0>         0.1377
@<TRIPOS>BOND
     1     1     2 1
     2     2     3 1
     3     3     4 1
     4     3     7 1
     5     4     5 1
     6     4     6 1
     7     7     8 am
     8     8     9 2
     9     8    10 1
    10    10    11 1
    11    11    16 ar
    12    11    12 ar
    13    12    13 ar
    14    13    14 ar
    15    14    15 ar
    16    14    17 1
    17    15    16 ar
    18    17    18 1
    19    18    19 2
    20    18    20 2
    21    18    21 1
    22    21    25 1
    23    21    22 2
    24    22    23 1
    25    23    24 2
    26    24    25 1

@<TRIPOS>MOLECULE
ZINC37151917_replica-1.pdb
 20 21 0 0 0
SMALL
GASTEIGER

@<TRIPOS>ATOM
       1  C1          8.6100   38.7230   56.9670  C.3       1 <0>        -0.0711
       2  C2          7.6390   37.5830   56.7990  C.2       1 <0>         0.2379
       3  N1          6.7040   37.5070   55.8920  N.2       1 <0>        -0.4923
       4  C3          6.0330   36.3550   56.0420  C.2       1 <0>        -0.0137
       5  C4          6.5680   35.6880   57.0810  C.2       1 <0>        -0.0636
       6  N2          7.5940   36.4610   57.5630  N.pl3     1 <0>        -0.4011
       7  C5          8.4340   36.1530   58.6400  C.ar      1 <0>         0.2788
       8  C6          9.4490   35.2180   58.4740  C.ar      1 <0>        -0.1225
       9  C7         10.2740   34.9200   59.5430  C.ar      1 <0>        -0.1301
      10  C8         10.0520   35.5740   60.7540  C.ar      1 <0>         0.1668
      11  C9          9.0180   36.4950   60.8450  C.ar      1 <0>         0.0559
      12  N3          8.2550   36.7580   59.8030  N.ar      1 <0>        -0.4522
      13  N4         10.8600   35.3040   61.8630  N.pl3     1 <0>        -0.7283
      14  C10        11.7210   34.1190   61.8700  C.3       1 <0>         0.1440
      15  C11        10.8800   32.8800   62.1820  C.3       1 <0>        -0.1722
      16  C12        12.8050   34.2820   62.9370  C.3       1 <0>        -0.1286
      17  C13        14.1710   33.9570   62.3300  C.3       1 <0>        -0.1142
      18  C14        14.9510   33.0500   63.2840  C.3       1 <0>        -0.0977
      19  C15        15.4030   33.8590   64.5010  C.3       1 <0>        -0.1509
      20  C16        14.0530   31.8990   63.7410  C.3       1 <0>        -0.1494
@<TRIPOS>BOND
     1     1     2 1
     2     2     6 1
     3     2     3 2
     4     3     4 1
     5     4     5 2
     6     5     6 1
     7     6     7 1
     8     7    12 ar
     9     7     8 ar
    10     8     9 ar
    11     9    10 ar
    12    10    11 ar
    13    10    13 1
    14    11    12 ar
    15    13    14 1
    16    14    15 1
    17    14    16 1
    18    16    17 1
    19    17    18 1
    20    18    19 1
    21    18    20 1

@<TRIPOS>MOLECULE
ZINC57244173_replica-1.pdb
 24 26 0 0 0
SMALL
GASTEIGER

@<TRIPOS>ATOM
       1  C1          0.5490   34.3610   58.8940  C.3       1 <0>        -0.1425
       2  C2          0.3080   34.0620   57.4120  C.3       1 <0>        -0.1300
       3  C3          1.2290   32.9260   56.9640  C.3       1 <0>         0.2528
       4  C4          2.5280   33.4990   56.4620  C.2       1 <0>        -0.1575
       5  C5          2.7570   34.6800   55.8380  C.2       1 <0>        -0.1418
       6  C6          4.0470   35.0010   55.4630  C.2       1 <0>        -0.1559
       7  C7          5.0470   34.1260   55.7290  C.2       1 <0>        -0.1665
       8  S1          4.1700   32.8000   56.5410  S.3       1 <0>         0.0367
       9  N1          0.5810   32.1680   55.8910  N.am      1 <0>        -0.7390
      10  C8          0.5160   30.8230   55.9580  C.2       1 <0>         0.7120
      11  O1          0.9940   30.2390   56.9110  O.2       1 <0>        -0.5735
      12  N2         -0.0800   30.1270   54.9700  N.am      1 <0>        -0.7383
      13  C9         -0.1510   28.6650   55.0440  C.3       1 <0>         0.2960
      14  C10        -0.6080   28.1180   53.7170  C.ar      1 <0>        -0.1001
      15  C11        -1.4350   28.8710   52.9050  C.ar      1 <0>        -0.1046
      16  C12        -1.8550   28.3680   51.6880  C.ar      1 <0>        -0.1163
      17  C13        -1.4470   27.1110   51.2820  C.ar      1 <0>        -0.1117
      18  C14        -0.6190   26.3570   52.0930  C.ar      1 <0>        -0.1157
      19  C15        -0.1960   26.8620   53.3080  C.ar      1 <0>        -0.0985
      20  C16        -1.1280   28.2640   56.1170  C.2       1 <0>        -0.0206
      21  C17        -2.3870   28.7210   56.2460  C.2       1 <0>        -0.1904
      22  C18        -2.9410   28.0840   57.3810  C.2       1 <0>        -0.2116
      23  C19        -1.9870   27.2770   57.8780  C.2       1 <0>        -0.0408
      24  O2         -0.8930   27.3860   57.1050  O.3       1 <0>        -0.1691
@<TRIPOS>BOND
     1     1     2 1
     2     2     3 1
     3     3     4 1
     4     3     9 1
     5     4     8 1
     6     4     5 2
     7     5     6 1
     8     6     7 2
     9     7     8 1
    10     9    10 am
    11    10    11 2
    12    10    12 am
    13    12    13 1
    14    13    14 1
    15    13    20 1
    16    14    19 ar
    17    14    15 ar
    18    15    16 ar
    19    16    17 ar
    20    17    18 ar
    21    18    19 ar
    22    20    24 1
    23    20    21 2
    24    21    22 1
    25    22    23 2
    26    23    24 1

@<TRIPOS>MOLECULE
ZINC44215606_replica-1.pdb
 19 20 0 0 0
SMALL
GASTEIGER

@<TRIPOS>ATOM
       1  C1          4.9170   34.3670   54.1260  C.3       1 <0>        -0.1542
       2  C2          3.9870   35.3680   54.8140  C.3       1 <0>        -0.1173
       3  C3          4.0130   35.1330   56.3250  C.3       1 <0>        -0.0809
       4  C4          3.0450   36.1020   57.0080  C.3       1 <0>        -0.1117
       5  C5          3.0700   35.8660   58.5210  C.3       1 <0>        -0.1198
       6  C6          4.4860   36.1010   59.0500  C.3       1 <0>        -0.1136
       7  C7          5.4530   35.1330   58.3660  C.3       1 <0>        -0.1418
       8  C8          5.4290   35.3680   56.8550  C.3       1 <0>         0.0944
       9  O1          5.8240   36.7130   56.5760  O.3       1 <0>        -0.3608
      10  C9          7.2080   36.8550   56.2510  C.3       1 <0>         0.0359
      11  C10         7.8670   37.8210   57.2370  C.3       1 <0>         0.1554
      12  C11         8.6420   37.0380   58.2650  C.ar      1 <0>        -0.1256
      13  C12         8.9410   37.6090   59.4880  C.ar      1 <0>        -0.1057
      14  C13         9.6530   36.8920   60.4320  C.ar      1 <0>        -0.1176
      15  C14        10.0660   35.6030   60.1520  C.ar      1 <0>        -0.0819
      16  C15         9.7660   35.0310   58.9300  C.ar      1 <0>        -0.1183
      17  C16         9.0510   35.7470   57.9880  C.ar      1 <0>        -0.1027
      18  C17        10.8410   34.8210   61.1800  C.3       1 <0>        -0.1180
      19  O2          8.7560   38.6900   56.5320  O.3       1 <0>        -0.5436
@<TRIPOS>BOND
     1     1     2 1
     2     2     3 1
     3     3     8 1
     4     3     4 1
     5     4     5 1
     6     5     6 1
     7     6     7 1
     8     7     8 1
     9     8     9 1
    10     9    10 1
    11    10    11 1
    12    11    12 1
    13    11    19 1
    14    12    17 ar
    15    12    13 ar
    16    13    14 ar
    17    14    15 ar
    18    15    16 ar
    19    15    18 1
    20    16    17 ar

@<TRIPOS>MOLECULE
ZINC22229813_replica-1.pdb
 24 25 0 0 0
SMALL
GASTEIGER

@<TRIPOS>ATOM
       1  C1          2.4250   32.9130   59.8930  C.3       1 <0>        -0.1099
       2  C2          2.5180   32.9190   58.3880  C.2       1 <0>         0.1940
       3  C3          1.5690   32.2790   57.6450  C.2       1 <0>        -0.2637
       4  C4          1.6760   32.2980   56.2420  C.2       1 <0>         0.5332
       5  O1          0.8450   31.7370   55.5470  O.2       1 <0>        -0.5273
       6  N1          2.7160   32.9510   55.6810  N.am      1 <0>        -0.6155
       7  C5          3.6330   33.5720   56.4740  C.2       1 <0>         0.3681
       8  N2          3.5210   33.5530   57.7880  N.2       1 <0>        -0.5397
       9  S1          4.9870   34.4210   55.7310  S.3       1 <0>        -0.0103
      10  C6          4.3950   34.8190   54.0640  C.3       1 <0>        -0.1309
      11  C7          0.4250   31.5620   58.3140  C.3       1 <0>        -0.0347
      12  C8          0.8000   30.0940   58.5320  C.3       1 <0>        -0.1336
      13  C9         -0.0890   29.2190   57.6860  C.2       1 <0>         0.5148
      14  O2         -1.1940   28.9150   58.0800  O.2       1 <0>        -0.5357
      15  N3          0.3460   28.7750   56.4900  N.am      1 <0>        -0.7329
      16  C10        -0.5170   27.9250   55.6670  C.3       1 <0>         0.1270
      17  C11         0.3440   27.1140   54.6950  C.3       1 <0>        -0.0622
      18  C12         0.5800   25.7150   55.2670  C.3       1 <0>        -0.1464
      19  C13        -0.3660   27.0020   53.3690  C.ar      1 <0>        -0.0787
      20  C14        -0.3530   25.8050   52.6790  C.ar      1 <0>        -0.1123
      21  C15        -1.0030   25.7010   51.4630  C.ar      1 <0>        -0.1171
      22  C16        -1.6660   26.7950   50.9390  C.ar      1 <0>        -0.1210
      23  C17        -1.6800   27.9930   51.6300  C.ar      1 <0>        -0.1183
      24  C18        -1.0330   28.0940   52.8480  C.ar      1 <0>        -0.1141
@<TRIPOS>BOND
     1     1     2 1
     2     2     8 1
     3     2     3 2
     4     3     4 1
     5     3    11 1
     6     4     5 2
     7     4     6 am
     8     6     7 1
     9     7     8 2
    10     7     9 1
    11     9    10 1
    12    11    12 1
    13    12    13 1
    14    13    14 2
    15    13    15 am
    16    15    16 1
    17    16    17 1
    18    17    18 1
    19    17    19 1
    20    19    24 ar
    21    19    20 ar
    22    20    21 ar
    23    21    22 ar
    24    22    23 ar
    25    23    24 ar

@<TRIPOS>MOLECULE
ZINC57602949_replica-1.pdb
 20 21 0 0 0
SMALL
GASTEIGER

@<TRIPOS>ATOM
       1  C1         13.3620   31.3000   63.4540  C.3       1 <0>        -0.1452
       2  C2         13.3140   32.8290   63.4350  C.3       1 <0>        -0.0528
       3  C3         14.6340   33.3740   62.8850  C.3       1 <0>        -0.1449
       4  C4         12.1770   33.2870   62.5590  C.ar      1 <0>        -0.1210
       5  C5         12.2180   34.5410   61.9760  C.ar      1 <0>        -0.0663
       6  C6         11.1780   34.9650   61.1720  C.ar      1 <0>        -0.1782
       7  C7         10.0910   34.1290   60.9470  C.ar      1 <0>         0.1976
       8  C8         10.0550   32.8700   61.5320  C.ar      1 <0>        -0.1944
       9  C9         11.1000   32.4510   62.3320  C.ar      1 <0>        -0.0685
      10  N1          9.0380   34.5540   60.1340  N.pl3     1 <0>        -0.7355
      11  C10         9.2740   34.8340   58.7160  C.3       1 <0>         0.2485
      12  C11         8.4370   33.8790   57.8620  C.3       1 <0>        -0.0403
      13  N2          7.3330   33.3460   58.6650  N.pl3     1 <0>        -0.0041
      14  O1          7.4120   32.2370   59.1400  O.2       1 <0>        -0.1579
      15  O2          6.3440   34.0160   58.8520  O.3       1 <0>        -0.1546
      16  C12         8.8810   36.2560   58.4110  C.2       1 <0>        -0.2053
      17  C13         8.9080   37.3430   59.2210  C.2       1 <0>        -0.1142
      18  C14         8.4960   38.5630   58.7200  C.2       1 <0>        -0.1611
      19  C15         8.0760   38.6370   57.4340  C.2       1 <0>        -0.1490
      20  S1          8.2650   36.9490   56.8850  S.3       1 <0>         0.0535
@<TRIPOS>BOND
     1     1     2 1
     2     2     3 1
     3     2     4 1
     4     4     9 ar
     5     4     5 ar
     6     5     6 ar
     7     6     7 ar
     8     7     8 ar
     9     7    10 1
    10     8     9 ar
    11    10    11 1
    12    11    12 1
    13    11    16 1
    14    12    13 1
    15    13    14 2
    16    13    15 1
    17    16    20 1
    18    16    17 2
    19    17    18 1
    20    18    19 2
    21    19    20 1

@<TRIPOS>MOLECULE
ZINC49855476_replica-1.pdb
 19 20 0 0 0
SMALL
GASTEIGER

@<TRIPOS>ATOM
       1  C1         -1.5880   29.3500   57.4640  C.3       1 <0>        -0.1788
       2  C2         -0.2130   28.8600   57.0060  C.3       1 <0>         0.0819
       3  C3         -0.3190   28.2950   55.6130  C.ar      1 <0>        -0.1519
       4  C4          0.3830   27.1530   55.2750  C.ar      1 <0>        -0.1167
       5  C5          0.2850   26.6340   53.9980  C.ar      1 <0>        -0.1056
       6  C6         -0.5140   27.2580   53.0580  C.ar      1 <0>        -0.0420
       7  C7         -1.2170   28.4000   53.3960  C.ar      1 <0>        -0.1033
       8  C8         -1.1220   28.9160   54.6750  C.ar      1 <0>        -0.0835
       9  C9         -0.6190   26.6940   51.6640  C.3       1 <0>        -0.0667
      10  C10        -0.8050   25.1770   51.7410  C.3       1 <0>        -0.1479
      11  C11        -1.8180   27.3200   50.9510  C.3       1 <0>        -0.1483
      12  N1          0.7340   29.9830   57.0080  N.4       1 <0>        -0.5055
      13  C12        -0.0070   31.2470   57.1210  C.3       1 <0>        -0.0021
      14  C13         0.7010   32.1660   58.1190  C.3       1 <0>         0.0630
      15  C14         0.0380   33.5460   58.1030  C.3       1 <0>        -0.1472
      16  C15         0.7130   34.4410   59.1460  C.3       1 <0>        -0.1255
      17  C16         0.6190   33.7670   60.5190  C.3       1 <0>        -0.1624
      18  C17         1.2600   32.3790   60.4410  C.3       1 <0>         0.0652
      19  O1          0.6060   31.6080   59.4310  O.3       1 <0>        -0.3926
@<TRIPOS>BOND
     1     1     2 1
     2     2     3 1
     3     2    12 1
     4     3     8 ar
     5     3     4 ar
     6     4     5 ar
     7     5     6 ar
     8     6     7 ar
     9     6     9 1
    10     7     8 ar
    11     9    10 1
    12     9    11 1
    13    12    13 1
    14    13    14 1
    15    14    19 1
    16    14    15 1
    17    15    16 1
    18    16    17 1
    19    17    18 1
    20    18    19 1

@<TRIPOS>MOLECULE
ZINC37119246_replica-1.pdb
 18 18 0 0 0
SMALL
GASTEIGER

@<TRIPOS>ATOM
       1  C1         -2.7660   28.5690   56.7770  C.3       1 <0>        -0.1549
       2  C2         -1.6720   28.7330   57.8340  C.3       1 <0>        -0.1181
       3  C3         -0.3100   28.4260   57.2100  C.3       1 <0>        -0.0973
       4  C4          0.6770   28.0260   58.3070  C.3       1 <0>        -0.1558
       5  C5         -0.4550   27.2760   56.2100  C.3       1 <0>         0.1381
       6  C6          0.1150   25.9950   56.8220  C.3       1 <0>        -0.1750
       7  N1          0.2780   27.6000   54.9830  N.pl3     1 <0>        -0.7119
       8  C7         -0.2630   27.2770   53.7460  C.ar      1 <0>         0.3136
       9  C8         -0.0670   26.0130   53.2070  C.ar      1 <0>        -0.2566
      10  C9         -0.6070   25.6940   51.9750  C.ar      1 <0>         0.1907
      11  C10        -1.3480   26.6330   51.2690  C.ar      1 <0>        -0.2327
      12  C11        -1.5530   27.8910   51.7880  C.ar      1 <0>         0.0208
      13  C12        -1.0180   28.2260   53.0370  C.ar      1 <0>        -0.2370
      14  C13        -1.2380   29.5690   53.6000  C.2       1 <0>         0.5242
      15  O1         -2.3430   30.0720   53.5550  O.2       1 <0>        -0.5235
      16  O2         -0.2130   30.2390   54.1640  O.3       1 <0>        -0.3465
      17  C14        -0.5470   31.3510   54.9960  C.3       1 <0>         0.0342
      18  F1         -0.4130   24.4630   51.4540  F         1 <0>        -0.1304
@<TRIPOS>BOND
     1     1     2 1
     2     2     3 1
     3     3     4 1
     4     3     5 1
     5     5     6 1
     6     5     7 1
     7     7     8 1
     8     8    13 ar
     9     8     9 ar
    10     9    10 ar
    11    10    11 ar
    12    10    18 1
    13    11    12 ar
    14    12    13 ar
    15    13    14 1
    16    14    15 2
    17    14    16 1
    18    16    17 1

@<TRIPOS>MOLECULE
ZINC57568123_replica-1.pdb
 20 20 0 0 0
SMALL
GASTEIGER

@<TRIPOS>ATOM
       1  C1         15.7470   34.1610   64.8620  C.3       1 <0>        -0.1614
       2  C2         14.9200   33.2590   63.9420  C.3       1 <0>         0.1352
       3  C3         14.6890   31.9090   64.6240  C.3       1 <0>        -0.1654
       4  N1         13.6300   33.8950   63.6670  N.am      1 <0>        -0.7262
       5  C4         13.3640   34.3750   62.4360  C.2       1 <0>         0.5095
       6  O1         14.1930   34.2800   61.5560  O.2       1 <0>        -0.5319
       7  C5         12.0360   35.0290   62.1520  C.3       1 <0>        -0.1337
       8  C6         11.3230   34.2710   61.0300  C.3       1 <0>         0.0711
       9  C7         10.5280   33.1740   61.6070  C.1       1 <0>         0.2160
      10  N2          9.9150   32.3280   62.0510  N.1       1 <0>        -0.4223
      11  C8         10.4140   35.2140   60.2860  C.ar      1 <0>        -0.0962
      12  C9         10.0850   36.4380   60.8390  C.ar      1 <0>        -0.1025
      13  C10         9.2500   37.3030   60.1580  C.ar      1 <0>        -0.1125
      14  C11         8.7440   36.9450   58.9220  C.ar      1 <0>        -0.0601
      15  C12         9.0720   35.7220   58.3690  C.ar      1 <0>        -0.1189
      16  C13         9.9110   34.8590   59.0490  C.ar      1 <0>        -0.0975
      17  C14         7.8330   37.8870   58.1790  C.3       1 <0>        -0.0325
      18  C15         7.1860   38.8580   59.1690  C.3       1 <0>        -0.1391
      19  C16         8.6430   38.6750   57.1480  C.3       1 <0>        -0.1462
      20  C17         6.7420   37.0860   57.4650  C.3       1 <0>        -0.1405
@<TRIPOS>BOND
     1     1     2 1
     2     2     3 1
     3     2     4 1
     4     4     5 am
     5     5     6 2
     6     5     7 1
     7     7     8 1
     8     8     9 1
     9     8    11 1
    10     9    10 3
    11    11    16 ar
    12    11    12 ar
    13    12    13 ar
    14    13    14 ar
    15    14    15 ar
    16    14    17 1
    17    15    16 ar
    18    17    18 1
    19    17    19 1
    20    17    20 1

@<TRIPOS>MOLECULE
ZINC65655588_replica-1.pdb
 25 26 0 0 0
SMALL
GASTEIGER

@<TRIPOS>ATOM
       1  C1          5.3090   34.4670   54.9740  C.3       1 <0>        -0.1626
       2  C2          5.4600   35.7910   55.7250  C.3       1 <0>         0.1762
       3  C3          6.9190   36.1610   55.8050  C.2       1 <0>         0.4633
       4  O1          7.5570   36.3240   54.7930  O.2       1 <0>        -0.4903
       5  O2          7.5070   36.3100   57.0020  O.3       1 <0>        -0.3266
       6  C4          8.5220   35.3650   57.3480  C.3       1 <0>         0.2234
       7  C5          9.1400   35.7510   58.6670  C.ar      1 <0>        -0.1008
       8  C6          9.9980   34.8790   59.3100  C.ar      1 <0>        -0.0828
       9  C7         10.5660   35.2330   60.5200  C.ar      1 <0>        -0.1215
      10  C8         10.2750   36.4600   61.0870  C.ar      1 <0>        -0.1064
      11  C9          9.4180   37.3330   60.4430  C.ar      1 <0>        -0.1200
      12  C10         8.8540   36.9800   59.2320  C.ar      1 <0>        -0.0979
      13  C11         7.9120   33.9920   57.4630  C.2       1 <0>        -0.0408
      14  C12         8.3000   32.8990   56.7800  C.2       1 <0>        -0.1813
      15  C13         7.4620   31.8390   57.1950  C.2       1 <0>        -0.2139
      16  C14         6.6120   32.3470   58.1060  C.2       1 <0>        -0.0309
      17  O3          6.8930   33.6490   58.2680  O.3       1 <0>        -0.1635
      18  N1          4.9170   35.6490   57.0790  N.am      1 <0>        -0.7018
      19  C15         3.6310   35.9700   57.3270  C.2       1 <0>         0.6598
      20  O4          2.9230   36.3770   56.4270  O.2       1 <0>        -0.5606
      21  O5          3.1330   35.8400   58.5700  O.3       1 <0>        -0.3536
      22  C16         2.6460   34.5500   58.9430  C.3       1 <0>         0.1341
      23  C17         3.5530   33.9540   60.0230  C.3       1 <0>        -0.1865
      24  C18         1.2230   34.6790   59.4880  C.3       1 <0>        -0.1413
      25  C19         2.6420   33.6330   57.7180  C.3       1 <0>        -0.1871
@<TRIPOS>BOND
     1     1     2 1
     2     2     3 1
     3     2    18 1
     4     3     4 2
     5     3     5 1
     6     5     6 1
     7     6     7 1
     8     6    13 1
     9     7    12 ar
    10     7     8 ar
    11     8     9 ar
    12     9    10 ar
    13    10    11 ar
    14    11    12 ar
    15    13    17 1
    16    13    14 2
    17    14    15 1
    18    15    16 2
    19    16    17 1
    20    18    19 am
    21    19    20 2
    22    19    21 1
    23    21    22 1
    24    22    23 1
    25    22    24 1
    26    22    25 1

@<TRIPOS>MOLECULE
ZINC02438405_replica-1.pdb
 24 27 0 0 0
SMALL
GASTEIGER

@<TRIPOS>ATOM
       1  C1          2.2840   35.9500   58.1150  C.3       1 <0>        -0.1163
       2  C2          3.6540   35.7970   57.5050  C.ar      1 <0>        -0.0730
       3  C3          3.8760   36.1930   56.1980  C.ar      1 <0>        -0.0968
       4  C4          5.1310   36.0560   55.6340  C.ar      1 <0>        -0.1024
       5  C5          6.1680   35.5270   56.3770  C.ar      1 <0>        -0.0913
       6  C6          5.9480   35.1230   57.6870  C.ar      1 <0>         0.0960
       7  C7          4.6860   35.2640   58.2510  C.ar      1 <0>        -0.0864
       8  N1          6.9970   34.5840   58.4420  N.am      1 <0>        -0.4807
       9  C8          7.7550   35.3930   59.1630  C.2       1 <0>         0.5448
      10  O1          7.5670   36.5930   59.1900  O.2       1 <0>        -0.4404
      11  C9          8.8480   34.7570   59.9380  C.2       1 <0>        -0.1956
      12  C10         9.7720   35.3240   60.7560  C.2       1 <0>         0.0822
      13  C11        10.7690   34.4870   61.4250  C.2       1 <0>         0.2687
      14  N2         10.5440   33.2230   61.9130  N.pl3     1 <0>        -0.5840
      15  C12        11.7320   32.7840   62.4600  C.ar      1 <0>         0.0696
      16  C13        12.1250   31.6110   63.0910  C.ar      1 <0>        -0.1181
      17  C14        13.4210   31.4800   63.5430  C.ar      1 <0>        -0.0835
      18  C15        14.3360   32.5110   63.3710  C.ar      1 <0>        -0.1259
      19  C16        13.9690   33.6720   62.7550  C.ar      1 <0>        -0.0534
      20  C17        12.6580   33.8300   62.2860  C.ar      1 <0>         0.0483
      21  N3         12.0170   34.8310   61.6540  N.2       1 <0>        -0.4475
      22  S1          8.6100   33.0400   59.5050  S.3       1 <0>         0.1649
      23  C18         7.2110   33.2530   58.4160  C.2       1 <0>         0.2434
      24  S2          6.3440   32.0550   57.5540  S.2       1 <0>        -0.3078
@<TRIPOS>BOND
     1     1     2 1
     2     2     7 ar
     3     2     3 ar
     4     3     4 ar
     5     4     5 ar
     6     5     6 ar
     7     6     7 ar
     8     6     8 1
     9     8    23 1
    10     8     9 am
    11     9    10 2
    12     9    11 1
    13    11    12 2
    14    11    22 1
    15    12    13 1
    16    13    21 2
    17    13    14 1
    18    14    15 1
    19    15    20 ar
    20    15    16 ar
    21    16    17 ar
    22    17    18 ar
    23    18    19 ar
    24    19    20 ar
    25    20    21 1
    26    22    23 1
    27    23    24 2

@<TRIPOS>MOLECULE
ZINC30882721_replica-1.pdb
 25 26 0 0 0
SMALL
GASTEIGER

@<TRIPOS>ATOM
       1  C1          8.1580   32.4630   56.8640  C.3       1 <0>        -0.1223
       2  C2          8.0090   33.9500   57.0600  C.2       1 <0>        -0.1289
       3  C3          7.1520   34.5760   56.3180  C.2       1 <0>        -0.1386
       4  C4          6.9000   36.0540   56.3900  C.3       1 <0>        -0.0558
       5  C5          7.4520   36.6200   57.7000  C.3       1 <0>        -0.0762
       6  C6          8.8930   36.1240   57.8680  C.3       1 <0>        -0.1125
       7  C7          8.8620   34.6120   58.1010  C.3       1 <0>        -0.0308
       8  C8          8.2860   34.3240   59.4880  C.3       1 <0>        -0.1326
       9  C9          9.1750   34.9380   60.5390  C.2       1 <0>         0.5171
      10  O1          8.7610   35.8420   61.2310  O.2       1 <0>        -0.5349
      11  N1         10.4330   34.4810   60.7070  N.am      1 <0>        -0.7422
      12  C10        11.2970   35.0770   61.7280  C.3       1 <0>         0.1621
      13  C11        12.2020   34.0180   62.3010  C.ar      1 <0>        -0.0483
      14  C12        13.5660   34.2310   62.3560  C.ar      1 <0>        -0.1465
      15  C13        14.4000   33.2600   62.8870  C.ar      1 <0>         0.1329
      16  C14        13.8650   32.0700   63.3530  C.ar      1 <0>        -0.1856
      17  C15        12.4990   31.8560   63.2920  C.ar      1 <0>         0.1330
      18  C16        11.6680   32.8300   62.7650  C.ar      1 <0>        -0.1466
      19  F1         11.9770   30.6950   63.7460  F         1 <0>        -0.1271
      20  F2         15.7320   33.4710   62.9460  F         1 <0>        -0.1271
      21  C17         7.4360   38.1490   57.6460  C.3       1 <0>        -0.0935
      22  C18         7.4060   38.7090   59.0690  C.3       1 <0>        -0.1499
      23  C19         8.6910   38.6470   56.9280  C.3       1 <0>        -0.1548
      24  C20         5.3930   36.3150   56.3200  C.3       1 <0>         0.0936
      25  O2          4.7710   35.8330   57.5140  O.3       1 <0>        -0.6014
@<TRIPOS>BOND
     1     1     2 1
     2     2     7 1
     3     2     3 2
     4     3     4 1
     5     4     5 1
     6     4    24 1
     7     5     6 1
     8     5    21 1
     9     6     7 1
    10     7     8 1
    11     8     9 1
    12     9    10 2
    13     9    11 am
    14    11    12 1
    15    12    13 1
    16    13    18 ar
    17    13    14 ar
    18    14    15 ar
    19    15    16 ar
    20    15    20 1
    21    16    17 ar
    22    17    18 ar
    23    17    19 1
    24    21    22 1
    25    21    23 1
    26    24    25 1

@<TRIPOS>MOLECULE
ZINC37354878_replica-1.pdb
 20 20 0 0 0
SMALL
GASTEIGER

@<TRIPOS>ATOM
       1  C1         14.2850   33.2080   63.0240  C.3       1 <0>        -0.1553
       2  C2         13.4810   34.1480   62.1230  C.3       1 <0>        -0.1166
       3  C3         12.0200   34.1610   62.5760  C.3       1 <0>        -0.0587
       4  C4         11.4910   32.7270   62.6370  C.3       1 <0>        -0.1472
       5  C5         11.1970   34.9580   61.5950  C.ar      1 <0>        -0.0431
       6  C6         10.8580   34.4050   60.3730  C.ar      1 <0>        -0.1280
       7  C7         10.1060   35.1270   59.4710  C.ar      1 <0>        -0.0588
       8  C8          9.6870   36.4210   59.7930  C.ar      1 <0>        -0.1771
       9  C9         10.0340   36.9730   61.0300  C.ar      1 <0>        -0.0698
      10  C10        10.7820   36.2360   61.9240  C.ar      1 <0>        -0.1319
      11  C11         8.8850   37.2000   58.8350  C.2       1 <0>         0.3960
      12  O1          8.5480   38.3320   59.1060  O.2       1 <0>        -0.4472
      13  C12         8.4830   36.5890   57.5170  C.3       1 <0>        -0.1630
      14  C13         7.3520   35.5840   57.7450  C.3       1 <0>        -0.0836
      15  C14         7.2670   34.6310   56.5520  C.3       1 <0>        -0.1729
      16  C15         6.0270   36.3350   57.8950  C.3       1 <0>        -0.1053
      17  C16         5.4200   36.0300   59.2660  C.3       1 <0>        -0.0683
      18  C17         6.2220   34.9150   59.9410  C.3       1 <0>        -0.1456
      19  C18         5.4660   37.2880   60.1350  C.3       1 <0>        -0.1422
      20  C19         3.9680   35.5820   59.0950  C.3       1 <0>        -0.1491
@<TRIPOS>BOND
     1     1     2 1
     2     2     3 1
     3     3     4 1
     4     3     5 1
     5     5    10 ar
     6     5     6 ar
     7     6     7 ar
     8     7     8 ar
     9     8     9 ar
    10     8    11 1
    11     9    10 ar
    12    11    12 2
    13    11    13 1
    14    13    14 1
    15    14    15 1
    16    14    16 1
    17    16    17 1
    18    17    18 1
    19    17    19 1
    20    17    20 1

@<TRIPOS>MOLECULE
ZINC37102316_replica-1.pdb
 21 23 0 0 0
SMALL
GASTEIGER

@<TRIPOS>ATOM
       1  C1         12.6130   30.4560   63.3210  C.3       1 <0>        -0.1475
       2  C2         13.1660   31.8490   63.0120  C.3       1 <0>        -0.0922
       3  C3         12.0230   32.8670   63.0350  C.3       1 <0>        -0.1283
       4  C4         12.5760   34.2600   62.7270  C.3       1 <0>         0.1553
       5  C5         13.6190   34.6400   63.7790  C.3       1 <0>        -0.1143
       6  C6         14.7610   33.6220   63.7560  C.3       1 <0>        -0.0599
       7  C7         14.2090   32.2290   64.0650  C.3       1 <0>        -0.1047
       8  C8         15.4120   33.6170   62.3710  C.3       1 <0>        -0.1478
       9  C9         15.8050   34.0020   64.8090  C.3       1 <0>        -0.1422
      10  N1         11.4830   35.2350   62.7490  N.pl3     1 <0>        -0.7508
      11  C10        10.7870   35.5340   61.5710  C.ar      1 <0>         0.1660
      12  C11        10.1170   36.7440   61.4480  C.ar      1 <0>        -0.1483
      13  C12         9.4290   37.0390   60.2880  C.ar      1 <0>        -0.1466
      14  C13         9.4080   36.1240   59.2430  C.ar      1 <0>         0.1825
      15  C14        10.0770   34.9130   59.3660  C.ar      1 <0>        -0.1465
      16  C15        10.7700   34.6220   60.5250  C.ar      1 <0>        -0.1471
      17  N2          8.7100   36.4210   58.0660  N.pl3     1 <0>        -0.6433
      18  C16         8.5830   35.5360   56.8980  C.3       1 <0>         0.1171
      19  C17         7.7530   36.2910   55.8400  C.3       1 <0>        -0.1327
      20  C18         7.9390   37.7770   56.2470  C.3       1 <0>        -0.1343
      21  C19         7.9770   37.6700   57.7940  C.3       1 <0>         0.1152
@<TRIPOS>BOND
     1     1     2 1
     2     2     7 1
     3     2     3 1
     4     3     4 1
     5     4     5 1
     6     4    10 1
     7     5     6 1
     8     6     7 1
     9     6     8 1
    10     6     9 1
    11    10    11 1
    12    11    16 ar
    13    11    12 ar
    14    12    13 ar
    15    13    14 ar
    16    14    15 ar
    17    14    17 1
    18    15    16 ar
    19    17    21 1
    20    17    18 1
    21    18    19 1
    22    19    20 1
    23    20    21 1

@<TRIPOS>MOLECULE
ZINC38899530_replica-1.pdb
 28 30 0 0 0
SMALL
GASTEIGER

@<TRIPOS>ATOM
       1  C1          0.4180   30.6120   59.4970  C.3       1 <0>        -0.1109
       2  C2          0.3050   31.4490   58.2490  C.2       1 <0>         0.2035
       3  C3          0.5340   32.7930   58.3060  C.2       1 <0>        -0.2470
       4  C4          0.4230   33.5540   57.1290  C.2       1 <0>         0.5419
       5  O1          0.6220   34.7580   57.1440  O.2       1 <0>        -0.5308
       6  N1          0.0940   32.9250   55.9800  N.am      1 <0>        -0.6141
       7  C5         -0.1230   31.5810   55.9830  C.2       1 <0>         0.3731
       8  N2         -0.0120   30.8740   57.0910  N.2       1 <0>        -0.5368
       9  S1         -0.5540   30.7700   54.4790  S.3       1 <0>        -0.0044
      10  C6         -0.9040   29.0640   54.9840  C.3       1 <0>        -0.0178
      11  C7         -2.2770   29.0030   55.6570  C.3       1 <0>        -0.1479
      12  C8         -0.8980   28.1690   53.7710  C.ar      1 <0>        -0.0812
      13  C9         -0.2740   26.9360   53.8270  C.ar      1 <0>        -0.1031
      14  C10        -0.2680   26.1160   52.7150  C.ar      1 <0>        -0.1173
      15  C11        -0.8860   26.5260   51.5480  C.ar      1 <0>        -0.1098
      16  C12        -1.5100   27.7580   51.4940  C.ar      1 <0>        -0.1175
      17  C13        -1.5200   28.5780   52.6070  C.ar      1 <0>        -0.0974
      18  C14         0.8990   33.4530   59.6110  C.3       1 <0>        -0.0731
      19  C15         2.3880   33.6780   59.6610  C.2       1 <0>         0.5180
      20  O2          3.1290   32.7670   59.9680  O.2       1 <0>        -0.5333
      21  N3          2.8980   34.8900   59.3650  N.am      1 <0>        -0.7316
      22  C16         4.3450   35.1080   59.4140  C.3       1 <0>         0.1238
      23  C17         4.7710   35.9710   58.2230  C.3       1 <0>        -0.0989
      24  C18         6.2930   35.9180   58.0750  C.3       1 <0>        -0.1145
      25  C19         6.7190   36.7800   56.8850  C.3       1 <0>        -0.1203
      26  C20         6.0640   36.2480   55.6090  C.3       1 <0>        -0.1217
      27  C21         4.5420   36.3010   55.7570  C.3       1 <0>        -0.1192
      28  C22         4.1160   35.4390   56.9470  C.3       1 <0>        -0.1124
@<TRIPOS>BOND
     1     1     2 1
     2     2     8 1
     3     2     3 2
     4     3     4 1
     5     3    18 1
     6     4     5 2
     7     4     6 am
     8     6     7 1
     9     7     8 2
    10     7     9 1
    11     9    10 1
    12    10    11 1
    13    10    12 1
    14    12    17 ar
    15    12    13 ar
    16    13    14 ar
    17    14    15 ar
    18    15    16 ar
    19    16    17 ar
    20    18    19 1
    21    19    20 2
    22    19    21 am
    23    21    22 1
    24    22    23 1
    25    23    28 1
    26    23    24 1
    27    24    25 1
    28    25    26 1
    29    26    27 1
    30    27    28 1

@<TRIPOS>MOLECULE
ZINC13427876_replica-1.pdb
 27 29 0 0 0
SMALL
GASTEIGER

@<TRIPOS>ATOM
       1  C1         -0.9130   25.4780   51.5030  C.ar      1 <0>        -0.1175
       2  C2         -1.5890   26.5980   51.0510  C.ar      1 <0>        -0.1134
       3  C3         -1.5770   27.7610   51.7940  C.ar      1 <0>        -0.1079
       4  C4         -0.8810   27.8050   53.0040  C.ar      1 <0>        -0.0022
       5  C5         -0.1970   26.6730   53.4510  C.ar      1 <0>        -0.1003
       6  C6         -0.2220   25.5160   52.7000  C.ar      1 <0>        -0.1161
       7  C7         -0.8650   29.0460   53.8050  C.2       1 <0>        -0.1217
       8  C8         -1.7060   30.1450   53.7250  C.2       1 <0>        -0.1450
       9  C9         -1.5010   31.1930   54.5760  C.2       1 <0>        -0.1311
      10  C10        -0.4520   31.1170   55.4870  C.2       1 <0>        -0.1300
      11  S1          0.2440   29.5140   55.1230  S.3       1 <0>         0.1050
      12  C11        -0.0430   32.0660   56.4520  C.2       1 <0>         0.0025
      13  C12         0.4310   31.6490   57.6540  C.2       1 <0>        -0.1819
      14  C13         0.8400   32.5980   58.6200  C.2       1 <0>         0.5550
      15  O1          0.3490   32.5830   59.7340  O.2       1 <0>        -0.5516
      16  N1          1.7730   33.5190   58.3080  N.am      1 <0>        -0.6905
      17  C14         2.1170   34.5690   59.2700  C.3       1 <0>         0.2024
      18  C15         1.9250   35.9400   58.6190  C.3       1 <0>        -0.1641
      19  C16         1.5870   35.7600   57.1600  C.2       1 <0>         0.4589
      20  O2          0.4390   35.8340   56.7930  O.co2     1 <0>        -0.6272
      21  C17         3.5550   34.4110   59.6930  C.ar      1 <0>        -0.0775
      22  C18         4.5050   35.3220   59.2680  C.ar      1 <0>        -0.1083
      23  C19         5.8220   35.1800   59.6610  C.ar      1 <0>        -0.1236
      24  C20         6.1920   34.1220   60.4710  C.ar      1 <0>        -0.1312
      25  C21         5.2430   33.2090   60.8920  C.ar      1 <0>        -0.1209
      26  C22         3.9240   33.3530   60.5030  C.ar      1 <0>        -0.1057
      27  O3          2.5620   35.5180   56.2710  O.co2     1 <0>        -0.7733
@<TRIPOS>BOND
     1     1     6 ar
     2     1     2 ar
     3     2     3 ar
     4     3     4 ar
     5     4     5 ar
     6     4     7 1
     7     5     6 ar
     8     7    11 1
     9     7     8 2
    10     8     9 1
    11     9    10 2
    12    10    11 1
    13    10    12 1
    14    12    13 2
    15    13    14 1
    16    14    15 2
    17    14    16 am
    18    16    17 1
    19    17    18 1
    20    17    21 1
    21    18    19 1
    22    19    20 2
    23    19    27 1
    24    21    26 ar
    25    21    22 ar
    26    22    23 ar
    27    23    24 ar
    28    24    25 ar
    29    25    26 ar

@<TRIPOS>MOLECULE
ZINC41393466_replica-1.pdb
 21 22 0 0 0
SMALL
GASTEIGER

@<TRIPOS>ATOM
       1  C1         -0.4290   30.9620   54.5810  C.3       1 <0>        -0.1720
       2  C2         -0.8920   31.3490   55.9870  C.3       1 <0>         0.1193
       3  C3         -2.3620   30.9620   56.1650  C.3       1 <0>        -0.1722
       4  N1         -0.0780   30.6460   56.9800  N.pl3     1 <0>        -0.4513
       5  C4          0.8830   31.1830   57.7920  C.2       1 <0>         0.1987
       6  N2          1.3600   30.2150   58.5220  N.2       1 <0>        -0.2810
       7  N3          0.7710   29.1110   58.2300  N.2       1 <0>        -0.2925
       8  C5         -0.1260   29.3160   57.2930  C.2       1 <0>         0.1586
       9  S1         -1.1860   28.1090   56.5730  S.3       1 <0>        -0.0079
      10  C6         -0.0460   26.8630   55.9090  C.3       1 <0>        -0.0994
      11  C7          0.6410   27.4140   54.6590  C.3       1 <0>        -0.0634
      12  C8         -0.0800   26.9220   53.4310  C.ar      1 <0>        -0.0815
      13  C9         -0.0020   25.5890   53.0730  C.ar      1 <0>        -0.1125
      14  C10        -0.6640   25.1370   51.9470  C.ar      1 <0>        -0.1180
      15  C11        -1.4040   26.0170   51.1790  C.ar      1 <0>        -0.1197
      16  C12        -1.4820   27.3500   51.5380  C.ar      1 <0>        -0.1180
      17  C13        -0.8240   27.8010   52.6660  C.ar      1 <0>        -0.1126
      18  C14         1.3110   32.6270   57.8320  C.3       1 <0>         0.0198
      19  C15         0.0780   33.5200   57.9950  C.3       1 <0>        -0.1490
      20  C16         2.2570   32.8450   59.0160  C.3       1 <0>        -0.1310
      21  C17         2.0310   32.9830   56.5310  C.3       1 <0>        -0.1490
@<TRIPOS>BOND
     1     1     2 1
     2     2     3 1
     3     2     4 1
     4     4     8 1
     5     4     5 1
     6     5     6 2
     7     5    18 1
     8     6     7 1
     9     7     8 2
    10     8     9 1
    11     9    10 1
    12    10    11 1
    13    11    12 1
    14    12    17 ar
    15    12    13 ar
    16    13    14 ar
    17    14    15 ar
    18    15    16 ar
    19    16    17 ar
    20    18    19 1
    21    18    20 1
    22    18    21 1

@<TRIPOS>MOLECULE
ZINC00355859_replica-1.pdb
 18 19 0 0 0
SMALL
GASTEIGER

@<TRIPOS>ATOM
       1  C1         -0.5360   24.9460   51.6190  C.3       1 <0>        -0.1078
       2  C2         -0.6070   26.2530   52.3650  C.ar      1 <0>        -0.1419
       3  C3          0.0000   26.3760   53.6010  C.ar      1 <0>        -0.0752
       4  C4         -0.0620   27.5730   54.2880  C.ar      1 <0>        -0.1899
       5  C5         -0.7380   28.6530   53.7350  C.ar      1 <0>         0.2140
       6  C6         -1.3520   28.5250   52.4950  C.ar      1 <0>        -0.1855
       7  C7         -1.2790   27.3270   51.8110  C.ar      1 <0>        -0.0796
       8  N1         -0.8040   29.8650   54.4260  N.pl3     1 <0>        -0.7418
       9  C8         -0.6770   29.8850   55.8860  C.3       1 <0>         0.2486
      10  C9         -2.0690   29.8230   56.5190  C.3       1 <0>        -0.1039
      11  C10        -2.1420   28.6500   57.4620  C.2       1 <0>        -0.1060
      12  C11        -3.0520   27.7240   57.2850  C.2       1 <0>        -0.2041
      13  C12        -1.1700   28.5430   58.6090  C.3       1 <0>        -0.1293
      14  C13         0.0150   31.1530   56.3140  C.2       1 <0>        -0.0259
      15  C14        -0.3920   31.9770   57.2950  C.2       1 <0>        -0.1937
      16  C15         0.5480   33.0320   57.3590  C.2       1 <0>        -0.2125
      17  C16         1.4690   32.7910   56.4110  C.2       1 <0>        -0.0343
      18  O1          1.1400   31.6530   55.7780  O.3       1 <0>        -0.1731
@<TRIPOS>BOND
     1     1     2 1
     2     2     7 ar
     3     2     3 ar
     4     3     4 ar
     5     4     5 ar
     6     5     6 ar
     7     5     8 1
     8     6     7 ar
     9     8     9 1
    10     9    10 1
    11     9    14 1
    12    10    11 1
    13    11    12 2
    14    11    13 1
    15    14    18 1
    16    14    15 2
    17    15    16 1
    18    16    17 2
    19    17    18 1

@<TRIPOS>MOLECULE
ZINC44562125_replica-1.pdb
 20 21 0 0 0
SMALL
GASTEIGER

@<TRIPOS>ATOM
       1  C1         -1.5730   29.6080   57.2910  C.3       1 <0>        -0.1784
       2  C2         -0.2150   29.0320   56.8860  C.3       1 <0>         0.0800
       3  C3         -0.3240   28.4040   55.5200  C.ar      1 <0>        -0.1522
       4  C4          0.3170   27.2080   55.2570  C.ar      1 <0>        -0.1152
       5  C5          0.2170   26.6320   54.0040  C.ar      1 <0>        -0.1052
       6  C6         -0.5250   27.2510   53.0150  C.ar      1 <0>        -0.0421
       7  C7         -1.1670   28.4460   53.2800  C.ar      1 <0>        -0.1040
       8  C8         -1.0710   29.0200   54.5330  C.ar      1 <0>        -0.0841
       9  C9         -0.6330   26.6230   51.6490  C.3       1 <0>        -0.0666
      10  C10        -0.7710   25.1060   51.7950  C.3       1 <0>        -0.1478
      11  C11        -1.8620   27.1800   50.9280  C.3       1 <0>        -0.1483
      12  N1          0.7850   30.1070   56.8520  N.4       1 <0>        -0.5013
      13  C12         1.1050   30.5210   58.2250  C.3       1 <0>        -0.0070
      14  C13         1.3780   32.0260   58.2530  C.3       1 <0>         0.0518
      15  C14         0.1260   32.7800   57.7970  C.3       1 <0>        -0.1236
      16  C15         0.3980   34.2860   57.8460  C.3       1 <0>        -0.1242
      17  C16         0.8050   34.6770   59.2680  C.3       1 <0>        -0.1235
      18  C17         2.0370   33.8690   59.6810  C.3       1 <0>         0.0555
      19  N2          1.7270   32.4350   59.6190  N.3       1 <0>        -0.5535
      20  C18         2.8410   31.6320   60.1420  C.3       1 <0>         0.0009
@<TRIPOS>BOND
     1     1     2 1
     2     2     3 1
     3     2    12 1
     4     3     8 ar
     5     3     4 ar
     6     4     5 ar
     7     5     6 ar
     8     6     7 ar
     9     6     9 1
    10     7     8 ar
    11     9    10 1
    12     9    11 1
    13    12    13 1
    14    13    14 1
    15    14    19 1
    16    14    15 1
    17    15    16 1
    18    16    17 1
    19    17    18 1
    20    18    19 1
    21    19    20 1

@<TRIPOS>MOLECULE
ZINC35451269_replica-1.pdb
 18 19 0 0 0
SMALL
GASTEIGER

@<TRIPOS>ATOM
       1  C1         -0.5470   24.9240   51.4450  C.3       1 <0>        -0.1071
       2  C2         -0.5720   26.1470   52.3270  C.ar      1 <0>        -0.1795
       3  C3          0.0750   26.1290   53.5490  C.ar      1 <0>        -0.0435
       4  C4          0.0550   27.2470   54.3580  C.ar      1 <0>        -0.2022
       5  C5         -0.6150   28.3910   53.9460  C.ar      1 <0>         0.2418
       6  C6         -1.2650   28.4080   52.7190  C.ar      1 <0>        -0.2341
       7  C7         -1.2370   27.2870   51.9090  C.ar      1 <0>         0.1440
       8  F1         -1.8640   27.3030   50.7120  F         1 <0>        -0.1381
       9  N1         -0.6380   29.5230   54.7650  N.pl3     1 <0>        -0.7381
      10  C8         -1.9090   30.0070   55.3120  C.3       1 <0>         0.1464
      11  C9         -1.6420   31.1650   56.2740  C.3       1 <0>        -0.1710
      12  C10        -2.6050   28.8700   56.0630  C.3       1 <0>        -0.1234
      13  C11        -2.0240   28.7600   57.4750  C.3       1 <0>        -0.0384
      14  C12        -1.9440   27.3090   57.8730  C.2       1 <0>        -0.0134
      15  C13        -0.8420   26.5400   57.8250  C.2       1 <0>        -0.2100
      16  C14        -1.2160   25.2570   58.2870  C.2       1 <0>        -0.2133
      17  C15        -2.5260   25.3190   58.5890  C.2       1 <0>        -0.0429
      18  O1         -2.9600   26.5660   58.3420  O.3       1 <0>        -0.1769
@<TRIPOS>BOND
     1     1     2 1
     2     2     7 ar
     3     2     3 ar
     4     3     4 ar
     5     4     5 ar
     6     5     6 ar
     7     5     9 1
     8     6     7 ar
     9     7     8 1
    10     9    10 1
    11    10    11 1
    12    10    12 1
    13    12    13 1
    14    13    14 1
    15    14    18 1
    16    14    15 2
    17    15    16 1
    18    16    17 2
    19    17    18 1

@<TRIPOS>MOLECULE
ZINC36934482_replica-1.pdb
 20 21 0 0 0
SMALL
GASTEIGER

@<TRIPOS>ATOM
       1  C1          7.6280   36.4400   54.9700  C.3       1 <0>        -0.0997
       2  C2          7.7910   37.2100   56.2550  C.2       1 <0>         0.1175
       3  C3          7.0120   37.0990   57.3560  C.2       1 <0>        -0.2671
       4  C4          7.5010   37.9860   58.3210  C.2       1 <0>         0.0981
       5  N1          8.5370   38.6070   57.8180  N.2       1 <0>        -0.2915
       6  N2          8.7430   38.1310   56.5160  N.pl3     1 <0>        -0.4724
       7  C5          6.9330   38.1910   59.7020  C.3       1 <0>        -0.0783
       8  C6          5.8270   36.1830   57.5140  C.3       1 <0>         0.2067
       9  N3          6.0990   35.2120   58.5780  N.pl3     1 <0>        -0.7360
      10  C7          6.7600   34.0150   58.2800  C.ar      1 <0>         0.2571
      11  C8          6.3190   33.2170   57.2350  C.ar      1 <0>        -0.1829
      12  C9          6.9730   32.0350   56.9430  C.ar      1 <0>        -0.0567
      13  C10         8.0690   31.6430   57.6900  C.ar      1 <0>        -0.1578
      14  C11         8.5160   32.4320   58.7340  C.ar      1 <0>        -0.0718
      15  C12         7.8690   33.6220   59.0300  C.ar      1 <0>        -0.1859
      16  S1          8.4420   34.6330   60.3550  S.3       1 <0>        -0.0420
      17  C13         9.9080   35.4580   59.6770  C.3       1 <0>         0.4571
      18  F1         11.0560   34.7540   60.0570  F         1 <0>        -0.1631
      19  F2          9.8220   35.4910   58.2820  F         1 <0>        -0.1461
      20  F3          9.9770   36.7650   60.1720  F         1 <0>        -0.1627
@<TRIPOS>BOND
     1     1     2 1
     2     2     6 1
     3     2     3 2
     4     3     4 1
     5     3     8 1
     6     4     5 2
     7     4     7 1
     8     5     6 1
     9     8     9 1
    10     9    10 1
    11    10    15 ar
    12    10    11 ar
    13    11    12 ar
    14    12    13 ar
    15    13    14 ar
    16    14    15 ar
    17    15    16 1
    18    16    17 1
    19    17    18 1
    20    17    19 1
    21    17    20 1

@<TRIPOS>MOLECULE
ZINC02932999_replica-1.pdb
 28 30 0 0 0
SMALL
GASTEIGER

@<TRIPOS>ATOM
       1  C1          3.7000   36.0050   55.8750  C.3       1 <0>        -0.1537
       2  C2          2.9550   35.4710   57.1000  C.3       1 <0>        -0.0935
       3  C3          3.7220   35.8520   58.3680  C.3       1 <0>        -0.1483
       4  C4          1.5530   36.0810   57.1500  C.3       1 <0>        -0.1279
       5  C5          0.5290   34.9830   57.4440  C.3       1 <0>         0.1163
       6  N1          0.6250   33.9390   56.4210  N.am      1 <0>        -0.7249
       7  C6          0.4030   32.6500   56.7490  C.2       1 <0>         0.5304
       8  O1          0.1240   32.3560   57.8910  O.2       1 <0>        -0.5231
       9  C7          0.5030   31.5770   55.6960  C.3       1 <0>        -0.1528
      10  S1         -1.1300   31.2960   54.9660  S.3       1 <0>         0.0903
      11  C8         -0.8950   29.6790   54.3060  C.ar      1 <0>         0.3377
      12  N2         -1.4340   29.3900   53.1360  N.ar      1 <0>        -0.5671
      13  C9         -1.2770   28.1700   52.6010  C.ar      1 <0>         0.2034
      14  C10        -1.8360   27.8280   51.3610  C.ar      1 <0>        -0.1157
      15  C11        -1.6480   26.5730   50.8610  C.ar      1 <0>        -0.0688
      16  C12        -0.9100   25.6250   51.5620  C.ar      1 <0>        -0.1391
      17  C13        -0.3530   25.9250   52.7720  C.ar      1 <0>        -0.0638
      18  C14        -0.5260   27.2040   53.3120  C.ar      1 <0>        -0.2033
      19  C15         0.0280   27.5710   54.5640  C.ar      1 <0>         0.4885
      20  N3         -0.1830   28.8020   55.0080  N.ar      1 <0>        -0.5770
      21  N4          0.7690   26.6710   55.3010  N.pl3     1 <0>        -0.6888
      22  C16         0.2640   26.1880   56.5890  C.3       1 <0>         0.1677
      23  C17         0.2150   24.6820   56.5740  C.ar      1 <0>        -0.1164
      24  C18        -0.2500   23.9950   57.6800  C.ar      1 <0>        -0.0985
      25  C19        -0.3000   22.6140   57.6650  C.ar      1 <0>        -0.1217
      26  C20         0.1260   21.9180   56.5500  C.ar      1 <0>        -0.1086
      27  C21         0.5970   22.6050   55.4460  C.ar      1 <0>        -0.1217
      28  C22         0.6410   23.9870   55.4580  C.ar      1 <0>        -0.0986
@<TRIPOS>BOND
     1     1     2 1
     2     2     3 1
     3     2     4 1
     4     4     5 1
     5     5     6 1
     6     6     7 am
     7     7     8 2
     8     7     9 1
     9     9    10 1
    10    10    11 1
    11    11    20 ar
    12    11    12 ar
    13    12    13 ar
    14    13    18 ar
    15    13    14 ar
    16    14    15 ar
    17    15    16 ar
    18    16    17 ar
    19    17    18 ar
    20    18    19 ar
    21    19    20 ar
    22    19    21 1
    23    21    22 1
    24    22    23 1
    25    23    28 ar
    26    23    24 ar
    27    24    25 ar
    28    25    26 ar
    29    26    27 ar
    30    27    28 ar

@<TRIPOS>MOLECULE
ZINC19913393_replica-1.pdb
 19 20 0 0 0
SMALL
GASTEIGER

@<TRIPOS>ATOM
       1  C1         -2.9240   30.5280   53.9810  C.3       1 <0>        -0.1671
       2  C2         -1.8830   29.5350   54.5000  C.3       1 <0>         0.2396
       3  C3         -1.1580   30.1350   55.6760  C.2       1 <0>        -0.1558
       4  C4         -1.2370   29.8020   56.9890  C.2       1 <0>        -0.1451
       5  C5         -0.4660   30.4950   57.9030  C.2       1 <0>        -0.1571
       6  C6          0.3370   31.4930   57.4640  C.2       1 <0>        -0.1674
       7  S1          0.0280   31.4700   55.7050  S.3       1 <0>         0.0435
       8  N1         -0.9210   29.2350   53.4360  N.pl3     1 <0>        -0.7503
       9  C7         -0.8850   27.9580   52.8640  C.ar      1 <0>         0.2311
      10  C8         -1.6740   27.6670   51.7600  C.ar      1 <0>        -0.1760
      11  C9         -1.6370   26.4050   51.1970  C.ar      1 <0>        -0.0810
      12  C10        -0.8160   25.4310   51.7330  C.ar      1 <0>        -0.1417
      13  C11        -0.0290   25.7120   52.8340  C.ar      1 <0>        -0.1388
      14  C12        -0.0550   26.9760   53.4000  C.ar      1 <0>         0.0223
      15  O1          0.7240   27.2560   54.4800  O.3       1 <0>        -0.3154
      16  C13         0.3910   26.6010   55.7050  C.3       1 <0>         0.6063
      17  F1         -0.9740   26.7600   55.9640  F         1 <0>        -0.1656
      18  F2          0.6900   25.2380   55.6010  F         1 <0>        -0.1326
      19  F3          1.1330   27.1620   56.7500  F         1 <0>        -0.1657
@<TRIPOS>BOND
     1     1     2 1
     2     2     3 1
     3     2     8 1
     4     3     7 1
     5     3     4 2
     6     4     5 1
     7     5     6 2
     8     6     7 1
     9     8     9 1
    10     9    14 ar
    11     9    10 ar
    12    10    11 ar
    13    11    12 ar
    14    12    13 ar
    15    13    14 ar
    16    14    15 1
    17    15    16 1
    18    16    17 1
    19    16    18 1
    20    16    19 1

@<TRIPOS>MOLECULE
ZINC37308472_replica-1.pdb
 20 21 0 0 0
SMALL
GASTEIGER

@<TRIPOS>ATOM
       1  C1          5.6840   34.9650   59.4720  C.3       1 <0>        -0.1512
       2  C2          5.6610   34.9230   57.9430  C.3       1 <0>        -0.1232
       3  C3          5.8110   36.3430   57.3930  C.3       1 <0>         0.0652
       4  O1          7.0660   36.4630   56.7210  O.3       1 <0>        -0.3519
       5  C4          8.0060   37.2260   57.3120  C.2       1 <0>         0.5136
       6  O2          8.2100   38.3550   56.9140  O.2       1 <0>        -0.5158
       7  C5          8.7870   36.6910   58.4420  C.ar      1 <0>        -0.1956
       8  C6          9.3300   35.4030   58.3710  C.ar      1 <0>        -0.0087
       9  C7         10.0570   34.9090   59.4230  C.ar      1 <0>        -0.2129
      10  C8         10.2540   35.6850   60.5610  C.ar      1 <0>         0.2551
      11  C9          9.7150   36.9670   60.6360  C.ar      1 <0>        -0.2133
      12  C10         8.9920   37.4710   59.5850  C.ar      1 <0>        -0.0005
      13  N1         10.9900   35.1800   61.6270  N.pl3     1 <0>        -0.7340
      14  C11        11.0310   33.7360   61.8700  C.3       1 <0>         0.1228
      15  C12        12.2140   33.4060   62.7830  C.3       1 <0>        -0.0993
      16  C13        12.4400   31.8890   62.8050  C.3       1 <0>        -0.1127
      17  C14        13.5050   31.5740   63.8570  C.3       1 <0>        -0.0924
      18  C15        14.7000   32.4630   63.6660  C.2       1 <0>        -0.1551
      19  C16        14.6870   33.5540   62.9690  C.2       1 <0>        -0.1586
      20  C17        13.4790   34.0810   62.2500  C.3       1 <0>        -0.0855
@<TRIPOS>BOND
     1     1     2 1
     2     2     3 1
     3     3     4 1
     4     4     5 1
     5     5     6 2
     6     5     7 1
     7     7    12 ar
     8     7     8 ar
     9     8     9 ar
    10     9    10 ar
    11    10    11 ar
    12    10    13 1
    13    11    12 ar
    14    13    14 1
    15    14    15 1
    16    15    20 1
    17    15    16 1
    18    16    17 1
    19    17    18 1
    20    18    19 2
    21    19    20 1

@<TRIPOS>MOLECULE
ZINC02865711_replica-1.pdb
 24 25 0 0 0
SMALL
GASTEIGER

@<TRIPOS>ATOM
       1  C1         11.6900   33.0280   62.8120  C.3       1 <0>        -0.1401
       2  C2         12.2140   34.4180   62.4460  C.3       1 <0>        -0.0271
       3  C3         13.5890   34.2880   61.7860  C.3       1 <0>        -0.1458
       4  C4         12.3370   35.2660   63.7140  C.3       1 <0>        -0.1401
       5  C5         11.2580   35.0800   61.4890  C.ar      1 <0>        -0.1021
       6  C6         10.8520   34.4140   60.3470  C.ar      1 <0>        -0.0744
       7  C7          9.9750   35.0180   59.4670  C.ar      1 <0>        -0.1404
       8  C8          9.5000   36.2950   59.7310  C.ar      1 <0>         0.1202
       9  C9          9.9130   36.9630   60.8750  C.ar      1 <0>        -0.2068
      10  C10        10.7860   36.3520   61.7540  C.ar      1 <0>        -0.0807
      11  O1          8.6370   36.8910   58.8680  O.3       1 <0>        -0.2900
      12  C11         7.5390   37.6060   59.4390  C.3       1 <0>         0.0530
      13  C12         6.5230   36.6280   59.9700  C.2       1 <0>         0.5159
      14  O2          6.1600   36.6980   61.1250  O.2       1 <0>        -0.4710
      15  N1          6.0160   35.6770   59.1610  N.am      1 <0>        -0.6075
      16  C13         5.0800   34.7750   59.6500  C.2       1 <0>         0.2767
      17  N2          3.7730   34.7590   59.4740  N.2       1 <0>        -0.5332
      18  C14         3.0210   33.8190   60.0110  C.2       1 <0>         0.0946
      19  C15         3.6210   32.8660   60.7660  C.2       1 <0>        -0.2575
      20  S1          5.3280   33.3830   60.6590  S.3       1 <0>         0.1578
      21  C16         1.5290   33.8070   59.7980  C.3       1 <0>         0.0021
      22  C17         1.0930   35.1310   59.1680  C.3       1 <0>        -0.1374
      23  C18         1.1570   32.6520   58.8670  C.3       1 <0>        -0.1268
      24  C19         0.8230   33.6260   61.1430  C.3       1 <0>        -0.1399
@<TRIPOS>BOND
     1     1     2 1
     2     2     3 1
     3     2     4 1
     4     2     5 1
     5     5    10 ar
     6     5     6 ar
     7     6     7 ar
     8     7     8 ar
     9     8     9 ar
    10     8    11 1
    11     9    10 ar
    12    11    12 1
    13    12    13 1
    14    13    14 2
    15    13    15 am
    16    15    16 1
    17    16    20 1
    18    16    17 2
    19    17    18 1
    20    18    19 2
    21    18    21 1
    22    19    20 1
    23    21    22 1
    24    21    23 1
    25    21    24 1

@<TRIPOS>MOLECULE
ZINC20013050_replica-1.pdb
 20 21 0 0 0
SMALL
GASTEIGER

@<TRIPOS>ATOM
       1  C1          6.2530   36.3430   57.2390  C.3       1 <0>        -0.1371
       2  C2          7.7560   36.6010   57.1200  C.3       1 <0>         0.0123
       3  C3          8.3740   35.5800   56.1610  C.3       1 <0>        -0.1384
       4  C4          7.9910   38.0130   56.5800  C.3       1 <0>        -0.1368
       5  C5          8.3980   36.4690   58.4770  C.2       1 <0>         0.1014
       6  C6          9.5390   35.7180   58.7710  C.2       1 <0>        -0.2647
       7  C7          9.7990   35.8560   60.1000  C.2       1 <0>         0.2994
       8  N1          8.8440   36.6710   60.6190  N.pl3     1 <0>        -0.3941
       9  N2          7.9840   37.0420   59.5770  N.2       1 <0>        -0.2789
      10  C8          8.7350   37.0910   62.0190  C.3       1 <0>         0.0995
      11  N3         10.8510   35.2690   60.8010  N.am      1 <0>        -0.6445
      12  C9         10.7030   34.0390   61.3310  C.2       1 <0>         0.5692
      13  O1          9.6520   33.4420   61.2000  O.2       1 <0>        -0.4923
      14  C10        11.8180   33.4150   62.0740  C.ar      1 <0>        -0.1303
      15  C11        13.0530   34.0620   62.1580  C.ar      1 <0>        -0.0693
      16  C12        14.0900   33.4750   62.8530  C.ar      1 <0>        -0.1179
      17  C13        13.9090   32.2480   63.4650  C.ar      1 <0>        -0.0538
      18  C14        12.6890   31.6000   63.3840  C.ar      1 <0>        -0.1104
      19  C15        11.6410   32.1800   62.6980  C.ar      1 <0>        -0.0206
      20  I1         12.4290   29.7410   64.3150  I         1 <0>        -0.0221
@<TRIPOS>BOND
     1     1     2 1
     2     2     3 1
     3     2     4 1
     4     2     5 1
     5     5     9 2
     6     5     6 1
     7     6     7 2
     8     7     8 1
     9     7    11 1
    10     8     9 1
    11     8    10 1
    12    11    12 am
    13    12    13 2
    14    12    14 1
    15    14    19 ar
    16    14    15 ar
    17    15    16 ar
    18    16    17 ar
    19    17    18 ar
    20    18    19 ar
    21    18    20 1

@<TRIPOS>MOLECULE
ZINC67256143_replica-1.pdb
 25 28 0 0 0
SMALL
GASTEIGER

@<TRIPOS>ATOM
       1  C1         -2.0990   30.0050   53.3630  C.3       1 <0>        -0.1720
       2  C2         -0.8920   29.1340   53.7100  C.3       1 <0>         0.0840
       3  C3         -0.9420   27.8620   52.9020  C.ar      1 <0>        -0.1323
       4  C4         -1.6490   27.8240   51.7160  C.ar      1 <0>        -0.1202
       5  C5         -1.6950   26.6570   50.9750  C.ar      1 <0>        -0.1039
       6  C6         -1.0330   25.5290   51.4210  C.ar      1 <0>        -0.0975
       7  C7         -0.3250   25.5680   52.6080  C.ar      1 <0>        -0.1074
       8  C8         -0.2760   26.7340   53.3460  C.ar      1 <0>        -0.0912
       9  N1         -0.9200   28.8050   55.1420  N.4       1 <0>        -0.3871
      10  C9         -2.1570   29.3380   55.7710  C.3       1 <0>         0.0055
      11  C10        -1.8150   29.4380   57.2740  C.3       1 <0>        -0.1458
      12  C11        -0.2780   29.5450   57.3300  C.3       1 <0>         0.1047
      13  C12         0.1810   29.5010   55.8560  C.3       1 <0>        -0.0044
      14  N2          0.1230   30.8100   57.9510  N.am      1 <0>        -0.5344
      15  C13         0.1260   31.9470   57.2170  C.2       1 <0>         0.5576
      16  O1         -0.1980   31.9430   56.0440  O.2       1 <0>        -0.5537
      17  C14         0.5350   33.1880   57.8910  C.ar      1 <0>        -0.2469
      18  C15         0.5710   34.4110   57.2240  C.ar      1 <0>        -0.0298
      19  C16         0.9590   35.5360   57.8980  C.ar      1 <0>        -0.1726
      20  C17         1.3160   35.4710   59.2390  C.ar      1 <0>        -0.0620
      21  C18         1.2900   34.2850   59.9180  C.ar      1 <0>        -0.1338
      22  C19         0.8970   33.1180   59.2560  C.ar      1 <0>         0.2012
      23  N3          0.8560   31.9270   59.8870  N.2       1 <0>        -0.5444
      24  C20         0.4830   30.8340   59.2680  C.2       1 <0>         0.5208
      25  S1          0.4530   29.3240   60.1760  S.3       1 <0>        -0.7531
@<TRIPOS>BOND
     1     1     2 1
     2     2     3 1
     3     2     9 1
     4     3     8 ar
     5     3     4 ar
     6     4     5 ar
     7     5     6 ar
     8     6     7 ar
     9     7     8 ar
    10     9    13 1
    11     9    10 1
    12    10    11 1
    13    11    12 1
    14    12    13 1
    15    12    14 1
    16    14    24 1
    17    14    15 am
    18    15    16 2
    19    15    17 1
    20    17    22 ar
    21    17    18 ar
    22    18    19 ar
    23    19    20 ar
    24    20    21 ar
    25    21    22 ar
    26    22    23 1
    27    23    24 2
    28    24    25 1

@<TRIPOS>MOLECULE
ZINC20604498_replica-1.pdb
 27 30 0 0 0
SMALL
GASTEIGER

@<TRIPOS>ATOM
       1  C1          2.8460   35.8640   58.6090  C.3       1 <0>        -0.1175
       2  C2          4.2390   35.9050   58.0400  C.ar      1 <0>        -0.0753
       3  C3          4.4280   35.8560   56.6700  C.ar      1 <0>        -0.0956
       4  C4          5.7050   35.8870   56.1430  C.ar      1 <0>        -0.1088
       5  C5          6.7980   35.9790   56.9820  C.ar      1 <0>        -0.0839
       6  C6          6.6130   36.0280   58.3570  C.ar      1 <0>         0.1187
       7  C7          5.3290   35.9910   58.8840  C.ar      1 <0>        -0.0637
       8  N1          7.7200   36.1150   59.2120  N.pl3     1 <0>        -0.4318
       9  C8          8.3010   34.9610   59.7030  C.ar      1 <0>         0.4028
      10  C9          9.4120   35.0870   60.5590  C.ar      1 <0>        -0.2149
      11  C10        10.0230   33.9420   61.0740  C.ar      1 <0>        -0.0121
      12  C11         9.5120   32.7210   60.7190  C.ar      1 <0>        -0.1583
      13  C12         8.4050   32.6590   59.8630  C.ar      1 <0>         0.3080
      14  N2          7.8400   33.7650   59.3860  N.ar      1 <0>        -0.4739
      15  C13         7.8570   31.3450   59.4840  C.2       1 <0>        -0.1643
      16  C14         7.8720   30.7210   58.2620  C.2       1 <0>        -0.0752
      17  C15         7.2950   29.4790   58.1470  C.2       1 <0>        -0.1716
      18  C16         6.7180   28.9120   59.2400  C.2       1 <0>        -0.1401
      19  S1          6.9920   30.1530   60.4940  S.3       1 <0>         0.0966
      20  C17        11.2130   34.0450   61.9920  C.3       1 <0>         0.3178
      21  F1         11.2480   32.9300   62.8370  F         1 <0>        -0.1836
      22  F2         12.3870   34.0910   61.2330  F         1 <0>        -0.1836
      23  C18         9.8930   36.4390   60.8850  C.2       1 <0>         0.5481
      24  O1         10.8510   36.6000   61.6230  O.2       1 <0>        -0.4452
      25  N3          9.2530   37.4910   60.3520  N.am      1 <0>        -0.6075
      26  C19         8.2210   37.3370   59.5490  C.2       1 <0>         0.5532
      27  S2          7.4460   38.7750   58.8900  S.2       1 <0>        -0.5378
@<TRIPOS>BOND
     1     1     2 1
     2     2     7 ar
     3     2     3 ar
     4     3     4 ar
     5     4     5 ar
     6     5     6 ar
     7     6     7 ar
     8     6     8 1
     9     8     9 1
    10     8    26 1
    11     9    14 ar
    12     9    10 ar
    13    10    11 ar
    14    10    23 1
    15    11    12 ar
    16    11    20 1
    17    12    13 ar
    18    13    14 ar
    19    13    15 1
    20    15    19 1
    21    15    16 2
    22    16    17 1
    23    17    18 2
    24    18    19 1
    25    20    21 1
    26    20    22 1
    27    23    25 am
    28    23    24 2
    29    25    26 1
    30    26    27 2

@<TRIPOS>MOLECULE
ZINC37123612_replica-1.pdb
 21 22 0 0 0
SMALL
GASTEIGER

@<TRIPOS>ATOM
       1  C1          7.5330   38.5840   56.4650  C.3       1 <0>        -0.1546
       2  C2          8.6500   37.9030   57.2600  C.3       1 <0>        -0.1202
       3  C3          8.4590   38.1870   58.7520  C.3       1 <0>        -0.0895
       4  C4          7.1040   38.8600   58.9740  C.3       1 <0>        -0.1507
       5  C5          8.5090   36.8700   59.5320  C.3       1 <0>        -0.1252
       6  C6          8.4860   35.6960   58.5510  C.3       1 <0>         0.1463
       7  C7          9.7020   34.8020   58.7970  C.3       1 <0>        -0.1394
       8  C8         10.3890   35.2210   60.0990  C.3       1 <0>        -0.1503
       9  N1          7.2600   34.9190   58.7490  N.pl3     1 <0>        -0.7360
      10  C9          6.1060   35.2420   58.0320  C.ar      1 <0>         0.2261
      11  C10         6.1270   35.2500   56.6430  C.ar      1 <0>        -0.1875
      12  C11         4.9840   35.5690   55.9380  C.ar      1 <0>        -0.0717
      13  C12         3.8170   35.8790   56.6130  C.ar      1 <0>        -0.1600
      14  C13         3.7920   35.8710   57.9960  C.ar      1 <0>        -0.0691
      15  C14         4.9300   35.5480   58.7070  C.ar      1 <0>        -0.1798
      16  C15         2.5190   36.2110   58.7260  C.3       1 <0>         0.1460
      17  N2          1.6320   35.0460   58.7290  N.pl3     1 <0>        -0.4525
      18  C16         1.7160   33.9620   59.5600  C.2       1 <0>        -0.0526
      19  C17         0.7110   33.1310   59.2230  C.2       1 <0>        -0.0313
      20  N3          0.0310   33.6930   58.2120  N.2       1 <0>        -0.4958
      21  C18         0.5740   34.8420   57.9140  C.2       1 <0>         0.1830
@<TRIPOS>BOND
     1     1     2 1
     2     2     3 1
     3     3     4 1
     4     3     5 1
     5     5     6 1
     6     6     7 1
     7     6     9 1
     8     7     8 1
     9     9    10 1
    10    10    15 ar
    11    10    11 ar
    12    11    12 ar
    13    12    13 ar
    14    13    14 ar
    15    14    15 ar
    16    14    16 1
    17    16    17 1
    18    17    21 1
    19    17    18 1
    20    18    19 2
    21    19    20 1
    22    20    21 2

@<TRIPOS>MOLECULE
ZINC13388687_replica-1.pdb
 24 25 0 0 0
SMALL
GASTEIGER

@<TRIPOS>ATOM
       1  C1         11.4020   32.3650   62.8740  C.3       1 <0>        -0.1469
       2  C2         12.5220   33.3710   63.1440  C.3       1 <0>        -0.0942
       3  C3         13.8560   32.6300   63.2560  C.3       1 <0>        -0.1483
       4  C4         12.5930   34.3770   61.9940  C.3       1 <0>         0.0598
       5  O1         11.6150   35.4000   62.1950  O.3       1 <0>        -0.3111
       6  C5         10.7720   35.6580   61.1630  C.ar      1 <0>         0.1494
       7  C6         10.6400   34.7370   60.1310  C.ar      1 <0>        -0.1623
       8  C7          9.7850   34.9940   59.0810  C.ar      1 <0>        -0.0209
       9  C8          9.0520   36.1830   59.0560  C.ar      1 <0>        -0.1603
      10  C9          9.1910   37.1080   60.0930  C.ar      1 <0>        -0.0402
      11  C10        10.0430   36.8410   61.1420  C.ar      1 <0>        -0.2165
      12  C11         8.1340   36.4630   57.9330  C.2       1 <0>         0.5698
      13  O2          8.2510   37.4910   57.2960  O.2       1 <0>        -0.5425
      14  N1          7.1690   35.5790   57.6160  N.am      1 <0>        -0.6959
      15  C12         6.2590   35.8570   56.5020  C.3       1 <0>         0.2455
      16  C13         6.3800   34.7470   55.4550  C.3       1 <0>        -0.1655
      17  C14         6.7370   33.4500   56.1350  C.2       1 <0>         0.4605
      18  O3          5.8630   32.7190   56.5380  O.co2     1 <0>        -0.6248
      19  C15         4.8430   35.9130   57.0120  C.2       1 <0>        -0.1188
      20  C16         3.6860   36.0220   56.3110  C.2       1 <0>        -0.1669
      21  C17         2.4870   36.0520   56.9980  C.2       1 <0>        -0.1452
      22  C18         2.5020   35.9820   58.3510  C.2       1 <0>        -0.1947
      23  S1          4.2500   35.8570   58.6950  S.3       1 <0>         0.0271
      24  O4          8.0250   33.1090   56.2940  O.co2     1 <0>        -0.7701
@<TRIPOS>BOND
     1     1     2 1
     2     2     3 1
     3     2     4 1
     4     4     5 1
     5     5     6 1
     6     6    11 ar
     7     6     7 ar
     8     7     8 ar
     9     8     9 ar
    10     9    10 ar
    11     9    12 1
    12    10    11 ar
    13    12    13 2
    14    12    14 am
    15    14    15 1
    16    15    16 1
    17    15    19 1
    18    16    17 1
    19    17    18 2
    20    17    24 1
    21    19    23 1
    22    19    20 2
    23    20    21 1
    24    21    22 2
    25    22    23 1

@<TRIPOS>MOLECULE
ZINC10036069_replica-1.pdb
 20 21 0 0 0
SMALL
GASTEIGER

@<TRIPOS>ATOM
       1  C1         -0.6940   24.9820   51.9760  C.3       1 <0>        -0.1449
       2  C2         -0.6580   26.4680   51.6110  C.3       1 <0>        -0.0592
       3  C3         -1.9120   26.8270   50.8120  C.3       1 <0>        -0.1449
       4  C4         -0.6130   27.2920   52.8720  C.ar      1 <0>        -0.0727
       5  C5         -1.3440   28.4630   52.9590  C.ar      1 <0>        -0.1135
       6  C6         -1.3030   29.2200   54.1150  C.ar      1 <0>        -0.1012
       7  C7         -0.5310   28.8070   55.1840  C.ar      1 <0>        -0.0931
       8  C8          0.2050   27.6390   55.0960  C.ar      1 <0>        -0.1121
       9  C9          0.1590   26.8790   53.9420  C.ar      1 <0>        -0.1106
      10  C10        -0.4850   29.6310   56.4440  C.3       1 <0>         0.2106
      11  C11        -0.8420   28.7510   57.6430  C.3       1 <0>        -0.0996
      12  C12        -2.3200   28.3640   57.5710  C.3       1 <0>        -0.1468
      13  C13        -0.5800   29.5220   58.9390  C.3       1 <0>        -0.1369
      14  N1          0.8630   30.1770   56.6230  N.am      1 <0>        -0.7395
      15  C14         1.1260   31.4510   56.2720  C.2       1 <0>         0.7096
      16  O1          0.2450   32.1480   55.8060  O.2       1 <0>        -0.5801
      17  N2          2.3660   31.9530   56.4360  N.am      1 <0>        -0.7192
      18  C15         2.6530   33.3380   56.0540  C.3       1 <0>         0.1005
      19  C16         4.0990   33.6890   55.7040  C.3       1 <0>        -0.1956
      20  C17         3.4900   34.1790   57.0190  C.3       1 <0>        -0.1909
@<TRIPOS>BOND
     1     1     2 1
     2     2     3 1
     3     2     4 1
     4     4     9 ar
     5     4     5 ar
     6     5     6 ar
     7     6     7 ar
     8     7     8 ar
     9     7    10 1
    10     8     9 ar
    11    10    11 1
    12    10    14 1
    13    11    12 1
    14    11    13 1
    15    14    15 am
    16    15    16 2
    17    15    17 am
    18    17    18 1
    19    18    20 1
    20    18    19 1
    21    19    20 1

@<TRIPOS>MOLECULE
ZINC13416662_replica-1.pdb
 26 28 0 0 0
SMALL
GASTEIGER

@<TRIPOS>ATOM
       1  C1         -1.4440   28.9690   56.9960  C.3       1 <0>        -0.1597
       2  C2         -0.7140   29.2710   55.6850  C.3       1 <0>         0.1824
       3  C3         -0.3670   27.9790   54.9930  C.ar      1 <0>        -0.0759
       4  C4          0.3390   27.0180   55.6500  C.ar      1 <0>        -0.1125
       5  C5          0.6690   25.8170   55.0270  C.ar      1 <0>        -0.1109
       6  C6          0.2930   25.5680   53.7420  C.ar      1 <0>        -0.1053
       7  C7         -0.4380   26.5350   53.0320  C.ar      1 <0>        -0.0486
       8  C8         -0.7730   27.7570   53.6660  C.ar      1 <0>        -0.0402
       9  C9         -1.5030   28.7250   52.9550  C.ar      1 <0>        -0.1084
      10  C10        -1.8800   28.4750   51.6710  C.ar      1 <0>        -0.1129
      11  C11        -1.5550   27.2710   51.0490  C.ar      1 <0>        -0.1142
      12  C12        -0.8430   26.3140   51.7040  C.ar      1 <0>        -0.1072
      13  N1          0.5140   30.0170   55.9720  N.am      1 <0>        -0.7222
      14  C13         0.5330   31.3590   55.8480  C.2       1 <0>         0.5425
      15  O1         -0.4690   31.9490   55.5010  O.2       1 <0>        -0.5132
      16  C14         1.7960   32.1260   56.1430  C.3       1 <0>        -0.1815
      17  S1          1.8650   32.5190   57.9080  S.3       1 <0>         0.1232
      18  C15         2.9920   33.8740   57.8750  C.2       1 <0>         0.0339
      19  N2          3.4470   34.5500   56.8360  N.2       1 <0>        -0.4369
      20  C16         4.2920   35.5500   56.9900  C.2       1 <0>         0.1197
      21  C17         4.6960   35.8680   58.2430  C.2       1 <0>        -0.2203
      22  S2          3.7940   34.6580   59.2010  S.3       1 <0>        -0.0060
      23  C18         4.8000   36.3210   55.7980  C.3       1 <0>        -0.1010
      24  C19         6.2760   36.0680   55.6290  C.2       1 <0>         0.4681
      25  O2          6.6750   34.9500   55.4000  O.co2     1 <0>        -0.6198
      26  O3          7.1480   37.0830   55.7320  O.co2     1 <0>        -0.7749
@<TRIPOS>BOND
     1     1     2 1
     2     2     3 1
     3     2    13 1
     4     3     8 ar
     5     3     4 ar
     6     4     5 ar
     7     5     6 ar
     8     6     7 ar
     9     7    12 ar
    10     7     8 ar
    11     8     9 ar
    12     9    10 ar
    13    10    11 ar
    14    11    12 ar
    15    13    14 am
    16    14    15 2
    17    14    16 1
    18    16    17 1
    19    17    18 1
    20    18    22 1
    21    18    19 2
    22    19    20 1
    23    20    21 2
    24    20    23 1
    25    21    22 1
    26    23    24 1
    27    24    25 2
    28    24    26 1

@<TRIPOS>MOLECULE
ZINC46566980_replica-1.pdb
 20 21 0 0 0
SMALL
GASTEIGER

@<TRIPOS>ATOM
       1  C1          8.5960   38.7670   57.0310  C.3       1 <0>        -0.1549
       2  C2          7.2860   38.0210   57.2920  C.3       1 <0>        -0.1059
       3  C3          7.2240   36.7730   56.4070  C.3       1 <0>        -0.1103
       4  C4          5.8040   36.2050   56.4260  C.3       1 <0>        -0.1471
       5  C5          8.1860   35.7390   56.9310  C.2       1 <0>         0.5224
       6  O1          8.8490   35.0790   56.1580  O.2       1 <0>        -0.5267
       7  N1          8.3090   35.5440   58.2600  N.am      1 <0>        -0.7272
       8  C6          9.2440   34.5380   58.7690  C.3       1 <0>         0.2776
       9  C7          9.9510   35.0780   59.9850  C.ar      1 <0>        -0.1054
      10  C8         10.8680   34.2910   60.6580  C.ar      1 <0>        -0.0787
      11  C9         11.5150   34.7870   61.7740  C.ar      1 <0>        -0.1475
      12  C10        11.2470   36.0710   62.2180  C.ar      1 <0>         0.1065
      13  C11        10.3290   36.8570   61.5420  C.ar      1 <0>        -0.1482
      14  C12         9.6850   36.3620   60.4240  C.ar      1 <0>        -0.0696
      15  F1         11.8800   36.5560   63.3080  F         1 <0>        -0.1360
      16  C13         8.4850   33.2900   59.1420  C.2       1 <0>        -0.1529
      17  C14         8.6670   32.0190   58.7100  C.2       1 <0>        -0.1406
      18  C15         7.8420   31.0210   59.1940  C.2       1 <0>        -0.1551
      19  C16         6.8760   31.3440   60.0890  C.2       1 <0>        -0.1711
      20  S1          7.1180   33.1030   60.2750  S.3       1 <0>         0.0416
@<TRIPOS>BOND
     1     1     2 1
     2     2     3 1
     3     3     4 1
     4     3     5 1
     5     5     6 2
     6     5     7 am
     7     7     8 1
     8     8     9 1
     9     8    16 1
    10     9    14 ar
    11     9    10 ar
    12    10    11 ar
    13    11    12 ar
    14    12    13 ar
    15    12    15 1
    16    13    14 ar
    17    16    20 1
    18    16    17 2
    19    17    18 1
    20    18    19 2
    21    19    20 1

@<TRIPOS>MOLECULE
ZINC18222961_replica-1.pdb
 23 26 0 0 0
SMALL
GASTEIGER

@<TRIPOS>ATOM
       1  C1         12.3590   32.2450   62.8210  C.3       1 <0>        -0.1181
       2  C2         11.9510   33.6760   62.5830  C.ar      1 <0>        -0.0815
       3  C3         12.5270   34.6920   63.3220  C.ar      1 <0>        -0.1199
       4  C4         12.1540   36.0050   63.1040  C.ar      1 <0>        -0.1118
       5  C5         11.2020   36.3010   62.1450  C.ar      1 <0>        -0.1196
       6  C6         10.6260   35.2860   61.4040  C.ar      1 <0>        -0.0774
       7  C7         11.0040   33.9740   61.6200  C.ar      1 <0>        -0.1124
       8  C8          9.5900   35.6100   60.3590  C.3       1 <0>        -0.0340
       9  C9         10.0410   35.0630   59.0030  C.3       1 <0>        -0.1055
      10  C10         9.0210   35.4210   57.9530  C.2       1 <0>         0.2898
      11  C11         8.2900   36.5930   58.0450  C.2       1 <0>        -0.3069
      12  C12         7.3450   36.9670   56.9890  C.2       1 <0>         0.2628
      13  N1          6.5590   36.1840   56.3560  N.2       1 <0>        -0.5049
      14  C13         6.4110   34.8380   56.5330  C.ar      1 <0>         0.0923
      15  C14         5.1360   34.2740   56.4800  C.ar      1 <0>        -0.0928
      16  C15         4.9740   32.9090   56.6150  C.ar      1 <0>        -0.1089
      17  C16         6.0730   32.0930   56.8020  C.ar      1 <0>        -0.1131
      18  C17         7.3430   32.6440   56.8740  C.ar      1 <0>        -0.1160
      19  C18         7.5160   34.0120   56.7580  C.ar      1 <0>         0.1128
      20  N2          8.7980   34.5640   56.9230  N.pl3     1 <0>        -0.7176
      21  C19         8.4460   37.4500   59.1590  C.2       1 <0>         0.4098
      22  O1          7.7780   38.4610   59.2330  O.2       1 <0>        -0.4627
      23  C20         9.4260   37.1290   60.2540  C.3       1 <0>        -0.1581
@<TRIPOS>BOND
     1     1     2 1
     2     2     7 ar
     3     2     3 ar
     4     3     4 ar
     5     4     5 ar
     6     5     6 ar
     7     6     7 ar
     8     6     8 1
     9     8    23 1
    10     8     9 1
    11     9    10 1
    12    10    20 1
    13    10    11 2
    14    11    12 1
    15    11    21 1
    16    12    13 2
    17    13    14 1
    18    14    19 ar
    19    14    15 ar
    20    15    16 ar
    21    16    17 ar
    22    17    18 ar
    23    18    19 ar
    24    19    20 1
    25    21    22 2
    26    21    23 1

@<TRIPOS>MOLECULE
ZINC06749322_replica-1.pdb
 21 22 0 0 0
SMALL
GASTEIGER

@<TRIPOS>ATOM
       1  C1          5.9790   35.9950   60.7140  C.3       1 <0>        -0.1560
       2  C2          5.2030   35.0820   59.7630  C.3       1 <0>        -0.0933
       3  C3          4.4070   35.9350   58.7720  C.3       1 <0>        -0.1501
       4  C4          6.1830   34.1920   58.9960  C.3       1 <0>        -0.1290
       5  C5          6.0000   34.4080   57.4930  C.3       1 <0>         0.0863
       6  N1          7.3140   34.6030   56.8630  N.pl3     1 <0>        -0.6713
       7  C6          7.7220   35.9030   56.9710  C.2       1 <0>         0.1744
       8  C7          8.5500   36.6010   57.8660  C.2       1 <0>        -0.2137
       9  C8          8.3390   37.8700   57.1470  C.2       1 <0>         0.3670
      10  O1          8.7150   39.0190   57.2780  O.2       1 <0>        -0.4101
      11  C9          7.4650   37.1350   56.1920  C.2       1 <0>         0.3434
      12  O2          6.8170   37.4220   55.2050  O.2       1 <0>        -0.3836
      13  C10         9.3230   36.2150   59.0620  C.ar      1 <0>        -0.0038
      14  C11         9.4380   37.0980   60.1390  C.ar      1 <0>        -0.1111
      15  C12        10.1590   36.7280   61.2560  C.ar      1 <0>        -0.1095
      16  C13        10.7740   35.4910   61.3070  C.ar      1 <0>        -0.0744
      17  C14        10.6690   34.6130   60.2420  C.ar      1 <0>        -0.1097
      18  C15         9.9490   34.9660   59.1210  C.ar      1 <0>        -0.0997
      19  C16        11.5640   35.0960   62.5280  C.3       1 <0>        -0.0596
      20  C17        12.8130   34.3220   62.1000  C.3       1 <0>        -0.1461
      21  C18        11.9810   36.3540   63.2940  C.3       1 <0>        -0.1461
@<TRIPOS>BOND
     1     1     2 1
     2     2     3 1
     3     2     4 1
     4     4     5 1
     5     5     6 1
     6     6     7 1
     7     7    11 1
     8     7     8 2
     9     8     9 1
    10     8    13 1
    11     9    10 2
    12     9    11 1
    13    11    12 2
    14    13    18 ar
    15    13    14 ar
    16    14    15 ar
    17    15    16 ar
    18    16    17 ar
    19    16    19 1
    20    17    18 ar
    21    19    20 1
    22    19    21 1

@<TRIPOS>MOLECULE
ZINC04849084_replica-1.pdb
 27 29 0 0 0
SMALL
GASTEIGER

@<TRIPOS>ATOM
       1  C1         -1.8830   27.5540   50.7470  C.3       1 <0>        -0.1235
       2  C2         -1.2140   27.3690   52.0850  C.ar      1 <0>        -0.0514
       3  C3         -0.4900   26.2050   52.3320  C.ar      1 <0>        -0.1118
       4  C4          0.1250   26.0080   53.5310  C.ar      1 <0>        -0.0834
       5  C5          0.0280   26.9900   54.5320  C.ar      1 <0>        -0.1158
       6  C6          0.6520   26.8180   55.7800  C.ar      1 <0>         0.0233
       7  C7          0.5220   27.8310   56.7210  C.ar      1 <0>        -0.0642
       8  C8         -0.2360   28.9830   56.4010  C.ar      1 <0>         0.1648
       9  N1         -0.8090   29.1190   55.2240  N.ar      1 <0>        -0.4792
      10  C9         -0.7090   28.1750   54.2810  C.ar      1 <0>         0.1712
      11  C10        -1.3280   28.3400   53.0310  C.ar      1 <0>        -0.0743
      12  C11        -2.1180   29.5900   52.7390  C.3       1 <0>        -0.1108
      13  S1         -0.4060   30.2650   57.5980  S.3       1 <0>         0.0441
      14  C12        -0.2990   31.7170   56.5220  C.3       1 <0>        -0.1468
      15  C13         1.0430   32.3780   56.7030  C.2       1 <0>         0.5297
      16  O1          2.0000   31.7210   57.0530  O.2       1 <0>        -0.5012
      17  N2          1.1790   33.6990   56.4750  N.am      1 <0>        -0.6661
      18  C14         2.4420   34.2960   56.5560  C.ar      1 <0>         0.1473
      19  C15         2.8400   34.9270   57.7280  C.ar      1 <0>        -0.1490
      20  C16         4.0890   35.5090   57.8060  C.ar      1 <0>        -0.0642
      21  C17         4.9390   35.4770   56.7160  C.ar      1 <0>        -0.1328
      22  C18         4.5440   34.8550   55.5460  C.ar      1 <0>        -0.0635
      23  C19         3.2980   34.2650   55.4630  C.ar      1 <0>        -0.1255
      24  C20         5.4730   34.8220   54.3600  C.3       1 <0>        -0.1155
      25  C21         4.5250   36.1880   59.0790  C.3       1 <0>        -0.1149
      26  C22         1.1420   27.7070   58.0060  C.1       1 <0>         0.2454
      27  N3          1.6340   27.6090   59.0260  N.1       1 <0>        -0.3830
@<TRIPOS>BOND
     1     1     2 1
     2     2    11 ar
     3     2     3 ar
     4     3     4 ar
     5     4     5 ar
     6     5    10 ar
     7     5     6 ar
     8     6     7 ar
     9     7     8 ar
    10     7    26 1
    11     8     9 ar
    12     8    13 1
    13     9    10 ar
    14    10    11 ar
    15    11    12 1
    16    13    14 1
    17    14    15 1
    18    15    16 2
    19    15    17 am
    20    17    18 1
    21    18    23 ar
    22    18    19 ar
    23    19    20 ar
    24    20    21 ar
    25    20    25 1
    26    21    22 ar
    27    22    23 ar
    28    22    24 1
    29    26    27 3

@<TRIPOS>MOLECULE
ZINC64983722_replica-1.pdb
 25 26 0 0 0
SMALL
GASTEIGER

@<TRIPOS>ATOM
       1  C1          0.5350   35.4840   57.2300  C.3       1 <0>        -0.1683
       2  C2          1.7830   34.9980   57.9700  C.3       1 <0>         0.1029
       3  N1          1.3920   34.0520   59.0190  N.pl3     1 <0>        -0.4435
       4  C3          0.9180   34.4060   60.2490  C.2       1 <0>        -0.0447
       5  C4          0.6590   33.2940   60.9570  C.2       1 <0>        -0.1339
       6  C5          1.0050   32.1610   60.0890  C.2       1 <0>        -0.1919
       7  C6          1.4470   32.7130   58.9040  C.2       1 <0>         0.0582
       8  C7          1.9110   31.9480   57.6920  C.3       1 <0>        -0.0630
       9  C8          0.7150   31.4620   56.9150  C.2       1 <0>         0.5290
      10  O1          0.0480   32.2480   56.2750  O.2       1 <0>        -0.5267
      11  N2          0.3860   30.1550   56.9310  N.am      1 <0>        -0.7331
      12  C9         -0.7770   29.6830   56.1750  C.3       1 <0>         0.1415
      13  C10        -1.8280   29.1400   57.1440  C.3       1 <0>        -0.1600
      14  C11        -0.3440   28.5710   55.2160  C.3       1 <0>        -0.1148
      15  C12        -0.6930   28.9710   53.7810  C.3       1 <0>        -0.0875
      16  C13        -0.8220   27.7320   52.9320  C.ar      1 <0>        -0.0723
      17  C14        -0.2080   26.5580   53.3250  C.ar      1 <0>        -0.1169
      18  C15        -0.3270   25.4220   52.5460  C.ar      1 <0>        -0.1193
      19  C16        -1.0610   25.4600   51.3760  C.ar      1 <0>        -0.1307
      20  C17        -1.6760   26.6330   50.9850  C.ar      1 <0>        -0.1200
      21  C18        -1.5610   27.7680   51.7650  C.ar      1 <0>        -0.1189
      22  C19         0.8980   30.7340   60.4140  C.2       1 <0>         0.5494
      23  O2         -0.0850   30.0960   60.0580  O.co2     1 <0>        -0.6947
      24  O3          1.7910   30.1790   61.0400  O.co2     1 <0>        -0.7027
      25  C20         0.1210   33.2230   62.3630  C.3       1 <0>        -0.0691
@<TRIPOS>BOND
     1     1     2 1
     2     2     3 1
     3     3     7 1
     4     3     4 1
     5     4     5 2
     6     5     6 1
     7     5    25 1
     8     6     7 2
     9     6    22 1
    10     7     8 1
    11     8     9 1
    12     9    10 2
    13     9    11 am
    14    11    12 1
    15    12    13 1
    16    12    14 1
    17    14    15 1
    18    15    16 1
    19    16    21 ar
    20    16    17 ar
    21    17    18 ar
    22    18    19 ar
    23    19    20 ar
    24    20    21 ar
    25    22    23 2
    26    22    24 1

@<TRIPOS>MOLECULE
ZINC54000635_replica-1.pdb
 24 25 0 0 0
SMALL
GASTEIGER

@<TRIPOS>ATOM
       1  C1          3.5590   33.2300   60.4270  C.3       1 <0>        -0.1592
       2  C2          3.7880   34.6060   59.7980  C.3       1 <0>         0.2397
       3  C3          2.6650   34.9140   58.8420  C.2       1 <0>        -0.1525
       4  C4          2.5610   35.9250   57.9440  C.2       1 <0>        -0.1476
       5  C5          1.4250   36.0120   57.1610  C.2       1 <0>        -0.1552
       6  C6          0.4500   35.0830   57.3130  C.2       1 <0>        -0.1799
       7  S1          1.1300   34.0370   58.5900  S.3       1 <0>         0.0410
       8  N1          5.0610   34.6050   59.0730  N.am      1 <0>        -0.6260
       9  C7          5.3890   33.5000   58.1700  C.3       1 <0>         0.0668
      10  C8          5.9300   35.6220   59.2370  C.2       1 <0>         0.7123
      11  O1          5.6580   36.5400   59.9870  O.2       1 <0>        -0.5791
      12  N2          7.1010   35.6220   58.5690  N.am      1 <0>        -0.7376
      13  C9          8.0460   36.7280   58.7480  C.3       1 <0>         0.2134
      14  C10         9.1040   36.3290   59.7430  C.ar      1 <0>        -0.1267
      15  C11         9.3500   37.1250   60.8470  C.ar      1 <0>        -0.0750
      16  C12        10.3210   36.7610   61.7600  C.ar      1 <0>        -0.1472
      17  C13        11.0480   35.5960   61.5700  C.ar      1 <0>         0.1295
      18  C14        10.7990   34.7980   60.4630  C.ar      1 <0>        -0.2036
      19  C15         9.8250   35.1640   59.5540  C.ar      1 <0>        -0.0628
      20  O2         12.0040   35.2350   62.4670  O.3       1 <0>        -0.3172
      21  C16        12.9220   34.2180   62.0640  C.3       1 <0>         0.0261
      22  C17         8.7060   37.0570   57.4070  C.3       1 <0>        -0.0999
      23  C18         8.0150   36.2690   56.2920  C.3       1 <0>        -0.1363
      24  C19         8.5770   38.5550   57.1290  C.3       1 <0>        -0.1462
@<TRIPOS>BOND
     1     1     2 1
     2     2     3 1
     3     2     8 1
     4     3     7 1
     5     3     4 2
     6     4     5 1
     7     5     6 2
     8     6     7 1
     9     8     9 1
    10     8    10 am
    11    10    11 2
    12    10    12 am
    13    12    13 1
    14    13    14 1
    15    13    22 1
    16    14    19 ar
    17    14    15 ar
    18    15    16 ar
    19    16    17 ar
    20    17    18 ar
    21    17    20 1
    22    18    19 ar
    23    20    21 1
    24    22    23 1
    25    22    24 1

@<TRIPOS>MOLECULE
ZINC20135155_replica-1.pdb
 20 21 0 0 0
SMALL
GASTEIGER

@<TRIPOS>ATOM
       1  C1          8.5980   38.4590   57.1220  C.3       1 <0>        -0.0728
       2  C2          7.9770   37.1700   56.6460  C.2       1 <0>         0.0611
       3  C3          8.2900   35.8870   57.1160  C.2       1 <0>         0.0349
       4  C4          7.5150   34.9980   56.4450  C.2       1 <0>         0.0645
       5  N1          6.7430   35.7020   55.5760  N.pl3     1 <0>        -0.3779
       6  N2          7.0580   37.0590   55.7230  N.2       1 <0>        -0.2943
       7  C5          5.7560   35.1410   54.6500  C.3       1 <0>         0.1022
       8  C6          7.5120   33.5020   56.6310  C.3       1 <0>        -0.0852
       9  N3          9.2350   35.5770   58.1130  N.pl3     1 <0>        -0.7584
      10  C7          8.7610   35.9980   59.4380  C.3       1 <0>         0.1967
      11  C8          7.5400   35.1630   59.8310  C.3       1 <0>        -0.1158
      12  C9          6.3900   36.0940   60.2190  C.3       1 <0>        -0.0955
      13  C10         5.2210   35.8890   59.2520  C.3       1 <0>        -0.1482
      14  C11         6.8630   37.5470   60.1460  C.3       1 <0>        -0.1517
      15  C12         9.8560   35.7950   60.4520  C.ar      1 <0>        -0.0833
      16  C13        10.5800   34.6160   60.4610  C.ar      1 <0>        -0.1015
      17  C14        11.5880   34.4320   61.3880  C.ar      1 <0>        -0.1242
      18  C15        11.8660   35.4210   62.3130  C.ar      1 <0>        -0.1269
      19  C16        11.1400   36.5960   62.3070  C.ar      1 <0>        -0.1206
      20  C17        10.1340   36.7830   61.3770  C.ar      1 <0>        -0.1167
@<TRIPOS>BOND
     1     1     2 1
     2     2     6 2
     3     2     3 1
     4     3     4 2
     5     3     9 1
     6     4     5 1
     7     4     8 1
     8     5     6 1
     9     5     7 1
    10     9    10 1
    11    10    11 1
    12    10    15 1
    13    11    12 1
    14    12    13 1
    15    12    14 1
    16    15    20 ar
    17    15    16 ar
    18    16    17 ar
    19    17    18 ar
    20    18    19 ar
    21    19    20 ar

@<TRIPOS>MOLECULE
ZINC03003259_replica-1.pdb
 21 22 0 0 0
SMALL
GASTEIGER

@<TRIPOS>ATOM
       1  C1         12.5560   29.4920   65.0030  C.3       1 <0>        -0.1536
       2  C2         12.8120   29.8940   63.5500  C.3       1 <0>         0.0518
       3  O1         13.5190   31.1350   63.5160  O.3       1 <0>        -0.3071
       4  C3         12.8600   32.2070   63.0050  C.ar      1 <0>         0.1674
       5  C4         11.5010   32.1130   62.7250  C.ar      1 <0>        -0.2270
       6  C5         10.8260   33.1980   62.2120  C.ar      1 <0>        -0.0359
       7  C6         11.5140   34.3940   61.9610  C.ar      1 <0>        -0.1436
       8  C7         12.8830   34.4810   62.2450  C.ar      1 <0>        -0.0376
       9  C8         13.5460   33.3910   62.7640  C.ar      1 <0>        -0.1330
      10  C9         15.0180   33.4840   63.0710  C.3       1 <0>        -0.1058
      11  C10        10.8010   35.5500   61.4090  C.2       1 <0>         0.0996
      12  C11         9.9650   35.3920   60.3410  C.2       1 <0>        -0.0818
      13  C12         9.3340   36.5440   59.6570  C.2       1 <0>         0.4022
      14  O2          9.4300   37.7360   59.8890  O.2       1 <0>        -0.3837
      15  S1          8.3940   35.6970   58.3940  S.3       1 <0>        -0.1286
      16  C13         8.8600   34.0280   58.8200  C.2       1 <0>         0.1421
      17  N1          9.6630   34.1820   59.8460  N.2       1 <0>        -0.4802
      18  S2          8.3580   32.5260   58.0470  S.3       1 <0>         0.0641
      19  C14         6.8040   32.2250   58.9240  C.3       1 <0>        -0.0941
      20  C15         7.0570   32.2260   60.4100  C.2       1 <0>        -0.1579
      21  C16         7.6590   31.2070   60.9730  C.2       1 <0>        -0.1521
@<TRIPOS>BOND
     1     1     2 1
     2     2     3 1
     3     3     4 1
     4     4     9 ar
     5     4     5 ar
     6     5     6 ar
     7     6     7 ar
     8     7     8 ar
     9     7    11 1
    10     8     9 ar
    11     9    10 1
    12    11    12 2
    13    12    17 1
    14    12    13 1
    15    13    14 2
    16    13    15 1
    17    15    16 1
    18    16    17 2
    19    16    18 1
    20    18    19 1
    21    19    20 1
    22    20    21 2

@<TRIPOS>MOLECULE
ZINC64687161_replica-1.pdb
 23 23 0 0 0
SMALL
GASTEIGER

@<TRIPOS>ATOM
       1  C1          1.3610   29.8920   58.3580  C.3       1 <0>        -0.1481
       2  C2          0.4570   31.0730   58.7210  C.3       1 <0>        -0.0915
       3  C3          1.2720   32.1270   59.4740  C.3       1 <0>        -0.1421
       4  C4         -0.1160   31.6880   57.4440  C.3       1 <0>        -0.1252
       5  C5          0.8800   31.5080   56.2970  C.3       1 <0>         0.1744
       6  C6          0.1840   30.8750   55.1210  C.2       1 <0>         0.4641
       7  O1         -0.5950   31.5220   54.4610  O.2       1 <0>        -0.4911
       8  O2          0.4270   29.5940   54.8060  O.3       1 <0>        -0.3346
       9  C7         -0.6720   28.6840   54.8940  C.3       1 <0>         0.1302
      10  C8         -0.3610   27.6100   55.9380  C.3       1 <0>        -0.1666
      11  C9         -0.8940   28.0340   53.5530  C.ar      1 <0>        -0.0999
      12  C10        -0.3500   26.7900   53.2890  C.ar      1 <0>        -0.1027
      13  C11        -0.5550   26.1940   52.0570  C.ar      1 <0>         0.0931
      14  C12        -1.3050   26.8420   51.0890  C.ar      1 <0>        -0.1192
      15  C13        -1.8490   28.0840   51.3530  C.ar      1 <0>        -0.1206
      16  C14        -1.6480   28.6790   52.5870  C.ar      1 <0>         0.1016
      17  F1         -2.1840   29.8920   52.8480  F         1 <0>        -0.1291
      18  F2         -0.0230   24.9790   51.7970  F         1 <0>        -0.1303
      19  N1          1.4150   32.8150   55.9050  N.am      1 <0>        -0.6985
      20  C15         2.7110   33.1070   56.1280  C.2       1 <0>         0.6519
      21  O3          3.4370   32.2870   56.6560  O.2       1 <0>        -0.5531
      22  O4          3.2020   34.3080   55.7680  O.3       1 <0>        -0.3628
      23  C16         2.7560   35.4420   56.5130  C.3       1 <0>         0.0540
@<TRIPOS>BOND
     1     1     2 1
     2     2     3 1
     3     2     4 1
     4     4     5 1
     5     5     6 1
     6     5    19 1
     7     6     7 2
     8     6     8 1
     9     8     9 1
    10     9    10 1
    11     9    11 1
    12    11    16 ar
    13    11    12 ar
    14    12    13 ar
    15    13    14 ar
    16    13    18 1
    17    14    15 ar
    18    15    16 ar
    19    16    17 1
    20    19    20 am
    21    20    21 2
    22    20    22 1
    23    22    23 1

@<TRIPOS>MOLECULE
ZINC57358954_replica-1.pdb
 26 29 0 0 0
SMALL
GASTEIGER

@<TRIPOS>ATOM
       1  C1         -1.2760   27.6580   59.6420  C.ar      1 <0>        -0.1058
       2  C2         -0.8700   28.5210   60.6570  C.ar      1 <0>        -0.0950
       3  C3         -0.3580   29.7500   60.3710  C.ar      1 <0>        -0.0906
       4  C4         -0.2350   30.1600   59.0300  C.ar      1 <0>         0.1345
       5  C5         -0.6510   29.2770   58.0020  C.ar      1 <0>        -0.0613
       6  C6         -1.1720   28.0210   58.3320  C.ar      1 <0>        -0.1009
       7  C7         -0.5210   29.7090   56.6090  C.ar      1 <0>        -0.0683
       8  C8          0.0070   30.9700   56.3790  C.ar      1 <0>        -0.1153
       9  C9          0.3880   31.7680   57.4720  C.ar      1 <0>         0.2357
      10  N1          0.2630   31.3580   58.7200  N.ar      1 <0>        -0.4387
      11  C10         0.9480   33.1080   57.2150  C.2       1 <0>        -0.0001
      12  C11         0.4520   34.2850   57.6840  C.2       1 <0>        -0.1363
      13  C12         1.2940   35.3030   57.1970  C.2       1 <0>        -0.2194
      14  C13         2.2540   34.7040   56.4630  C.2       1 <0>        -0.0138
      15  O1          2.0450   33.3790   56.4810  O.3       1 <0>        -0.1700
      16  C14        -0.9360   28.8330   55.4920  C.2       1 <0>         0.5614
      17  O2         -2.0920   28.4660   55.4040  O.2       1 <0>        -0.4847
      18  N2         -0.0320   28.4430   54.5710  N.am      1 <0>        -0.6608
      19  C15        -0.4320   27.6450   53.4920  C.ar      1 <0>         0.0728
      20  C16        -0.0440   26.3110   53.4310  C.ar      1 <0>         0.1322
      21  C17        -0.4410   25.5260   52.3630  C.ar      1 <0>        -0.1463
      22  C18        -1.2210   26.0650   51.3580  C.ar      1 <0>        -0.0698
      23  C19        -1.6090   27.3920   51.4150  C.ar      1 <0>        -0.1452
      24  C20        -1.2220   28.1820   52.4830  C.ar      1 <0>         0.1076
      25  F1         -1.6070   29.4750   52.5410  F         1 <0>        -0.1267
      26  F2          0.7200   25.7830   54.4120  F         1 <0>        -0.1087
@<TRIPOS>BOND
     1     1     6 ar
     2     1     2 ar
     3     2     3 ar
     4     3     4 ar
     5     4    10 ar
     6     4     5 ar
     7     5     6 ar
     8     5     7 ar
     9     7     8 ar
    10     7    16 1
    11     8     9 ar
    12     9    10 ar
    13     9    11 1
    14    11    15 1
    15    11    12 2
    16    12    13 1
    17    13    14 2
    18    14    15 1
    19    16    17 2
    20    16    18 am
    21    18    19 1
    22    19    24 ar
    23    19    20 ar
    24    20    21 ar
    25    20    26 1
    26    21    22 ar
    27    22    23 ar
    28    23    24 ar
    29    24    25 1

@<TRIPOS>MOLECULE
ZINC36739511_replica-1.pdb
 27 29 0 0 0
SMALL
GASTEIGER

@<TRIPOS>ATOM
       1  C1          7.1400   38.5410   55.6170  C.3       1 <0>        -0.1394
       2  C2          7.6050   37.3090   56.3970  C.3       1 <0>        -0.0953
       3  C3          8.3280   36.3480   55.4510  C.3       1 <0>        -0.1458
       4  C4          8.5600   37.7420   57.5110  C.3       1 <0>        -0.1173
       5  C5          7.9720   37.3480   58.8680  C.3       1 <0>         0.1837
       6  C6          9.0180   36.6260   59.6780  C.ar      1 <0>        -0.0882
       7  C7          9.5410   35.4290   59.2210  C.ar      1 <0>        -0.1137
       8  C8         10.5010   34.7660   59.9640  C.ar      1 <0>        -0.1159
       9  C9         10.9360   35.2980   61.1630  C.ar      1 <0>        -0.1213
      10  C10        10.4150   36.4940   61.6190  C.ar      1 <0>        -0.1166
      11  C11         9.4580   37.1600   60.8740  C.ar      1 <0>        -0.1074
      12  N1          6.8190   36.4690   58.6640  N.am      1 <0>        -0.7260
      13  C12         5.6920   36.6610   59.3780  C.2       1 <0>         0.5282
      14  O1          5.6320   37.5620   60.1880  O.2       1 <0>        -0.5227
      15  C13         4.5040   35.7570   59.1680  C.3       1 <0>        -0.1549
      16  C14         4.1630   35.7000   57.6780  C.3       1 <0>         0.1423
      17  N2          3.5400   34.4110   57.3680  N.pl3     1 <0>        -0.4889
      18  C15         4.1760   33.2070   57.1620  C.2       1 <0>         0.1777
      19  N3          3.2410   32.3150   56.9140  N.2       1 <0>        -0.2578
      20  N4          2.0830   32.8730   56.9500  N.2       1 <0>        -0.3353
      21  C16         2.2040   34.1510   57.2290  C.2       1 <0>         0.3832
      22  S1          0.8910   35.3150   57.3900  S.3       1 <0>        -0.7894
      23  C17         5.6270   32.9630   57.2110  C.2       1 <0>        -0.0386
      24  C18         6.5660   33.1390   56.2260  C.2       1 <0>        -0.1453
      25  C19         7.8800   32.8400   56.5060  C.2       1 <0>        -0.1433
      26  C20         8.2070   32.3820   57.7420  C.2       1 <0>        -0.1954
      27  S2          6.6230   32.3670   58.5670  S.3       1 <0>         0.0540
@<TRIPOS>BOND
     1     1     2 1
     2     2     3 1
     3     2     4 1
     4     4     5 1
     5     5     6 1
     6     5    12 1
     7     6    11 ar
     8     6     7 ar
     9     7     8 ar
    10     8     9 ar
    11     9    10 ar
    12    10    11 ar
    13    12    13 am
    14    13    14 2
    15    13    15 1
    16    15    16 1
    17    16    17 1
    18    17    21 1
    19    17    18 1
    20    18    19 2
    21    18    23 1
    22    19    20 1
    23    20    21 2
    24    21    22 1
    25    23    27 1
    26    23    24 2
    27    24    25 1
    28    25    26 2
    29    26    27 1

@<TRIPOS>MOLECULE
ZINC13388525_replica-1.pdb
 26 27 0 0 0
SMALL
GASTEIGER

@<TRIPOS>ATOM
       1  C1          2.3830   36.0460   57.1580  C.2       1 <0>        -0.1443
       2  C2          3.5840   36.0220   56.4750  C.2       1 <0>        -0.1251
       3  C3          4.7350   35.8580   57.1720  C.2       1 <0>        -0.1187
       4  S1          4.1350   35.7460   58.8510  S.3       1 <0>        -0.0051
       5  C4          2.3920   35.9170   58.5080  C.2       1 <0>        -0.1865
       6  C5          6.1510   35.7940   56.6640  C.3       1 <0>         0.2461
       7  C6          6.5500   37.1560   56.0910  C.3       1 <0>        -0.1644
       8  C7          7.5490   37.8140   57.0090  C.2       1 <0>         0.4690
       9  O1          7.1770   38.3250   58.0390  O.co2     1 <0>        -0.6322
      10  N1          7.0510   35.4460   57.7670  N.am      1 <0>        -0.7199
      11  C8          7.9080   34.4140   57.6390  C.2       1 <0>         0.5431
      12  O2          7.8730   33.7150   56.6430  O.2       1 <0>        -0.5352
      13  C9          8.8770   34.1320   58.6960  C.2       1 <0>        -0.1944
      14  C10         9.1710   35.0790   59.6110  C.2       1 <0>        -0.0319
      15  C11        10.1470   34.7960   60.6750  C.ar      1 <0>        -0.0811
      16  C12        10.8700   35.8420   61.2600  C.ar      1 <0>        -0.0601
      17  C13        11.7820   35.5710   62.2560  C.ar      1 <0>        -0.1233
      18  C14        11.9850   34.2630   62.6790  C.ar      1 <0>         0.1073
      19  C15        11.2730   33.2200   62.0970  C.ar      1 <0>        -0.1905
      20  C16        10.3550   33.4800   61.1050  C.ar      1 <0>        -0.0629
      21  O3         12.8860   34.0010   63.6600  O.3       1 <0>        -0.3098
      22  C17        14.1470   33.4630   63.2570  C.3       1 <0>         0.6037
      23  F1         14.4190   33.8500   61.9400  F         1 <0>        -0.1640
      24  F2         15.1520   33.9460   64.1020  F         1 <0>        -0.1315
      25  F3         14.1030   32.0670   63.3330  F         1 <0>        -0.1636
      26  O4          8.8510   37.8300   56.6830  O.co2     1 <0>        -0.7714
@<TRIPOS>BOND
     1     1     5 2
     2     1     2 1
     3     2     3 2
     4     3     4 1
     5     3     6 1
     6     4     5 1
     7     6     7 1
     8     6    10 1
     9     7     8 1
    10     8     9 2
    11     8    26 1
    12    10    11 am
    13    11    12 2
    14    11    13 1
    15    13    14 2
    16    14    15 1
    17    15    20 ar
    18    15    16 ar
    19    16    17 ar
    20    17    18 ar
    21    18    19 ar
    22    18    21 1
    23    19    20 ar
    24    21    22 1
    25    22    23 1
    26    22    24 1
    27    22    25 1

@<TRIPOS>MOLECULE
ZINC30824575_replica-1.pdb
 28 29 0 0 0
SMALL
GASTEIGER

@<TRIPOS>ATOM
       1  C1          0.5860   34.5680   58.7170  C.3       1 <0>        -0.1933
       2  C2          1.9790   34.7810   59.3120  C.3       1 <0>        -0.0158
       3  N1          2.6080   35.9490   58.6830  N.4       1 <0>        -0.3973
       4  C3          4.0730   35.8480   58.7330  C.3       1 <0>        -0.0136
       5  C4          4.4790   34.8220   59.7910  C.3       1 <0>        -0.1887
       6  C5          2.1380   36.1200   57.3020  C.3       1 <0>        -0.0119
       7  C6          3.3410   36.1930   56.3590  C.3       1 <0>         0.0252
       8  N2          3.0560   35.4220   55.1420  N.3       1 <0>        -0.6609
       9  C7          3.9110   34.2300   55.0620  C.3       1 <0>         0.1547
      10  C8          3.4210   33.1930   56.0380  C.2       1 <0>         0.1414
      11  N3          4.1290   32.6160   56.9690  N.2       1 <0>        -0.2503
      12  N4          3.3920   31.7840   57.6170  N.2       1 <0>        -0.2766
      13  C9          2.1780   31.8020   57.1180  C.2       1 <0>         0.2361
      14  O1          2.1760   32.6900   56.1050  O.3       1 <0>        -0.2225
      15  C10         1.0290   30.9920   57.5780  C.ar      1 <0>        -0.0350
      16  C11         0.0280   30.6240   56.6780  C.ar      1 <0>        -0.0691
      17  C12        -1.0390   29.8630   57.1130  C.ar      1 <0>        -0.0640
      18  C13        -1.1190   29.4710   58.4380  C.ar      1 <0>        -0.0771
      19  C14        -0.1310   29.8380   59.3340  C.ar      1 <0>        -0.0669
      20  C15         0.9400   30.5980   58.9130  C.ar      1 <0>        -0.0887
      21  C16        -0.2260   29.4050   60.7750  C.3       1 <0>        -0.0283
      22  C17        -0.2570   30.6410   61.6770  C.3       1 <0>        -0.1434
      23  C18        -1.5040   28.5910   60.9810  C.3       1 <0>        -0.1478
      24  C19         0.9900   28.5460   61.1310  C.3       1 <0>        -0.1426
      25  C20        -2.1200   29.4600   56.1430  C.3       1 <0>        -0.0288
      26  C21        -2.9460   30.6900   55.7620  C.3       1 <0>        -0.1510
      27  C22        -1.4800   28.8660   54.8850  C.3       1 <0>        -0.1429
      28  C23        -3.0270   28.4170   56.7950  C.3       1 <0>        -0.1424
@<TRIPOS>BOND
     1     1     2 1
     2     2     3 1
     3     3     4 1
     4     3     6 1
     5     4     5 1
     6     6     7 1
     7     7     8 1
     8     8     9 1
     9     9    10 1
    10    10    14 1
    11    10    11 2
    12    11    12 1
    13    12    13 2
    14    13    14 1
    15    13    15 1
    16    15    20 ar
    17    15    16 ar
    18    16    17 ar
    19    17    18 ar
    20    17    25 1
    21    18    19 ar
    22    19    20 ar
    23    19    21 1
    24    21    22 1
    25    21    23 1
    26    21    24 1
    27    25    26 1
    28    25    27 1
    29    25    28 1

@<TRIPOS>MOLECULE
ZINC61372979_replica-1.pdb
 24 26 0 0 0
SMALL
GASTEIGER

@<TRIPOS>ATOM
       1  C1          1.0850   32.5940   60.8090  C.3       1 <0>        -0.1459
       2  C2          0.6490   32.5190   59.3440  C.3       1 <0>        -0.1052
       3  C3          0.6500   33.9030   58.7490  C.2       1 <0>        -0.1085
       4  C4          0.7410   34.0590   57.4310  C.2       1 <0>        -0.1704
       5  C5          0.8650   35.4410   56.8440  C.3       1 <0>        -0.1039
       6  C6          0.7210   32.8830   56.5470  C.2       1 <0>         0.5612
       7  O1          1.7530   32.2860   56.3070  O.2       1 <0>        -0.5348
       8  N1         -0.4390   32.4680   56.0050  N.am      1 <0>        -0.7227
       9  C7         -0.4590   31.2970   55.1240  C.3       1 <0>         0.1285
      10  C8         -1.8550   30.6700   55.1410  C.3       1 <0>         0.0659
      11  C9         -1.9150   29.6070   56.2080  C.2       1 <0>        -0.1289
      12  C10        -2.9370   28.7770   56.5290  C.2       1 <0>        -0.1569
      13  C11        -2.7650   27.8690   57.5570  C.2       1 <0>        -0.1529
      14  C12        -1.5800   27.8360   58.2140  C.2       1 <0>        -0.1747
      15  S1         -0.6560   29.1100   57.3720  S.3       1 <0>         0.0345
      16  C13        -2.1420   30.0500   53.7980  C.2       1 <0>        -0.1721
      17  C14        -3.0070   30.5050   52.8770  C.2       1 <0>         0.0744
      18  N2         -2.9990   29.6820   51.7830  N.pl3     1 <0>        -0.5902
      19  C15        -2.1060   28.6520   51.9790  C.ar      1 <0>         0.0965
      20  C16        -1.5260   28.8400   53.2460  C.ar      1 <0>        -0.0932
      21  C17        -0.5670   27.9400   53.7150  C.ar      1 <0>        -0.0729
      22  C18        -0.1950   26.8790   52.9380  C.ar      1 <0>        -0.1422
      23  C19        -0.7620   26.6920   51.6840  C.ar      1 <0>        -0.0980
      24  C20        -1.7160   27.5630   51.2060  C.ar      1 <0>        -0.1278
@<TRIPOS>BOND
     1     1     2 1
     2     2     3 1
     3     3     4 2
     4     4     5 1
     5     4     6 1
     6     6     7 2
     7     6     8 am
     8     8     9 1
     9     9    10 1
    10    10    11 1
    11    10    16 1
    12    11    15 1
    13    11    12 2
    14    12    13 1
    15    13    14 2
    16    14    15 1
    17    16    20 1
    18    16    17 2
    19    17    18 1
    20    18    19 1
    21    19    24 ar
    22    19    20 ar
    23    20    21 ar
    24    21    22 ar
    25    22    23 ar
    26    23    24 ar

@<TRIPOS>MOLECULE
ZINC00097245_replica-1.pdb
 24 25 0 0 0
SMALL
GASTEIGER

@<TRIPOS>ATOM
       1  C1          6.8830   37.4100   56.0280  C.3       1 <0>        -0.1655
       2  C2          8.0140   37.3240   57.0540  C.3       1 <0>        -0.0842
       3  C3          8.8320   38.6160   57.0210  C.3       1 <0>        -0.1454
       4  C4          7.4210   37.1300   58.4510  C.3       1 <0>        -0.0509
       5  C5          8.5070   36.6920   59.4000  C.ar      1 <0>        -0.0981
       6  C6          9.3730   35.6770   59.0370  C.ar      1 <0>        -0.0408
       7  C7         10.3720   35.2770   59.9030  C.ar      1 <0>        -0.1902
       8  C8         10.4980   35.8860   61.1440  C.ar      1 <0>         0.1092
       9  C9          9.6250   36.9010   61.5080  C.ar      1 <0>        -0.1370
      10  C10         8.6310   37.3020   60.6350  C.ar      1 <0>        -0.0742
      11  O1         11.4760   35.4920   62.0000  O.3       1 <0>        -0.3210
      12  C11        11.9310   34.1410   61.8860  C.3       1 <0>         0.4114
      13  F1         13.2840   34.1320   61.5330  F         1 <0>        -0.1966
      14  F2         11.7640   33.4890   63.1120  F         1 <0>        -0.1981
      15  C12         6.3450   36.0770   58.3990  C.2       1 <0>         0.5348
      16  O2          6.5550   35.0220   57.8380  O.2       1 <0>        -0.4842
      17  N1          5.1480   36.3080   58.9750  N.am      1 <0>        -0.5822
      18  N2          4.1210   35.3610   58.8610  N.2       1 <0>        -0.2145
      19  C13         2.8870   35.7520   58.7320  C.2       1 <0>         0.1334
      20  C14         1.8140   34.7610   58.6140  C.2       1 <0>         0.0150
      21  C15         0.7220   34.8540   57.8000  C.2       1 <0>        -0.1601
      22  C16        -0.0410   33.6920   58.0120  C.2       1 <0>        -0.2187
      23  C17         0.6140   32.9480   58.9260  C.2       1 <0>        -0.0153
      24  O3          1.7320   33.5970   59.2900  O.3       1 <0>        -0.1564
@<TRIPOS>BOND
     1     1     2 1
     2     2     3 1
     3     2     4 1
     4     4     5 1
     5     4    15 1
     6     5    10 ar
     7     5     6 ar
     8     6     7 ar
     9     7     8 ar
    10     8     9 ar
    11     8    11 1
    12     9    10 ar
    13    11    12 1
    14    12    13 1
    15    12    14 1
    16    15    16 2
    17    15    17 am
    18    17    18 1
    19    18    19 2
    20    19    20 1
    21    20    24 1
    22    20    21 2
    23    21    22 1
    24    22    23 2
    25    23    24 1

@<TRIPOS>MOLECULE
ZINC32903255_replica-1.pdb
 21 21 0 0 0
SMALL
GASTEIGER

@<TRIPOS>ATOM
       1  C1         13.9870   31.7240   63.8250  C.3       1 <0>        -0.1605
       2  C2         13.9540   33.2450   63.6650  C.3       1 <0>         0.1482
       3  C3         15.3810   33.7720   63.5020  C.3       1 <0>         0.0512
       4  O1         15.8940   34.1590   64.7790  O.3       1 <0>        -0.3876
       5  C4         17.2770   34.5180   64.7640  C.3       1 <0>         0.0279
       6  N1         13.1660   33.5940   62.4810  N.am      1 <0>        -0.7300
       7  C5         12.3030   34.6280   62.5250  C.2       1 <0>         0.5479
       8  O2         12.1760   35.2720   63.5510  O.2       1 <0>        -0.5494
       9  C6         11.5170   34.9770   61.3430  C.2       1 <0>        -0.2052
      10  C7         10.6360   35.9990   61.3940  C.2       1 <0>        -0.0272
      11  C8          9.8470   36.3500   60.2060  C.ar      1 <0>        -0.0614
      12  C9          9.2190   37.5990   60.1230  C.ar      1 <0>        -0.0753
      13  C10         8.4860   37.9210   59.0180  C.ar      1 <0>        -0.0822
      14  C11         8.3610   37.0090   57.9730  C.ar      1 <0>        -0.0990
      15  C12         8.9800   35.7630   58.0530  C.ar      1 <0>        -0.1213
      16  C13         9.7200   35.4350   59.1530  C.ar      1 <0>        -0.0796
      17  S1          7.4140   37.4280   56.5470  S.3       1 <0>        -0.0186
      18  C14         5.9990   36.2950   56.6110  C.3       1 <0>         0.4513
      19  F1          5.5600   36.1710   57.9330  F         1 <0>        -0.1624
      20  F2          4.9610   36.8000   55.8210  F         1 <0>        -0.1433
      21  F3          6.3850   35.0400   56.1280  F         1 <0>        -0.1625
@<TRIPOS>BOND
     1     1     2 1
     2     2     3 1
     3     2     6 1
     4     3     4 1
     5     4     5 1
     6     6     7 am
     7     7     8 2
     8     7     9 1
     9     9    10 2
    10    10    11 1
    11    11    16 ar
    12    11    12 ar
    13    12    13 ar
    14    13    14 ar
    15    14    15 ar
    16    14    17 1
    17    15    16 ar
    18    17    18 1
    19    18    19 1
    20    18    20 1
    21    18    21 1

@<TRIPOS>MOLECULE
ZINC00278014_replica-1.pdb
 21 24 0 0 0
SMALL
GASTEIGER

@<TRIPOS>ATOM
       1  C1         -1.2860   26.0890   51.0660  C.ar      1 <0>        -0.1155
       2  C2         -1.6190   27.4400   51.1660  C.ar      1 <0>        -0.1061
       3  C3         -1.2890   28.1630   52.2710  C.ar      1 <0>        -0.1134
       4  C4         -0.6030   27.5410   53.3290  C.ar      1 <0>        -0.0333
       5  C5         -0.2650   26.1690   53.2280  C.ar      1 <0>        -0.0560
       6  C6         -0.6230   25.4550   52.0720  C.ar      1 <0>        -0.1021
       7  C7          0.4200   25.5480   54.2860  C.ar      1 <0>        -0.0873
       8  C8          0.7490   26.2720   55.3910  C.ar      1 <0>        -0.1228
       9  C9          0.4120   27.6190   55.4930  C.ar      1 <0>        -0.0810
      10  C10        -0.2450   28.2560   54.4850  C.ar      1 <0>        -0.1068
      11  C11        -0.5950   29.7160   54.6130  C.3       1 <0>         0.1653
      12  N1          0.6120   30.4810   54.9390  N.pl3     1 <0>        -0.6677
      13  C12         0.6440   31.2670   56.0730  C.2       1 <0>         0.4190
      14  N2          0.8320   32.5640   56.1700  N.2       1 <0>        -0.5860
      15  C13         0.8380   33.2080   57.3580  C.ar      1 <0>         0.1291
      16  C14         1.0280   34.5870   57.6010  C.ar      1 <0>        -0.0873
      17  C15         1.0040   35.0830   58.8790  C.ar      1 <0>        -0.0984
      18  C16         0.7940   34.2570   59.9730  C.ar      1 <0>        -0.1196
      19  C17         0.6060   32.9010   59.7710  C.ar      1 <0>        -0.0535
      20  C18         0.6290   32.3960   58.4960  C.ar      1 <0>        -0.1648
      21  S1          0.4330   30.7820   57.7790  S.3       1 <0>        -0.0223
@<TRIPOS>BOND
     1     1     6 ar
     2     1     2 ar
     3     2     3 ar
     4     3     4 ar
     5     4    10 ar
     6     4     5 ar
     7     5     6 ar
     8     5     7 ar
     9     7     8 ar
    10     8     9 ar
    11     9    10 ar
    12    10    11 1
    13    11    12 1
    14    12    13 1
    15    13    21 1
    16    13    14 2
    17    14    15 1
    18    15    20 ar
    19    15    16 ar
    20    16    17 ar
    21    17    18 ar
    22    18    19 ar
    23    19    20 ar
    24    20    21 1

@<TRIPOS>MOLECULE
ZINC05325003_replica-1.pdb
 24 24 0 0 0
SMALL
GASTEIGER

@<TRIPOS>ATOM
       1  C1          8.5440   31.9440   58.3570  C.3       1 <0>        -0.1535
       2  C2          7.0930   32.1190   58.8110  C.3       1 <0>         0.0607
       3  O1          6.6550   33.4720   58.5190  O.3       1 <0>        -0.3522
       4  C3          6.7350   34.3680   59.5170  C.2       1 <0>         0.4759
       5  O2          6.9000   33.9920   60.6530  O.2       1 <0>        -0.4977
       6  C4          6.6180   35.8400   59.2190  C.3       1 <0>        -0.0667
       7  C5          6.2280   36.5900   60.4950  C.3       1 <0>        -0.1469
       8  C6          5.5470   36.0620   58.1510  C.3       1 <0>        -0.1397
       9  C7          7.9620   36.3650   58.7100  C.3       1 <0>         0.1789
      10  C8          7.9410   36.4230   57.1820  C.3       1 <0>        -0.1373
      11  C9          8.2960   37.8380   56.7200  C.3       1 <0>        -0.0907
      12  C10         7.2400   38.3310   55.7290  C.3       1 <0>        -0.1515
      13  C11         8.3370   38.7740   57.9290  C.3       1 <0>        -0.1463
      14  N1          9.0340   35.4680   59.1500  N.am      1 <0>        -0.6983
      15  C12         9.9390   35.8920   60.0550  C.2       1 <0>         0.6521
      16  O3          9.8790   37.0250   60.4880  O.2       1 <0>        -0.5661
      17  O4         10.9080   35.0590   60.4800  O.3       1 <0>        -0.3646
      18  C13        10.5290   34.0480   61.4500  C.3       1 <0>         0.1305
      19  C14        11.7660   33.4930   62.1070  C.ar      1 <0>        -0.1016
      20  C15        12.9550   34.1970   62.0490  C.ar      1 <0>        -0.0932
      21  C16        14.0890   33.6910   62.6560  C.ar      1 <0>        -0.1234
      22  C17        14.0370   32.4750   63.3130  C.ar      1 <0>        -0.1069
      23  C18        12.8500   31.7680   63.3650  C.ar      1 <0>        -0.1233
      24  C19        11.7150   32.2770   62.7620  C.ar      1 <0>        -0.0928
@<TRIPOS>BOND
     1     1     2 1
     2     2     3 1
     3     3     4 1
     4     4     5 2
     5     4     6 1
     6     6     7 1
     7     6     8 1
     8     6     9 1
     9     9    10 1
    10     9    14 1
    11    10    11 1
    12    11    12 1
    13    11    13 1
    14    14    15 am
    15    15    16 2
    16    15    17 1
    17    17    18 1
    18    18    19 1
    19    19    24 ar
    20    19    20 ar
    21    20    21 ar
    22    21    22 ar
    23    22    23 ar
    24    23    24 ar

@<TRIPOS>MOLECULE
ZINC39354072_replica-1.pdb
 24 28 0 0 0
SMALL
GASTEIGER

@<TRIPOS>ATOM
       1  C1          0.8610   34.3420   59.9900  C.3       1 <0>         0.0236
       2  O1          1.0490   35.5480   59.2470  O.3       1 <0>        -0.3055
       3  C2          2.1450   35.6140   58.4450  C.ar      1 <0>         0.1090
       4  C3          3.3740   35.1710   58.9100  C.ar      1 <0>        -0.1765
       5  C4          4.4870   35.2380   58.0920  C.ar      1 <0>        -0.0461
       6  C5          4.3780   35.7470   56.8120  C.ar      1 <0>        -0.1307
       7  C6          3.1570   36.1910   56.3420  C.ar      1 <0>        -0.1007
       8  C7          2.0360   36.1210   57.1530  C.ar      1 <0>         0.0804
       9  O2          0.8320   36.5520   56.6910  O.3       1 <0>        -0.4853
      10  C8          5.8220   34.7560   58.6000  C.3       1 <0>        -0.0154
      11  C9          6.7970   35.9210   58.7050  C.3       1 <0>        -0.0838
      12  C10         6.3200   37.1860   59.4610  C.3       1 <0>        -0.0848
      13  C11         7.2310   38.2700   58.7800  C.3       1 <0>        -0.1237
      14  C12         8.6600   37.8340   59.1990  C.3       1 <0>        -0.1233
      15  C13         8.4790   36.6990   60.2390  C.3       1 <0>        -0.0603
      16  C14         7.0500   37.1090   60.8520  C.3       1 <0>        -0.1213
      17  C15         7.9790   35.4400   59.5740  C.3       1 <0>        -0.1457
      18  S1          8.9880   34.2720   58.7040  S.3       1 <0>         0.1543
      19  C16         7.8130   33.2710   58.0350  C.2       1 <0>         0.1977
      20  N1          7.9610   31.9940   57.8530  N.2       1 <0>        -0.5609
      21  C17         6.9790   31.1570   57.4600  C.2       1 <0>         0.5748
      22  O3          7.0600   29.9830   57.1420  O.2       1 <0>        -0.3803
      23  S2          5.5240   32.2060   57.5230  S.3       1 <0>        -0.2623
      24  C18         6.4420   33.7860   57.6050  C.3       1 <0>        -0.0664
@<TRIPOS>BOND
     1     1     2 1
     2     2     3 1
     3     3     8 ar
     4     3     4 ar
     5     4     5 ar
     6     5     6 ar
     7     5    10 1
     8     6     7 ar
     9     7     8 ar
    10     8     9 1
    11    10    24 1
    12    10    11 1
    13    11    17 1
    14    11    12 1
    15    12    16 1
    16    12    13 1
    17    13    14 1
    18    14    15 1
    19    15    16 1
    20    15    17 1
    21    17    18 1
    22    18    19 1
    23    19    24 1
    24    19    20 2
    25    20    21 1
    26    21    22 2
    27    21    23 1
    28    23    24 1

@<TRIPOS>MOLECULE
ZINC41414916_replica-1.pdb
 20 21 0 0 0
SMALL
GASTEIGER

@<TRIPOS>ATOM
       1  C1          7.8690   31.5640   60.8790  C.3       1 <0>        -0.1463
       2  C2          7.5050   31.7410   59.4030  C.3       1 <0>        -0.0168
       3  C3          8.0330   30.5500   58.6000  C.3       1 <0>        -0.1411
       4  C4          5.9840   31.8190   59.2590  C.3       1 <0>        -0.1402
       5  C5          8.1240   33.0120   58.8830  C.ar      1 <0>        -0.1019
       6  C6          8.7810   33.8660   59.7470  C.ar      1 <0>        -0.0720
       7  C7          9.3490   35.0330   59.2710  C.ar      1 <0>        -0.1097
       8  C8          9.2630   35.3480   57.9270  C.ar      1 <0>        -0.0448
       9  C9          8.6080   34.4970   57.0580  C.ar      1 <0>        -0.2064
      10  C10         8.0410   33.3230   57.5330  C.ar      1 <0>         0.1389
      11  O1          7.4010   32.4820   56.6790  O.3       1 <0>        -0.3072
      12  C11         6.4710   33.0680   55.7660  C.3       1 <0>         0.0226
      13  C12        10.0640   35.9630   60.2170  C.3       1 <0>         0.0003
      14  C13        10.4990   35.1880   61.4610  C.3       1 <0>        -0.1494
      15  C14        11.6670   35.7530   62.2740  C.3       1 <0>        -0.1675
      16  C15        11.8640   34.4970   61.4220  C.3       1 <0>        -0.1650
      17  C16         9.1360   37.0810   60.6210  C.2       1 <0>         0.4648
      18  O2          8.5270   37.0130   61.6620  O.2       1 <0>        -0.4935
      19  O3          8.9870   38.1500   59.8240  O.3       1 <0>        -0.3489
      20  C17         7.6720   38.4110   59.3300  C.3       1 <0>         0.0321
@<TRIPOS>BOND
     1     1     2 1
     2     2     3 1
     3     2     4 1
     4     2     5 1
     5     5    10 ar
     6     5     6 ar
     7     6     7 ar
     8     7     8 ar
     9     7    13 1
    10     8     9 ar
    11     9    10 ar
    12    10    11 1
    13    11    12 1
    14    13    14 1
    15    13    17 1
    16    14    16 1
    17    14    15 1
    18    15    16 1
    19    17    18 2
    20    17    19 1
    21    19    20 1

@<TRIPOS>MOLECULE
ZINC19902859_replica-1.pdb
 23 25 0 0 0
SMALL
GASTEIGER

@<TRIPOS>ATOM
       1  C1          7.7290   32.7980   56.3610  C.3       1 <0>        -0.2269
       2  C2          7.2140   34.0350   57.0500  C.2       1 <0>         0.2542
       3  C3          6.2880   33.9240   58.0180  C.2       1 <0>        -0.2695
       4  C4          5.7470   35.1350   58.7200  C.3       1 <0>         0.0813
       5  C5          6.6510   36.3260   58.5180  C.2       1 <0>        -0.2741
       6  C6          7.5600   36.3400   57.5210  C.2       1 <0>         0.2131
       7  N1          7.6920   35.2630   56.6850  N.pl3     1 <0>        -0.6456
       8  C7          8.4520   37.5370   57.2990  C.3       1 <0>        -0.0998
       9  C8          8.7280   38.2260   58.6380  C.3       1 <0>        -0.1116
      10  C9          7.3890   38.6360   59.2590  C.3       1 <0>        -0.1704
      11  C10         6.5170   37.4180   59.3930  C.2       1 <0>         0.4014
      12  O1          5.6810   37.3780   60.2740  O.2       1 <0>        -0.4644
      13  C11         4.3800   35.4550   58.1730  C.ar      1 <0>        -0.0738
      14  C12         3.2690   35.3660   58.9930  C.ar      1 <0>        -0.0815
      15  C13         2.0160   35.6650   58.4940  C.ar      1 <0>        -0.1576
      16  C14         1.8700   36.0430   57.1690  C.ar      1 <0>         0.0926
      17  C15         2.9820   36.1270   56.3480  C.ar      1 <0>        -0.1536
      18  C16         4.2360   35.8330   56.8500  C.ar      1 <0>        -0.0643
      19  F1          0.6450   36.3300   56.6790  F         1 <0>        -0.1422
      20  C17         5.8140   32.6430   58.3810  C.2       1 <0>         0.5314
      21  O2          6.2740   32.0780   59.3580  O.2       1 <0>        -0.5132
      22  O3          4.8520   32.0450   57.6470  O.3       1 <0>        -0.3417
      23  C18         3.6350   31.7160   58.3170  C.3       1 <0>         0.0305
@<TRIPOS>BOND
     1     1     2 1
     2     2     7 1
     3     2     3 2
     4     3     4 1
     5     3    20 1
     6     4     5 1
     7     4    13 1
     8     5    11 1
     9     5     6 2
    10     6     7 1
    11     6     8 1
    12     8     9 1
    13     9    10 1
    14    10    11 1
    15    11    12 2
    16    13    18 ar
    17    13    14 ar
    18    14    15 ar
    19    15    16 ar
    20    16    17 ar
    21    16    19 1
    22    17    18 ar
    23    20    21 2
    24    20    22 1
    25    22    23 1

@<TRIPOS>MOLECULE
ZINC49860165_replica-1.pdb
 19 20 0 0 0
SMALL
GASTEIGER

@<TRIPOS>ATOM
       1  C1         -1.2080   25.9500   51.1540  C.3       1 <0>        -0.1109
       2  C2         -0.9840   26.9080   52.2950  C.ar      1 <0>        -0.0823
       3  C3         -1.5800   28.1570   52.2720  C.ar      1 <0>        -0.1308
       4  C4         -1.3790   29.0390   53.3150  C.ar      1 <0>        -0.0571
       5  C5         -0.5750   28.6700   54.3920  C.ar      1 <0>        -0.0320
       6  C6          0.0220   27.4100   54.4100  C.ar      1 <0>        -0.0444
       7  C7         -0.1900   26.5340   53.3640  C.ar      1 <0>        -0.1298
       8  C8          0.8930   27.0030   55.5700  C.3       1 <0>        -0.1235
       9  C9         -0.3550   29.6130   55.5140  C.ar      1 <0>         0.2116
      10  C10        -1.1720   29.5400   56.6430  C.ar      1 <0>        -0.1943
      11  C11        -0.9670   30.4200   57.6870  C.ar      1 <0>        -0.0126
      12  C12         0.0660   31.3600   57.5750  C.ar      1 <0>        -0.1242
      13  C13         0.8500   31.3750   56.4060  C.ar      1 <0>         0.3485
      14  N1          0.6200   30.5090   55.4340  N.ar      1 <0>        -0.4836
      15  S1          2.1530   32.5500   56.2430  S.3       1 <0>        -0.8333
      16  C14         0.3170   32.2930   58.6320  C.1       1 <0>         0.2998
      17  N2          0.5170   33.0330   59.4700  N.1       1 <0>        -0.4555
      18  C15        -2.2720   28.5130   56.7200  C.3       1 <0>        -0.1010
      19  C16        -2.0280   30.3990   53.2880  C.3       1 <0>        -0.1183
@<TRIPOS>BOND
     1     1     2 1
     2     2     7 ar
     3     2     3 ar
     4     3     4 ar
     5     4     5 ar
     6     4    19 1
     7     5     6 ar
     8     5     9 1
     9     6     7 ar
    10     6     8 1
    11     9    14 ar
    12     9    10 ar
    13    10    11 ar
    14    10    18 1
    15    11    12 ar
    16    12    13 ar
    17    12    16 1
    18    13    14 ar
    19    13    15 1
    20    16    17 3

@<TRIPOS>MOLECULE
ZINC37365440_replica-1.pdb
 20 20 0 0 0
SMALL
GASTEIGER

@<TRIPOS>ATOM
       1  C1          7.7010   36.6140   55.2610  C.3       1 <0>        -0.1549
       2  C2          7.4690   37.9410   55.9870  C.3       1 <0>        -0.1252
       3  C3          8.4260   38.0460   57.1760  C.3       1 <0>        -0.1218
       4  C4          7.7320   38.7810   58.3250  C.3       1 <0>        -0.1305
       5  C5          7.7070   37.8830   59.5630  C.3       1 <0>         0.1362
       6  C6          6.2570   37.6340   59.9850  C.3       1 <0>        -0.1716
       7  N1          8.3500   36.6040   59.2520  N.pl3     1 <0>        -0.7087
       8  C7          9.3320   36.0910   60.1030  C.ar      1 <0>         0.3084
       9  C8          9.9640   36.9220   61.0180  C.ar      1 <0>        -0.1975
      10  C9         10.9340   36.4110   61.8570  C.ar      1 <0>         0.0196
      11  C10        11.2760   35.0720   61.7880  C.ar      1 <0>        -0.2436
      12  C11        10.6480   34.2420   60.8790  C.ar      1 <0>         0.0415
      13  C12         9.6730   34.7450   60.0400  C.ar      1 <0>        -0.1299
      14  N2          8.9980   33.8540   59.0700  N.pl3     1 <0>         0.0423
      15  O1          8.9140   34.1780   57.9080  O.2       1 <0>        -0.1710
      16  O2          8.5300   32.8020   59.4400  O.3       1 <0>        -0.1409
      17  C13        12.3340   34.5180   62.7060  C.3       1 <0>         0.5193
      18  F1         13.5760   34.5500   62.0610  F         1 <0>        -0.1735
      19  F2         12.3950   35.2920   63.8700  F         1 <0>        -0.1743
      20  F3         12.0170   33.1980   63.0410  F         1 <0>        -0.1728
@<TRIPOS>BOND
     1     1     2 1
     2     2     3 1
     3     3     4 1
     4     4     5 1
     5     5     6 1
     6     5     7 1
     7     7     8 1
     8     8    13 ar
     9     8     9 ar
    10     9    10 ar
    11    10    11 ar
    12    11    12 ar
    13    11    17 1
    14    12    13 ar
    15    13    14 1
    16    14    15 2
    17    14    16 1
    18    17    18 1
    19    17    19 1
    20    17    20 1

@<TRIPOS>MOLECULE
ZINC66936415_replica-1.pdb
 21 21 0 0 0
SMALL
GASTEIGER

@<TRIPOS>ATOM
       1  C1          8.5170   38.7060   57.0140  C.3       1 <0>        -0.1907
       2  C2          7.8990   37.7350   58.0220  C.3       1 <0>         0.1825
       3  C3          7.2520   38.5250   59.1620  C.3       1 <0>        -0.1756
       4  C4          6.8360   36.8830   57.3250  C.3       1 <0>         0.0649
       5  O1          7.2400   36.6260   55.9790  O.3       1 <0>        -0.3824
       6  C5          6.5220   35.5620   55.3500  C.3       1 <0>         0.0313
       7  N1          8.9440   36.8620   58.5650  N.pl3     1 <0>        -1.1079
       8  S1          8.5280   35.4770   59.3730  S.o2      1 <0>         2.6991
       9  O2          7.3340   35.7670   60.0870  O.2       1 <0>        -0.9447
      10  O3          8.6140   34.4170   58.4300  O.2       1 <0>        -0.9522
      11  C6          9.7780   35.1810   60.5790  C.ar      1 <0>        -0.6736
      12  C7         10.4220   36.2470   61.1800  C.ar      1 <0>         0.0041
      13  C8         11.4030   36.0190   62.1250  C.ar      1 <0>        -0.1058
      14  C9         11.7410   34.7170   62.4720  C.ar      1 <0>        -0.0507
      15  C10        11.0910   33.6480   61.8670  C.ar      1 <0>        -0.1464
      16  C11        10.1080   33.8840   60.9260  C.ar      1 <0>         0.0093
      17  S2         12.9920   34.4220   63.6780  S.3       1 <0>        -0.0076
      18  C12        14.3220   33.6190   62.7420  C.3       1 <0>         0.4505
      19  F1         14.2800   34.0470   61.4100  F         1 <0>        -0.1600
      20  F2         15.5580   33.9610   63.3020  F         1 <0>        -0.1408
      21  F3         14.1560   32.2310   62.7910  F         1 <0>        -0.1603
@<TRIPOS>BOND
     1     1     2 1
     2     2     3 1
     3     2     4 1
     4     2     7 1
     5     4     5 1
     6     5     6 1
     7     7     8 1
     8     8     9 2
     9     8    10 2
    10     8    11 1
    11    11    16 ar
    12    11    12 ar
    13    12    13 ar
    14    13    14 ar
    15    14    15 ar
    16    14    17 1
    17    15    16 ar
    18    17    18 1
    19    18    19 1
    20    18    20 1
    21    18    21 1

@<TRIPOS>MOLECULE
ZINC65654553_replica-1.pdb
 23 23 0 0 0
SMALL
GASTEIGER

@<TRIPOS>ATOM
       1  C1          2.0270   28.7370   58.6570  C.3       1 <0>        -0.1621
       2  C2          0.8860   29.7350   58.8680  C.3       1 <0>         0.1739
       3  C3         -0.2170   29.4540   57.8800  C.2       1 <0>         0.4618
       4  O1         -1.3450   29.2660   58.2710  O.2       1 <0>        -0.4974
       5  O2          0.0530   29.4130   56.5660  O.3       1 <0>        -0.3296
       6  C4         -0.7670   30.2100   55.7100  C.3       1 <0>         0.0888
       7  C5          0.0380   31.4090   55.2030  C.3       1 <0>        -0.1709
       8  C6         -1.2300   29.3670   54.5190  C.3       1 <0>         0.0629
       9  O3         -0.2720   28.3380   54.2620  O.3       1 <0>        -0.3036
      10  C7         -0.5630   27.4610   53.2660  C.ar      1 <0>         0.1286
      11  C8         -1.3320   27.8660   52.1850  C.ar      1 <0>        -0.2114
      12  C9         -1.6260   26.9720   51.1740  C.ar      1 <0>        -0.0799
      13  C10        -1.1530   25.6740   51.2380  C.ar      1 <0>        -0.1582
      14  C11        -0.3870   25.2670   52.3150  C.ar      1 <0>        -0.0799
      15  C12        -0.0850   26.1590   53.3250  C.ar      1 <0>        -0.1506
      16  N1          1.3870   31.0970   58.6660  N.am      1 <0>        -0.7018
      17  C13         1.6370   31.8870   59.7290  C.2       1 <0>         0.6593
      18  O4          1.4470   31.4700   60.8540  O.2       1 <0>        -0.5609
      19  O5          2.0970   33.1390   59.5450  O.3       1 <0>        -0.3539
      20  C14         1.1230   34.1660   59.3530  C.3       1 <0>         0.1341
      21  C15         0.3550   34.3910   60.6570  C.3       1 <0>        -0.1866
      22  C16         1.8250   35.4640   58.9450  C.3       1 <0>        -0.1413
      23  C17         0.1470   33.7460   58.2520  C.3       1 <0>        -0.1870
@<TRIPOS>BOND
     1     1     2 1
     2     2     3 1
     3     2    16 1
     4     3     4 2
     5     3     5 1
     6     5     6 1
     7     6     7 1
     8     6     8 1
     9     8     9 1
    10     9    10 1
    11    10    15 ar
    12    10    11 ar
    13    11    12 ar
    14    12    13 ar
    15    13    14 ar
    16    14    15 ar
    17    16    17 am
    18    17    18 2
    19    17    19 1
    20    19    20 1
    21    20    21 1
    22    20    22 1
    23    20    23 1

@<TRIPOS>MOLECULE
ZINC57671091_replica-1.pdb
 19 20 0 0 0
SMALL
GASTEIGER

@<TRIPOS>ATOM
       1  C1          6.6810   35.1760   57.0460  C.3       1 <0>        -0.1663
       2  C2          7.0450   36.4070   57.8770  C.3       1 <0>        -0.0165
       3  N1          8.4770   36.6970   57.7220  N.4       1 <0>        -0.2591
       4  C3          8.6670   38.1410   57.5330  C.3       1 <0>        -0.0113
       5  C4          7.7070   38.6450   56.4530  C.3       1 <0>        -0.1630
       6  C5          9.1630   36.2830   58.8680  C.ar      1 <0>        -0.3023
       7  C6          9.7860   35.0500   58.8920  C.ar      1 <0>        -0.1397
       8  C7         10.4640   34.6380   60.0220  C.ar      1 <0>        -0.1262
       9  C8         10.5200   35.4660   61.1360  C.ar      1 <0>         0.0133
      10  C9          9.8930   36.7060   61.1090  C.ar      1 <0>        -0.1298
      11  C10         9.2210   37.1130   59.9730  C.ar      1 <0>        -0.1362
      12  N2         11.2050   35.0540   62.2820  N.pl3     1 <0>        -0.7390
      13  C11        12.2440   34.0260   62.1850  C.3       1 <0>         0.1736
      14  C12        13.5780   34.6030   62.6650  C.3       1 <0>        -0.1332
      15  C13        14.6630   33.5300   62.5630  C.3       1 <0>        -0.1182
      16  C14        14.2810   32.3340   63.4370  C.3       1 <0>        -0.1206
      17  C15        12.9470   31.7580   62.9590  C.3       1 <0>        -0.1113
      18  C16        11.8610   32.8310   63.0600  C.3       1 <0>        -0.0982
      19  C17        10.5280   32.2550   62.5800  C.3       1 <0>        -0.1420
@<TRIPOS>BOND
     1     1     2 1
     2     2     3 1
     3     3     4 1
     4     3     6 1
     5     4     5 1
     6     6    11 ar
     7     6     7 ar
     8     7     8 ar
     9     8     9 ar
    10     9    10 ar
    11     9    12 1
    12    10    11 ar
    13    12    13 1
    14    13    18 1
    15    13    14 1
    16    14    15 1
    17    15    16 1
    18    16    17 1
    19    17    18 1
    20    18    19 1

@<TRIPOS>MOLECULE
ZINC16855582_replica-1.pdb
 21 21 0 0 0
SMALL
GASTEIGER

@<TRIPOS>ATOM
       1  C1          7.2250   38.3980   55.7340  C.3       1 <0>        -0.1474
       2  C2          7.1250   36.8840   55.5340  C.3       1 <0>        -0.1215
       3  C3          8.4810   36.2400   55.8310  C.3       1 <0>        -0.1319
       4  C4          8.3040   35.1410   56.8790  C.3       1 <0>        -0.0872
       5  C5          7.7460   35.7500   58.1670  C.3       1 <0>        -0.0764
       6  C6          8.7870   35.6700   59.2530  C.2       1 <0>        -0.1728
       7  C7          9.2210   36.8010   59.8830  C.2       1 <0>         0.1355
       8  N1         10.1410   36.7210   60.8400  N.2       1 <0>        -0.5282
       9  C8         10.6540   35.5620   61.2040  C.2       1 <0>         0.3464
      10  N2         10.2640   34.4010   60.6080  N.am      1 <0>        -0.6206
      11  C9          9.3290   34.4300   59.6340  C.2       1 <0>         0.5384
      12  O1          8.9640   33.3990   59.0920  O.2       1 <0>        -0.4997
      13  S1         11.8710   35.5140   62.4780  S.3       1 <0>        -0.0375
      14  C10        12.6500   33.9220   62.1090  C.3       1 <0>        -0.0925
      15  C11        14.0370   33.8730   62.7530  C.3       1 <0>        -0.1089
      16  C12        14.2490   32.5030   63.4020  C.3       1 <0>        -0.1182
      17  C13        13.0430   31.6090   63.1110  C.3       1 <0>        -0.1526
      18  C14         8.6560   38.1430   59.4930  C.3       1 <0>        -0.0970
      19  C15         6.5170   34.9870   58.5930  C.2       1 <0>         0.4797
      20  O2          6.0190   34.1780   57.8460  O.co2     1 <0>        -0.6295
      21  O3          5.9760   35.2080   59.8010  O.co2     1 <0>        -0.7601
@<TRIPOS>BOND
     1     1     2 1
     2     2     3 1
     3     3     4 1
     4     4     5 1
     5     5     6 1
     6     5    19 1
     7     6    11 1
     8     6     7 2
     9     7     8 1
    10     7    18 1
    11     8     9 2
    12     9    10 1
    13     9    13 1
    14    10    11 am
    15    11    12 2
    16    13    14 1
    17    14    15 1
    18    15    16 1
    19    16    17 1
    20    19    20 2
    21    19    21 1

@<TRIPOS>MOLECULE
ZINC36791506_replica-1.pdb
 20 20 0 0 0
SMALL
GASTEIGER

@<TRIPOS>ATOM
       1  C1         14.2340   32.1180   63.6550  C.3       1 <0>        -0.1527
       2  C2         14.3430   33.6260   63.4170  C.3       1 <0>        -0.1238
       3  C3         13.7240   33.9740   62.0620  C.3       1 <0>        -0.1329
       4  C4         12.5700   34.9590   62.2650  C.3       1 <0>         0.1341
       5  C5         12.3940   35.2350   63.7600  C.3       1 <0>        -0.1648
       6  N1         11.3360   34.3820   61.7270  N.pl3     1 <0>        -0.6060
       7  C6         10.9720   33.0000   62.0460  C.3       1 <0>         0.0820
       8  C7         10.5090   35.1480   60.9100  C.ar      1 <0>         0.2566
       9  C8         10.2660   36.4830   61.2270  C.ar      1 <0>        -0.1836
      10  C9          9.4490   37.2440   60.4220  C.ar      1 <0>        -0.0290
      11  C10         8.8640   36.6770   59.2860  C.ar      1 <0>        -0.1311
      12  C11         9.1110   35.3370   58.9720  C.ar      1 <0>        -0.0603
      13  C12         9.9320   34.5820   59.7780  C.ar      1 <0>        -0.1638
      14  C13         8.4820   34.7200   57.7480  C.3       1 <0>         0.5149
      15  F1          8.8160   33.3630   57.6860  F         1 <0>        -0.1884
      16  F2          7.0910   34.8560   57.8210  F         1 <0>        -0.1393
      17  F3          8.9550   35.3700   56.6030  F         1 <0>        -0.1498
      18  C14         7.9890   37.4880   58.4220  C.2       1 <0>         0.3454
      19  S1          8.6640   38.4380   57.1690  S.2       1 <0>        -0.5003
      20  N2          6.6550   37.4810   58.6190  N.pl3     1 <0>        -0.7740
@<TRIPOS>BOND
     1     1     2 1
     2     2     3 1
     3     3     4 1
     4     4     5 1
     5     4     6 1
     6     6     7 1
     7     6     8 1
     8     8    13 ar
     9     8     9 ar
    10     9    10 ar
    11    10    11 ar
    12    11    12 ar
    13    11    18 1
    14    12    13 ar
    15    12    14 1
    16    14    15 1
    17    14    16 1
    18    14    17 1
    19    18    19 2
    20    18    20 1

@<TRIPOS>MOLECULE
ZINC59967788_replica-1.pdb
 23 23 0 0 0
SMALL
GASTEIGER

@<TRIPOS>ATOM
       1  C1         17.2800   34.4020   64.7970  C.3       1 <0>        -0.1534
       2  C2         15.7820   34.1800   65.0140  C.3       1 <0>         0.0595
       3  O1         15.4030   32.9150   64.4680  O.3       1 <0>        -0.3446
       4  C3         14.5850   32.9310   63.4040  C.2       1 <0>         0.4613
       5  O2         14.9740   33.3760   62.3490  O.2       1 <0>        -0.5017
       6  C4         13.1820   32.3940   63.5240  C.3       1 <0>         0.1543
       7  C5         13.2220   30.8660   63.5630  C.3       1 <0>        -0.1596
       8  N1         12.3910   32.8340   62.3730  N.am      1 <0>        -0.7150
       9  C6         11.8130   34.0520   62.3780  C.2       1 <0>         0.5557
      10  O3         11.9500   34.7860   63.3400  O.2       1 <0>        -0.5376
      11  C7         11.0240   34.4920   61.2300  C.2       1 <0>        -0.2081
      12  C8         10.6030   35.7720   61.1500  C.2       1 <0>        -0.0134
      13  C9          9.8090   36.2140   59.9950  C.ar      1 <0>        -0.0666
      14  C10         9.2070   37.4770   59.9990  C.ar      1 <0>        -0.0809
      15  C11         8.4700   37.8850   58.9240  C.ar      1 <0>        -0.0827
      16  C12         8.3170   37.0440   57.8230  C.ar      1 <0>        -0.0962
      17  C13         8.9150   35.7850   57.8150  C.ar      1 <0>        -0.1227
      18  C14         9.6590   35.3740   58.8850  C.ar      1 <0>        -0.0686
      19  S1          7.3650   37.5730   56.4380  S.3       1 <0>        -0.0180
      20  C15         5.9640   36.4210   56.4040  C.3       1 <0>         0.4514
      21  F1          6.3580   35.2250   55.7930  F         1 <0>        -0.1620
      22  F2          5.5430   36.1580   57.7120  F         1 <0>        -0.1430
      23  F3          4.9100   36.9880   55.6800  F         1 <0>        -0.1620
@<TRIPOS>BOND
     1     1     2 1
     2     2     3 1
     3     3     4 1
     4     4     5 2
     5     4     6 1
     6     6     7 1
     7     6     8 1
     8     8     9 am
     9     9    10 2
    10     9    11 1
    11    11    12 2
    12    12    13 1
    13    13    18 ar
    14    13    14 ar
    15    14    15 ar
    16    15    16 ar
    17    16    17 ar
    18    16    19 1
    19    17    18 ar
    20    19    20 1
    21    20    21 1
    22    20    22 1
    23    20    23 1

@<TRIPOS>MOLECULE
ZINC24644675_replica-1.pdb
 29 29 0 0 0
SMALL
GASTEIGER

@<TRIPOS>ATOM
       1  C1          5.7960   31.5020   57.4080  C.3       1 <0>        -0.1478
       2  C2          6.7490   32.1580   58.4090  C.3       1 <0>        -0.0141
       3  C3          8.1720   31.6520   58.1640  C.3       1 <0>        -0.1414
       4  C4          6.3190   31.8010   59.8320  C.3       1 <0>        -0.1407
       5  C5          6.7100   33.6540   58.2320  C.ar      1 <0>        -0.1069
       6  C6          5.8750   34.2170   57.2860  C.ar      1 <0>        -0.0814
       7  C7          5.8390   35.5910   57.1240  C.ar      1 <0>        -0.1221
       8  C8          6.6430   36.4020   57.9030  C.ar      1 <0>        -0.0806
       9  C9          7.4760   35.8440   58.8540  C.ar      1 <0>        -0.1632
      10  C10         7.5130   34.4680   59.0180  C.ar      1 <0>         0.1699
      11  O1          8.3350   33.9150   59.9490  O.3       1 <0>        -0.5088
      12  C11         8.3470   36.7300   59.7060  C.3       1 <0>        -0.0278
      13  C12         7.7770   36.7960   61.1230  C.3       1 <0>        -0.1425
      14  C13         9.7660   36.1590   59.7520  C.3       1 <0>        -0.1537
      15  C14         8.3830   38.1370   59.1060  C.3       1 <0>        -0.1545
      16  C15         4.9270   36.2020   56.0920  C.3       1 <0>        -0.0588
      17  C16         3.9020   35.1610   55.6370  C.3       1 <0>        -0.1305
      18  C17         2.6150   35.3580   56.3970  C.2       1 <0>         0.5217
      19  O2          2.2800   36.4710   56.7450  O.2       1 <0>        -0.5365
      20  N1          1.8370   34.2980   56.6900  N.am      1 <0>        -0.6021
      21  C18         2.2410   32.9550   56.2690  C.3       1 <0>         0.0808
      22  C19         0.5870   34.4890   57.4290  C.3       1 <0>         0.0923
      23  C20         0.8190   34.2040   58.8900  C.2       1 <0>         0.5006
      24  O3          1.2430   35.0770   59.6180  O.2       1 <0>        -0.5284
      25  N2          0.5550   32.9800   59.3890  N.am      1 <0>        -0.7350
      26  C21         0.7810   32.7030   60.8100  C.3       1 <0>         0.1733
      27  C22         0.3720   31.2620   61.1200  C.3       1 <0>        -0.1646
      28  C23         2.2620   32.8950   61.1370  C.3       1 <0>        -0.1565
      29  C24        -0.0570   33.6630   61.6560  C.3       1 <0>        -0.1657
@<TRIPOS>BOND
     1     1     2 1
     2     2     3 1
     3     2     4 1
     4     2     5 1
     5     5    10 ar
     6     5     6 ar
     7     6     7 ar
     8     7     8 ar
     9     7    16 1
    10     8     9 ar
    11     9    10 ar
    12     9    12 1
    13    10    11 1
    14    12    13 1
    15    12    14 1
    16    12    15 1
    17    16    17 1
    18    17    18 1
    19    18    19 2
    20    18    20 am
    21    20    21 1
    22    20    22 1
    23    22    23 1
    24    23    24 2
    25    23    25 am
    26    25    26 1
    27    26    27 1
    28    26    28 1
    29    26    29 1

@<TRIPOS>MOLECULE
ZINC08303498_replica-1.pdb
 26 28 0 0 0
SMALL
GASTEIGER

@<TRIPOS>ATOM
       1  C1          2.3490   32.5430   57.7830  C.3       1 <0>         0.0695
       2  N1          1.2730   33.4790   57.4450  N.am      1 <0>        -0.5963
       3  C2         -0.1230   33.1110   57.6940  C.3       1 <0>         0.1019
       4  C3         -0.4800   31.9030   56.8680  C.2       1 <0>         0.4962
       5  O1         -0.8270   30.8770   57.4130  O.2       1 <0>        -0.5053
       6  N2         -0.4150   31.9620   55.5230  N.am      1 <0>        -0.6719
       7  C4         -0.6520   30.8140   54.7580  C.ar      1 <0>         0.1335
       8  C5          0.2690   29.7760   54.7560  C.ar      1 <0>        -0.1142
       9  C6          0.0300   28.6420   54.0070  C.ar      1 <0>        -0.1341
      10  C7         -1.1240   28.5440   53.2470  C.ar      1 <0>         0.0848
      11  C8         -2.0420   29.5810   53.2420  C.ar      1 <0>        -0.1348
      12  C9         -1.8090   30.7150   53.9950  C.ar      1 <0>        -0.0919
      13  F1         -1.3550   27.4360   52.5090  F         1 <0>        -0.1387
      14  C10         1.5680   34.6770   56.9040  C.2       1 <0>         0.6139
      15  O2          0.6770   35.4680   56.6520  O.2       1 <0>        -0.5220
      16  C11         2.9620   35.0290   56.6170  C.2       1 <0>        -0.2367
      17  C12         3.8750   35.6890   57.4100  C.2       1 <0>        -0.0583
      18  C13         5.1620   35.8950   56.9080  C.2       1 <0>        -0.1297
      19  C14         5.4020   35.4780   55.6490  C.2       1 <0>        -0.1462
      20  S1          3.9230   34.7130   55.1510  S.3       1 <0>         0.1197
      21  C15         6.5840   35.6340   54.7270  C.3       1 <0>        -0.0448
      22  C16         7.7140   36.4420   55.3640  C.3       1 <0>        -0.1219
      23  C17         8.5300   35.5740   56.3090  C.3       1 <0>        -0.1215
      24  C18         7.6760   34.5940   57.0880  C.3       1 <0>        -0.1324
      25  C19         7.1320   35.3410   58.3090  C.3       1 <0>        -0.1153
      26  C20         6.2240   36.4750   57.8310  C.3       1 <0>        -0.0715
@<TRIPOS>BOND
     1     1     2 1
     2     2     3 1
     3     2    14 am
     4     3     4 1
     5     4     5 2
     6     4     6 am
     7     6     7 1
     8     7    12 ar
     9     7     8 ar
    10     8     9 ar
    11     9    10 ar
    12    10    11 ar
    13    10    13 1
    14    11    12 ar
    15    14    15 2
    16    14    16 1
    17    16    20 1
    18    16    17 2
    19    17    18 1
    20    18    26 1
    21    18    19 2
    22    19    20 1
    23    19    21 1
    24    21    22 1
    25    22    23 1
    26    23    24 1
    27    24    25 1
    28    25    26 1

@<TRIPOS>MOLECULE
ZINC50665863_replica-1.pdb
 21 21 0 0 0
SMALL
GASTEIGER

@<TRIPOS>ATOM
       1  C1         -0.6660   26.2190   51.9640  C.1       1 <0>        -0.1546
       2  C2         -0.9480   27.2840   52.3700  C.1       1 <0>        -0.2220
       3  C3         -1.3010   28.6190   52.8800  C.3       1 <0>         0.2328
       4  N1         -0.4680   28.9350   54.0430  N.am      1 <0>        -0.7224
       5  C4         -0.3940   30.2020   54.4950  C.2       1 <0>         0.5136
       6  O1         -1.0190   31.0820   53.9390  O.2       1 <0>        -0.5330
       7  C5          0.4630   30.5270   55.6910  C.3       1 <0>         0.1000
       8  N2          1.0210   31.8740   55.5410  N.am      1 <0>        -0.7085
       9  C6          1.9250   32.3310   56.4290  C.2       1 <0>         0.5607
      10  O2          2.2800   31.6260   57.3540  O.2       1 <0>        -0.5096
      11  C7          2.4860   33.6860   56.2790  C.ar      1 <0>        -0.1165
      12  C8          3.6080   33.8970   55.4720  C.ar      1 <0>        -0.0630
      13  C9          4.1270   35.1650   55.3360  C.ar      1 <0>        -0.1185
      14  C10         3.5420   36.2360   55.9940  C.ar      1 <0>        -0.0634
      15  C11         2.4360   36.0450   56.7940  C.ar      1 <0>        -0.1309
      16  C12         1.8930   34.7730   56.9400  C.ar      1 <0>        -0.0616
      17  S1          0.4740   34.5270   57.9550  S.3       1 <0>         0.0913
      18  C13         1.1620   34.2090   59.6020  C.3       1 <0>         0.3950
      19  F1          0.4840   34.9840   60.5490  F         1 <0>        -0.1729
      20  F2          1.0140   32.8540   59.9160  F         1 <0>        -0.1510
      21  F3          2.5200   34.5440   59.6130  F         1 <0>        -0.1730
@<TRIPOS>BOND
     1     1     2 3
     2     2     3 1
     3     3     4 1
     4     4     5 am
     5     5     6 2
     6     5     7 1
     7     7     8 1
     8     8     9 am
     9     9    10 2
    10     9    11 1
    11    11    16 ar
    12    11    12 ar
    13    12    13 ar
    14    13    14 ar
    15    14    15 ar
    16    15    16 ar
    17    16    17 1
    18    17    18 1
    19    18    19 1
    20    18    20 1
    21    18    21 1

@<TRIPOS>MOLECULE
ZINC05309447_replica-1.pdb
 23 25 0 0 0
SMALL
GASTEIGER

@<TRIPOS>ATOM
       1  C1         12.1150   31.5340   63.3200  C.3       1 <0>        -0.1531
       2  C2         13.5530   32.0180   63.1140  C.3       1 <0>        -0.1220
       3  C3         13.6160   33.5330   63.3160  C.3       1 <0>        -0.1204
       4  C4         13.0400   34.2350   62.0840  C.3       1 <0>         0.0561
       5  O1         11.9660   35.0890   62.4810  O.3       1 <0>        -0.3122
       6  C5         11.0920   35.4720   61.5140  C.ar      1 <0>         0.1544
       7  C6         10.8660   34.6460   60.4200  C.ar      1 <0>        -0.1571
       8  C7          9.9810   35.0310   59.4350  C.ar      1 <0>        -0.0426
       9  C8          9.3140   36.2550   59.5370  C.ar      1 <0>        -0.1026
      10  C9          9.5410   37.0780   60.6430  C.ar      1 <0>        -0.0331
      11  C10        10.4270   36.6860   61.6220  C.ar      1 <0>        -0.2155
      12  C11         8.3710   36.6730   58.4840  C.2       1 <0>         0.1372
      13  N1          7.8960   35.7960   57.6540  N.2       1 <0>        -0.2454
      14  N2          7.0000   36.1930   56.6530  N.pl3     1 <0>        -0.5210
      15  C12         5.6420   36.0460   56.8450  C.2       1 <0>         0.4290
      16  N3          4.9940   35.7350   57.9470  N.2       1 <0>        -0.5769
      17  C13         3.6490   35.6250   57.9900  C.ar      1 <0>         0.1207
      18  C14         2.8350   35.3000   59.1000  C.ar      1 <0>        -0.0808
      19  C15         1.4730   35.2310   58.9730  C.ar      1 <0>        -0.1012
      20  C16         0.8440   35.4750   57.7600  C.ar      1 <0>        -0.1136
      21  C17         1.6090   35.7950   56.6540  C.ar      1 <0>        -0.0553
      22  C18         2.9740   35.8670   56.7710  C.ar      1 <0>        -0.1700
      23  S1          4.3140   36.2380   55.6640  S.3       1 <0>         0.0300
@<TRIPOS>BOND
     1     1     2 1
     2     2     3 1
     3     3     4 1
     4     4     5 1
     5     5     6 1
     6     6    11 ar
     7     6     7 ar
     8     7     8 ar
     9     8     9 ar
    10     9    10 ar
    11     9    12 1
    12    10    11 ar
    13    12    13 2
    14    13    14 1
    15    14    15 1
    16    15    23 1
    17    15    16 2
    18    16    17 1
    19    17    22 ar
    20    17    18 ar
    21    18    19 ar
    22    19    20 ar
    23    20    21 ar
    24    21    22 ar
    25    22    23 1

@<TRIPOS>MOLECULE
ZINC01025526_replica-1.pdb
 26 28 0 0 0
SMALL
GASTEIGER

@<TRIPOS>ATOM
       1  C1         13.9550   33.2910   62.8180  C.2       1 <0>        -0.1532
       2  C2         13.2950   34.2520   62.0810  C.2       1 <0>        -0.1544
       3  C3         11.9440   34.1260   61.8970  C.2       1 <0>        -0.1007
       4  S1         11.5910   32.6160   62.7820  S.3       1 <0>         0.0560
       5  C4         13.2490   32.2530   63.3350  C.2       1 <0>        -0.1801
       6  C5         11.0190   35.0110   61.1580  C.ar      1 <0>        -0.0072
       7  C6         10.4970   34.6090   59.9280  C.ar      1 <0>        -0.0995
       8  C7          9.6340   35.4390   59.2440  C.ar      1 <0>        -0.0963
       9  C8          9.2860   36.6680   59.7750  C.ar      1 <0>        -0.0943
      10  C9          9.7990   37.0730   60.9940  C.ar      1 <0>        -0.0929
      11  C10        10.6590   36.2490   61.6910  C.ar      1 <0>        -0.1059
      12  C11         8.3420   37.5710   59.0200  C.3       1 <0>         0.1600
      13  N1          7.6420   36.7950   57.9930  N.am      1 <0>        -0.7362
      14  C12         6.3560   36.4400   58.1780  C.2       1 <0>         0.5214
      15  O1          5.7770   36.7610   59.1940  O.2       1 <0>        -0.5363
      16  C13         5.6340   35.6420   57.1200  C.3       1 <0>        -0.1422
      17  C14         6.1480   34.2020   57.1280  C.3       1 <0>        -0.0061
      18  C15         7.4800   34.1310   56.3790  C.3       1 <0>        -0.1261
      19  C16         7.9930   32.6890   56.3880  C.3       1 <0>        -0.1169
      20  C17         8.1960   32.2290   57.8330  C.3       1 <0>        -0.1120
      21  C18         6.8650   32.3000   58.5820  C.3       1 <0>        -0.1158
      22  C19         6.3510   33.7410   58.5730  C.3       1 <0>        -0.1224
      23  C20         5.1270   33.2930   56.4420  C.3       1 <0>        -0.1794
      24  C21         4.6220   33.9610   55.1890  C.2       1 <0>         0.4943
      25  O2          3.5420   34.5290   55.1940  O.co2     1 <0>        -0.6876
      26  O3          5.2910   33.9330   54.1700  O.co2     1 <0>        -0.7077
@<TRIPOS>BOND
     1     1     5 2
     2     1     2 1
     3     2     3 2
     4     3     4 1
     5     3     6 1
     6     4     5 1
     7     6    11 ar
     8     6     7 ar
     9     7     8 ar
    10     8     9 ar
    11     9    10 ar
    12     9    12 1
    13    10    11 ar
    14    12    13 1
    15    13    14 am
    16    14    15 2
    17    14    16 1
    18    16    17 1
    19    17    22 1
    20    17    18 1
    21    17    23 1
    22    18    19 1
    23    19    20 1
    24    20    21 1
    25    21    22 1
    26    23    24 1
    27    24    25 2
    28    24    26 1

@<TRIPOS>MOLECULE
ZINC37074501_replica-1.pdb
 20 21 0 0 0
SMALL
GASTEIGER

@<TRIPOS>ATOM
       1  C1          1.3000   31.3130   58.1090  C.3       1 <0>        -0.1716
       2  C2          0.3400   30.4670   57.2710  C.3       1 <0>         0.1464
       3  C3          0.0390   29.1590   58.0050  C.3       1 <0>        -0.1295
       4  C4         -1.4570   29.0800   58.3150  C.3       1 <0>        -0.1143
       5  C5         -2.1200   28.0700   57.3770  C.3       1 <0>        -0.0977
       6  C6         -2.8830   27.0320   58.2030  C.3       1 <0>        -0.1491
       7  C7         -3.0940   28.7990   56.4500  C.3       1 <0>        -0.1505
       8  N1          0.9560   30.1690   55.9750  N.pl3     1 <0>        -0.7312
       9  C8          0.1740   29.6800   54.9250  C.ar      1 <0>         0.2254
      10  C9          0.3020   28.3590   54.5190  C.ar      1 <0>        -0.2117
      11  C10        -0.4770   27.8770   53.4770  C.ar      1 <0>         0.2021
      12  C11        -1.3820   28.7170   52.8420  C.ar      1 <0>        -0.1584
      13  C12        -1.5090   30.0320   53.2460  C.ar      1 <0>        -0.0664
      14  C13        -0.7390   30.5160   54.2880  C.ar      1 <0>        -0.0018
      15  F1         -0.8680   31.8000   54.6850  F         1 <0>        -0.1423
      16  C14        -2.2280   28.1890   51.7120  C.3       1 <0>        -0.0695
      17  C15        -1.4300   27.1550   50.9170  C.3       1 <0>        -0.1391
      18  C16        -0.8010   26.1610   51.8570  C.2       1 <0>         0.5226
      19  O1         -0.6970   25.0000   51.5200  O.2       1 <0>        -0.5246
      20  N2         -0.3520   26.5460   53.0650  N.am      1 <0>        -0.6630
@<TRIPOS>BOND
     1     1     2 1
     2     2     3 1
     3     2     8 1
     4     3     4 1
     5     4     5 1
     6     5     6 1
     7     5     7 1
     8     8     9 1
     9     9    14 ar
    10     9    10 ar
    11    10    11 ar
    12    11    20 1
    13    11    12 ar
    14    12    13 ar
    15    12    16 1
    16    13    14 ar
    17    14    15 1
    18    16    17 1
    19    17    18 1
    20    18    19 2
    21    18    20 am

@<TRIPOS>MOLECULE
ZINC36931981_replica-1.pdb
 19 19 0 0 0
SMALL
GASTEIGER

@<TRIPOS>ATOM
       1  C1         -0.8600   26.0870   51.7850  C.3       1 <0>        -0.1553
       2  C2         -1.0430   27.4940   52.3580  C.3       1 <0>        -0.1202
       3  C3         -0.6230   27.5040   53.8290  C.3       1 <0>        -0.0925
       4  C4          0.2950   26.3110   54.1060  C.3       1 <0>        -0.1526
       5  C5          0.1240   28.8040   54.1370  C.3       1 <0>        -0.1236
       6  C6         -0.5250   29.4910   55.3400  C.3       1 <0>         0.1397
       7  C7         -1.8010   28.7400   55.7280  C.3       1 <0>        -0.1407
       8  C8         -2.9540   29.7360   55.8790  C.3       1 <0>        -0.1632
       9  N1          0.4080   29.4850   56.4690  N.pl3     1 <0>        -0.7169
      10  C9          0.5850   30.6400   57.2350  C.ar      1 <0>         0.2232
      11  C10         0.0130   31.8470   56.8370  C.ar      1 <0>        -0.1801
      12  C11         0.2160   32.9640   57.6290  C.ar      1 <0>        -0.0338
      13  C12         0.9750   32.8470   58.7790  C.ar      1 <0>        -0.5014
      14  N2          1.5050   31.6920   59.1280  N.ar      1 <0>        -0.3537
      15  C13         1.3300   30.6020   58.4060  C.ar      1 <0>         0.0113
      16  S1          1.2400   34.2640   59.7920  S.o2      1 <0>         2.5153
      17  O1          2.5430   34.0860   60.3310  O.2       1 <0>        -0.9221
      18  O2          0.9510   35.3720   58.9490  O.2       1 <0>        -0.9383
      19  C14        -0.0040   34.1370   61.1060  C.3       1 <0>        -0.6491
@<TRIPOS>BOND
     1     1     2 1
     2     2     3 1
     3     3     4 1
     4     3     5 1
     5     5     6 1
     6     6     7 1
     7     6     9 1
     8     7     8 1
     9     9    10 1
    10    10    15 ar
    11    10    11 ar
    12    11    12 ar
    13    12    13 ar
    14    13    14 ar
    15    13    16 1
    16    14    15 ar
    17    16    17 2
    18    16    18 2
    19    16    19 1

@<TRIPOS>MOLECULE
ZINC12861551_replica-1.pdb
 25 27 0 0 0
SMALL
GASTEIGER

@<TRIPOS>ATOM
       1  C1          8.1070   37.1710   61.1490  C.3       1 <0>        -0.1476
       2  C2          9.5910   37.1040   60.7820  C.3       1 <0>        -0.1209
       3  C3         10.2980   36.1000   61.6940  C.3       1 <0>        -0.1195
       4  C4         10.7390   34.8870   60.8720  C.3       1 <0>         0.1876
       5  C5         11.6430   34.0160   61.7060  C.ar      1 <0>        -0.0851
       6  C6         11.1530   32.8540   62.2720  C.ar      1 <0>        -0.1136
       7  C7         11.9820   32.0550   63.0370  C.ar      1 <0>        -0.1167
       8  C8         13.3010   32.4190   63.2350  C.ar      1 <0>        -0.1221
       9  C9         13.7910   33.5800   62.6680  C.ar      1 <0>        -0.1163
      10  C10        12.9630   34.3760   61.9000  C.ar      1 <0>        -0.1062
      11  N1          9.5590   34.1190   60.4660  N.am      1 <0>        -0.7252
      12  C11         9.1660   34.1180   59.1770  C.2       1 <0>         0.5106
      13  O1          9.7880   34.7550   58.3530  O.2       1 <0>        -0.5014
      14  C12         7.9530   33.3280   58.7590  C.3       1 <0>         0.1034
      15  N2          6.7410   34.0190   59.2050  N.pl3     1 <0>        -0.4744
      16  C13         6.1880   35.1620   58.6690  C.2       1 <0>         0.1869
      17  N3          5.1110   35.4330   59.3720  N.2       1 <0>        -0.2544
      18  N4          4.9540   34.5530   60.2940  N.2       1 <0>        -0.3344
      19  C14         5.9170   33.6610   60.2360  C.2       1 <0>         0.3951
      20  S1          6.1140   32.2650   61.2930  S.3       1 <0>        -0.7876
      21  C15         6.7070   35.9330   57.5280  C.2       1 <0>        -0.0278
      22  C16         7.3060   37.1660   57.5180  C.2       1 <0>        -0.1459
      23  C17         7.7150   37.6930   56.3140  C.2       1 <0>        -0.1386
      24  C18         7.5140   36.9780   55.1760  C.2       1 <0>        -0.1907
      25  S2          6.7280   35.5000   55.7960  S.3       1 <0>         0.0309
@<TRIPOS>BOND
     1     1     2 1
     2     2     3 1
     3     3     4 1
     4     4     5 1
     5     4    11 1
     6     5    10 ar
     7     5     6 ar
     8     6     7 ar
     9     7     8 ar
    10     8     9 ar
    11     9    10 ar
    12    11    12 am
    13    12    13 2
    14    12    14 1
    15    14    15 1
    16    15    19 1
    17    15    16 1
    18    16    21 1
    19    16    17 2
    20    17    18 1
    21    18    19 2
    22    19    20 1
    23    21    25 1
    24    21    22 2
    25    22    23 1
    26    23    24 2
    27    24    25 1

@<TRIPOS>MOLECULE
ZINC06997055_replica-1.pdb
 25 28 0 0 0
SMALL
GASTEIGER

@<TRIPOS>ATOM
       1  C1         -0.4040   26.4430   51.9740  C.ar      1 <0>        -0.1231
       2  C2         -0.0600   26.4370   53.3220  C.ar      1 <0>        -0.1018
       3  C3         -0.5420   27.3870   54.1740  C.ar      1 <0>        -0.1191
       4  C4         -1.3950   28.3830   53.6860  C.ar      1 <0>        -0.0181
       5  C5         -1.7470   28.3940   52.3140  C.ar      1 <0>        -0.0632
       6  C6         -1.2310   27.3990   51.4650  C.ar      1 <0>        -0.0950
       7  C7         -2.6020   29.3970   51.8280  C.ar      1 <0>        -0.0754
       8  C8         -3.0940   30.3560   52.6600  C.ar      1 <0>        -0.1265
       9  C9         -2.7780   30.3870   54.0100  C.ar      1 <0>        -0.0237
      10  C10        -1.9360   29.4240   54.5620  C.ar      1 <0>        -0.1000
      11  C11        -1.5990   29.4510   55.9870  C.2       1 <0>         0.0809
      12  C12        -0.4780   30.0950   56.4090  C.2       1 <0>        -0.2321
      13  C13         0.4480   30.9570   55.6490  C.2       1 <0>         0.5408
      14  O1          0.2770   31.1900   54.4670  O.2       1 <0>        -0.4693
      15  N1          1.4740   31.4640   56.3120  N.am      1 <0>        -0.6510
      16  C14         1.6520   31.1900   57.6500  C.2       1 <0>         0.2138
      17  C15         2.6530   31.6280   58.4880  C.2       1 <0>        -0.2622
      18  C16         3.6640   32.4690   57.9960  C.2       1 <0>         0.4822
      19  O2          4.5720   32.0040   57.3230  O.2       1 <0>        -0.4756
      20  C17         3.6300   33.9100   58.2900  C.2       1 <0>        -0.0940
      21  C18         2.5260   34.7110   58.2490  C.2       1 <0>        -0.1210
      22  C19         2.9520   36.0030   58.5990  C.2       1 <0>        -0.2284
      23  C20         4.2790   35.9340   58.8350  C.2       1 <0>         0.0008
      24  O3          4.6840   34.6690   58.6540  O.3       1 <0>        -0.1573
      25  S1          0.2650   30.1330   58.0330  S.3       1 <0>         0.0415
@<TRIPOS>BOND
     1     1     6 ar
     2     1     2 ar
     3     2     3 ar
     4     3     4 ar
     5     4    10 ar
     6     4     5 ar
     7     5     6 ar
     8     5     7 ar
     9     7     8 ar
    10     8     9 ar
    11     9    10 ar
    12    10    11 1
    13    11    12 2
    14    12    25 1
    15    12    13 1
    16    13    14 2
    17    13    15 am
    18    15    16 1
    19    16    17 2
    20    16    25 1
    21    17    18 1
    22    18    19 2
    23    18    20 1
    24    20    24 1
    25    20    21 2
    26    21    22 1
    27    22    23 2
    28    23    24 1

@<TRIPOS>MOLECULE
ZINC48397648_replica-1.pdb
 20 21 0 0 0
SMALL
GASTEIGER

@<TRIPOS>ATOM
       1  C1          2.3770   33.4210   60.2490  C.3       1 <0>        -0.1879
       2  C2          1.0620   34.0390   59.7660  C.3       1 <0>         0.1165
       3  C3          0.1330   34.2610   60.9610  C.3       1 <0>        -0.1880
       4  C4          1.3470   35.3790   59.0860  C.3       1 <0>        -0.1414
       5  O1          0.4360   33.1550   58.8330  O.3       1 <0>        -0.3355
       6  C5          0.8270   31.8720   58.8530  C.2       1 <0>         0.4912
       7  O2          0.3910   31.1190   59.6920  O.2       1 <0>        -0.4785
       8  C6          1.8110   31.3680   57.8280  C.3       1 <0>        -0.1548
       9  S1          1.3680   32.0180   56.1930  S.3       1 <0>         0.1366
      10  C7          0.0770   30.9500   55.6460  C.2       1 <0>         0.0716
      11  N1          0.1260   29.9630   54.7690  N.2       1 <0>        -0.4686
      12  C8         -0.9600   29.2520   54.4730  C.2       1 <0>         0.1081
      13  C9         -2.1430   29.5510   55.0870  C.2       1 <0>        -0.1839
      14  S2         -1.6410   30.9110   56.1340  S.3       1 <0>         0.0068
      15  C10        -0.8860   28.1480   53.4860  C.ar      1 <0>        -0.0312
      16  C11        -1.4950   28.2810   52.2390  C.ar      1 <0>        -0.1033
      17  C12        -1.4230   27.2510   51.3250  C.ar      1 <0>        -0.1207
      18  C13        -0.7480   26.0860   51.6430  C.ar      1 <0>        -0.1109
      19  C14        -0.1420   25.9470   52.8790  C.ar      1 <0>        -0.1222
      20  C15        -0.2030   26.9750   53.8000  C.ar      1 <0>        -0.0840
@<TRIPOS>BOND
     1     1     2 1
     2     2     3 1
     3     2     4 1
     4     2     5 1
     5     5     6 1
     6     6     7 2
     7     6     8 1
     8     8     9 1
     9     9    10 1
    10    10    14 1
    11    10    11 2
    12    11    12 1
    13    12    13 2
    14    12    15 1
    15    13    14 1
    16    15    20 ar
    17    15    16 ar
    18    16    17 ar
    19    17    18 ar
    20    18    19 ar
    21    19    20 ar

@<TRIPOS>MOLECULE
ZINC13479380_replica-1.pdb
 21 22 0 0 0
SMALL
GASTEIGER

@<TRIPOS>ATOM
       1  C1          3.9300   36.2850   55.8560  C.3       1 <0>        -0.1497
       2  C2          4.1650   35.3270   57.0270  C.3       1 <0>        -0.1010
       3  C3          3.4570   35.8620   58.2730  C.3       1 <0>        -0.1168
       4  C4          3.6910   34.9040   59.4430  C.3       1 <0>        -0.1226
       5  C5          5.1930   34.7920   59.7170  C.3       1 <0>        -0.1201
       6  C6          5.9000   34.2570   58.4700  C.3       1 <0>        -0.1305
       7  C7          5.6660   35.2150   57.3000  C.3       1 <0>         0.1508
       8  N1          6.2010   36.5360   57.6360  N.pl3     1 <0>        -0.6725
       9  C8          7.4140   36.9280   57.1430  C.cat     1 <0>         0.5309
      10  N2          8.3620   37.4400   57.9860  N.pl3     1 <0>        -0.6572
      11  C9          9.0160   36.6000   58.8960  C.ar      1 <0>         0.1641
      12  C10         9.3550   35.3040   58.5250  C.ar      1 <0>        -0.1193
      13  C11        10.0000   34.4760   59.4220  C.ar      1 <0>        -0.0706
      14  C12        10.3090   34.9380   60.6950  C.ar      1 <0>        -0.1007
      15  C13         9.9710   36.2330   61.0650  C.ar      1 <0>        -0.0986
      16  C14         9.3310   37.0630   60.1660  C.ar      1 <0>        -0.0797
      17  S1         11.1330   33.8800   61.8390  S.3       1 <0>        -0.0957
      18  C15        12.5860   34.8380   62.3540  C.3       1 <0>         0.2723
      19  F1         12.6660   34.8480   63.7510  F         1 <0>        -0.1807
      20  F2         13.7420   34.2540   61.8250  F         1 <0>        -0.1777
      21  S2          7.7360   36.7810   55.5210  S.3       1 <0>        -0.5418
@<TRIPOS>BOND
     1     1     2 1
     2     2     7 1
     3     2     3 1
     4     3     4 1
     5     4     5 1
     6     5     6 1
     7     6     7 1
     8     7     8 1
     9     8     9 2
    10     9    10 1
    11     9    21 1
    12    10    11 1
    13    11    16 ar
    14    11    12 ar
    15    12    13 ar
    16    13    14 ar
    17    14    15 ar
    18    14    17 1
    19    15    16 ar
    20    17    18 1
    21    18    19 1
    22    18    20 1

@<TRIPOS>MOLECULE
ZINC35491467_replica-1.pdb
 18 18 0 0 0
SMALL
GASTEIGER

@<TRIPOS>ATOM
       1  C1         -0.2360   29.0910   59.2830  C.3       1 <0>        -0.1548
       2  C2         -0.9930   29.7980   58.1570  C.3       1 <0>        -0.1316
       3  C3         -1.2360   28.8150   57.0090  C.3       1 <0>        -0.1082
       4  C4         -2.7360   28.5440   56.8800  C.3       1 <0>        -0.1038
       5  C5         -3.0940   27.2760   57.6570  C.3       1 <0>        -0.1687
       6  C6         -0.7100   29.4140   55.7040  C.3       1 <0>         0.0461
       7  C7         -0.6100   28.3330   54.6590  C.ar      1 <0>        -0.2049
       8  C8          0.0390   27.1480   54.9510  C.ar      1 <0>        -0.1218
       9  C9          0.1320   26.1560   53.9910  C.ar      1 <0>        -0.0678
      10  C10        -0.4250   26.3500   52.7410  C.ar      1 <0>        -0.2467
      11  C11        -1.0750   27.5360   52.4500  C.ar      1 <0>        -0.0589
      12  C12        -1.1700   28.5250   53.4100  C.ar      1 <0>        -0.1376
      13  C13        -1.8830   29.8150   53.0940  C.3       1 <0>        -0.1065
      14  C14        -1.6810   27.7480   51.0870  C.3       1 <0>        -0.1103
      15  C15         0.8400   24.8650   54.3080  C.3       1 <0>        -0.1112
      16  C16         0.6460   26.9370   56.3130  C.3       1 <0>        -0.1075
      17  N1          0.6190   29.9980   55.9340  N.4       1 <0>        -0.4936
      18  C17         0.6390   31.3810   55.4390  C.3       1 <0>        -0.0577
@<TRIPOS>BOND
     1     1     2 1
     2     2     3 1
     3     3     4 1
     4     3     6 1
     5     4     5 1
     6     6     7 1
     7     6    17 1
     8     7    12 ar
     9     7     8 ar
    10     8     9 ar
    11     8    16 1
    12     9    10 ar
    13     9    15 1
    14    10    11 ar
    15    11    12 ar
    16    11    14 1
    17    12    13 1
    18    17    18 1

@<TRIPOS>MOLECULE
ZINC52341176_replica-1.pdb
 21 22 0 0 0
SMALL
GASTEIGER

@<TRIPOS>ATOM
       1  C1         -0.2290   26.1570   56.8440  C.3       1 <0>        -0.1620
       2  C2          0.4670   25.9740   55.4930  C.3       1 <0>        -0.1403
       3  C3          0.4800   27.3070   54.7420  C.3       1 <0>         0.1494
       4  C4          0.1490   27.0640   53.2680  C.3       1 <0>        -0.0937
       5  C5         -0.1150   25.5750   53.0420  C.3       1 <0>        -0.1159
       6  C6         -0.4450   25.3320   51.5690  C.3       1 <0>        -0.1199
       7  C7         -1.6910   26.1340   51.1870  C.3       1 <0>        -0.1212
       8  C8         -1.4280   27.6250   51.4120  C.3       1 <0>        -0.1205
       9  C9         -1.0960   27.8660   52.8860  C.3       1 <0>        -0.1132
      10  N1         -0.5200   28.2060   55.3250  N.pl3     1 <0>        -0.7265
      11  C10        -0.1310   29.4510   55.8240  C.ar      1 <0>         0.2727
      12  C11        -0.1150   30.5620   54.9890  C.ar      1 <0>        -0.2187
      13  C12         0.2690   31.7910   55.4860  C.ar      1 <0>         0.0240
      14  C13         0.6370   31.9180   56.8130  C.ar      1 <0>        -0.7345
      15  C14         0.6220   30.8150   57.6470  C.ar      1 <0>         0.0254
      16  C15         0.2340   29.5840   57.1570  C.ar      1 <0>        -0.2188
      17  S1          1.1280   33.4890   57.4430  S.o2      1 <0>         2.6993
      18  O1         -0.0380   34.0910   57.9870  O.2       1 <0>        -0.9624
      19  O2          2.3030   33.2700   58.2110  O.2       1 <0>        -0.9647
      20  N2          1.5780   34.4170   56.1460  N.pl3     1 <0>        -1.1232
      21  C16         2.8190   35.1940   56.1980  C.3       1 <0>         0.0839
@<TRIPOS>BOND
     1     1     2 1
     2     2     3 1
     3     3     4 1
     4     3    10 1
     5     4     9 1
     6     4     5 1
     7     5     6 1
     8     6     7 1
     9     7     8 1
    10     8     9 1
    11    10    11 1
    12    11    16 ar
    13    11    12 ar
    14    12    13 ar
    15    13    14 ar
    16    14    15 ar
    17    14    17 1
    18    15    16 ar
    19    17    18 2
    20    17    19 2
    21    17    20 1
    22    20    21 1

@<TRIPOS>MOLECULE
ZINC04775030_replica-1.pdb
 20 21 0 0 0
SMALL
GASTEIGER

@<TRIPOS>ATOM
       1  C1         15.9640   34.0400   65.0370  C.3       1 <0>        -0.1535
       2  C2         15.4200   34.0160   63.6070  C.3       1 <0>        -0.1214
       3  C3         13.9160   33.7340   63.6390  C.3       1 <0>        -0.1582
       4  C4         13.5090   32.9930   62.3640  C.3       1 <0>         0.0926
       5  C5         12.6800   31.7570   62.7310  C.3       1 <0>        -0.1523
       6  C6         11.3650   32.2160   63.3700  C.3       1 <0>         0.0601
       7  O1         10.7100   33.1280   62.4830  O.3       1 <0>        -0.3846
       8  C7         11.4960   34.2750   62.1540  C.3       1 <0>         0.2956
       9  O2         12.7180   33.8550   61.5410  O.3       1 <0>        -0.3790
      10  C8         10.7300   35.1510   61.1960  C.ar      1 <0>        -0.1265
      11  C9         10.3570   36.4280   61.5740  C.ar      1 <0>        -0.0417
      12  C10         9.6600   37.2340   60.6950  C.ar      1 <0>        -0.2147
      13  C11         9.3230   36.7580   59.4380  C.ar      1 <0>         0.1403
      14  C12         9.6920   35.4740   59.0620  C.ar      1 <0>        -0.1567
      15  C13        10.3950   34.6730   59.9420  C.ar      1 <0>        -0.0509
      16  O3          8.6320   37.5470   58.5730  O.3       1 <0>        -0.3155
      17  C14         8.3990   37.0250   57.2630  C.3       1 <0>         0.0533
      18  C15         7.8090   38.1220   56.3750  C.3       1 <0>        -0.1532
      19  C16        13.4590   30.8930   63.7250  C.3       1 <0>        -0.1176
      20  C17        12.5300   29.8330   64.3170  C.3       1 <0>        -0.1563
@<TRIPOS>BOND
     1     1     2 1
     2     2     3 1
     3     3     4 1
     4     4     9 1
     5     4     5 1
     6     5     6 1
     7     5    19 1
     8     6     7 1
     9     7     8 1
    10     8     9 1
    11     8    10 1
    12    10    15 ar
    13    10    11 ar
    14    11    12 ar
    15    12    13 ar
    16    13    14 ar
    17    13    16 1
    18    14    15 ar
    19    16    17 1
    20    17    18 1
    21    19    20 1

@<TRIPOS>MOLECULE
ZINC62655784_replica-1.pdb
 20 21 0 0 0
SMALL
GASTEIGER

@<TRIPOS>ATOM
       1  C1         -3.0940   28.8670   56.3490  C.3       1 <0>        -0.1623
       2  C2         -1.7040   28.8910   56.9880  C.3       1 <0>        -0.1397
       3  C3         -0.8320   29.9270   56.2750  C.3       1 <0>         0.2386
       4  C4         -0.3220   30.9300   57.2760  C.2       1 <0>        -0.0299
       5  C5         -0.2780   32.2630   57.1010  C.2       1 <0>        -0.1899
       6  C6          0.2700   32.8130   58.2840  C.2       1 <0>        -0.2126
       7  C7          0.5250   31.7830   59.1100  C.2       1 <0>        -0.0315
       8  O1          0.1610   30.6460   58.4970  O.3       1 <0>        -0.1732
       9  N1          0.3020   29.2540   55.6360  N.pl3     1 <0>        -0.7328
      10  C8          0.0780   28.2020   54.7410  C.ar      1 <0>         0.1906
      11  C9         -0.5910   28.4350   53.5470  C.ar      1 <0>        -0.1309
      12  C10        -0.8100   27.3940   52.6650  C.ar      1 <0>        -0.1463
      13  C11        -0.3640   26.1210   52.9710  C.ar      1 <0>        -0.0992
      14  C12         0.3020   25.8840   54.1590  C.ar      1 <0>        -0.1051
      15  C13         0.5300   26.9230   55.0440  C.ar      1 <0>         0.0548
      16  F1          1.1860   26.6920   56.2030  F         1 <0>        -0.1330
      17  C14        -1.5360   27.6460   51.3690  C.3       1 <0>         0.5100
      18  F2         -2.3010   26.5220   51.0370  F         1 <0>        -0.1741
      19  F3         -2.3740   28.7560   51.5130  F         1 <0>        -0.1737
      20  F4         -0.6040   27.8920   50.3540  F         1 <0>        -0.1759
@<TRIPOS>BOND
     1     1     2 1
     2     2     3 1
     3     3     4 1
     4     3     9 1
     5     4     8 1
     6     4     5 2
     7     5     6 1
     8     6     7 2
     9     7     8 1
    10     9    10 1
    11    10    15 ar
    12    10    11 ar
    13    11    12 ar
    14    12    13 ar
    15    12    17 1
    16    13    14 ar
    17    14    15 ar
    18    15    16 1
    19    17    18 1
    20    17    19 1
    21    17    20 1

@<TRIPOS>MOLECULE
ZINC54106892_replica-1.pdb
 18 19 0 0 0
SMALL
GASTEIGER

@<TRIPOS>ATOM
       1  C1         15.2890   33.5620   64.1680  C.3       1 <0>        -0.1749
       2  C2         14.4450   32.9450   63.0510  C.3       1 <0>        -0.1492
       3  C3         12.9740   32.9350   63.4690  C.3       1 <0>         0.1370
       4  C4         12.2810   34.1480   62.9020  C.2       1 <0>        -0.1073
       5  C5         12.2920   35.3810   63.4420  C.2       1 <0>        -0.1265
       6  C6         11.5260   36.2090   62.5970  C.2       1 <0>        -0.2019
       7  C7         11.0860   35.4250   61.5760  C.2       1 <0>         0.0901
       8  O1         11.5580   34.1790   61.7710  O.3       1 <0>        -0.1760
       9  C8         10.2430   35.8670   60.4460  C.ar      1 <0>        -0.0545
      10  C9         10.0290   35.0180   59.3570  C.ar      1 <0>        -0.0799
      11  C10         9.2410   35.4360   58.3050  C.ar      1 <0>        -0.1162
      12  C11         8.6630   36.6930   58.3270  C.ar      1 <0>        -0.0569
      13  C12         8.8720   37.5390   59.4010  C.ar      1 <0>        -0.1202
      14  C13         9.6530   37.1310   60.4630  C.ar      1 <0>        -0.0904
      15  C14         7.8050   37.1430   57.1730  C.3       1 <0>        -0.1262
      16  N1         12.3280   31.7180   62.9560  N.4       1 <0>        -0.5114
      17  C15        13.0300   30.5360   63.4720  C.3       1 <0>        -0.0102
      18  C16        12.0370   29.6330   64.2060  C.3       1 <0>        -0.1878
@<TRIPOS>BOND
     1     1     2 1
     2     2     3 1
     3     3     4 1
     4     3    16 1
     5     4     8 1
     6     4     5 2
     7     5     6 1
     8     6     7 2
     9     7     8 1
    10     7     9 1
    11     9    14 ar
    12     9    10 ar
    13    10    11 ar
    14    11    12 ar
    15    12    13 ar
    16    12    15 1
    17    13    14 ar
    18    16    17 1
    19    17    18 1

@<TRIPOS>MOLECULE
ZINC49137011_replica-1.pdb
 18 19 0 0 0
SMALL
GASTEIGER

@<TRIPOS>ATOM
       1  C1          7.4270   37.0330   55.2220  C.3       1 <0>        -0.1556
       2  C2          8.0420   36.3380   56.4390  C.3       1 <0>        -0.1156
       3  C3          8.0370   37.2980   57.6300  C.3       1 <0>        -0.0456
       4  C4          8.6140   38.6480   57.2000  C.3       1 <0>        -0.1458
       5  C5          8.8780   36.7240   58.7420  C.ar      1 <0>        -0.1339
       6  C6          9.1280   37.4750   59.8760  C.ar      1 <0>        -0.0650
       7  C7          9.8990   36.9520   60.8960  C.ar      1 <0>        -0.1924
       8  C8         10.4220   35.6700   60.7820  C.ar      1 <0>         0.2117
       9  C9         10.1680   34.9180   59.6420  C.ar      1 <0>        -0.1966
      10  C10         9.3920   35.4450   58.6270  C.ar      1 <0>        -0.0687
      11  N1         11.2010   35.1390   61.8120  N.pl3     1 <0>        -0.7466
      12  C11        11.2670   33.6880   62.0060  C.3       1 <0>         0.2002
      13  C12        12.6230   33.3160   62.5490  C.2       1 <0>        -0.0137
      14  C13        13.7490   34.0490   62.4360  C.2       1 <0>        -0.1720
      15  C14        14.7810   33.3380   63.0800  C.2       1 <0>        -0.2025
      16  C15        14.2460   32.1970   63.5620  C.2       1 <0>        -0.0051
      17  N2         12.9200   32.1810   63.2440  N.pl3     1 <0>        -0.4430
      18  C16        11.9740   31.1180   63.5890  C.3       1 <0>         0.0705
@<TRIPOS>BOND
     1     1     2 1
     2     2     3 1
     3     3     4 1
     4     3     5 1
     5     5    10 ar
     6     5     6 ar
     7     6     7 ar
     8     7     8 ar
     9     8     9 ar
    10     8    11 1
    11     9    10 ar
    12    11    12 1
    13    12    13 1
    14    13    17 1
    15    13    14 2
    16    14    15 1
    17    15    16 2
    18    16    17 1
    19    17    18 1

@<TRIPOS>MOLECULE
ZINC45579407_replica-1.pdb
 26 29 0 0 0
SMALL
GASTEIGER

@<TRIPOS>ATOM
       1  C1          8.6980   37.5920   57.7870  C.3       1 <0>        -0.0923
       2  C2          7.6410   36.6080   58.2170  C.2       1 <0>         0.1705
       3  C3          7.9310   35.5430   59.0620  C.2       1 <0>        -0.2964
       4  S1          6.3230   34.7770   59.1880  S.3       1 <0>         0.1710
       5  C4          5.4780   35.8420   58.1960  C.2       1 <0>         0.1142
       6  N1          6.4000   36.7130   57.8190  N.2       1 <0>        -0.5167
       7  C5          4.0450   35.8140   57.8350  C.ar      1 <0>        -0.0421
       8  C6          3.0710   35.8050   58.8350  C.ar      1 <0>        -0.0335
       9  C7          1.7360   35.7800   58.4930  C.ar      1 <0>        -0.1546
      10  C8          1.3600   35.7620   57.1590  C.ar      1 <0>         0.1257
      11  C9          2.3230   35.7700   56.1620  C.ar      1 <0>        -0.1513
      12  C10         3.6610   35.8020   56.4930  C.ar      1 <0>        -0.0612
      13  F1          0.0500   35.7360   56.8290  F         1 <0>        -0.1306
      14  C11         9.2030   35.1570   59.6770  C.2       1 <0>         0.6046
      15  O1         10.1480   34.8470   58.9770  O.2       1 <0>        -0.4442
      16  N2          9.3260   35.1440   61.0190  N.am      1 <0>        -0.6550
      17  C12        10.4960   34.6780   61.6060  C.ar      1 <0>         0.3840
      18  C13        11.5360   35.5790   61.8690  C.ar      1 <0>        -0.1954
      19  C14        12.6900   35.1370   62.4430  C.ar      1 <0>        -0.0284
      20  C15        12.7970   33.7660   62.7570  C.ar      1 <0>        -0.1286
      21  C16        13.9560   33.2430   63.3500  C.ar      1 <0>        -0.0884
      22  C17        14.0230   31.9140   63.6400  C.ar      1 <0>        -0.1244
      23  C18        12.9550   31.0650   63.3550  C.ar      1 <0>        -0.0935
      24  C19        11.8170   31.5400   62.7790  C.ar      1 <0>        -0.0963
      25  C20        11.7100   32.9060   62.4660  C.ar      1 <0>         0.1590
      26  N3         10.6000   33.4000   61.9050  N.ar      1 <0>        -0.4692
@<TRIPOS>BOND
     1     1     2 1
     2     2     6 1
     3     2     3 2
     4     3     4 1
     5     3    14 1
     6     4     5 1
     7     5     6 2
     8     5     7 1
     9     7    12 ar
    10     7     8 ar
    11     8     9 ar
    12     9    10 ar
    13    10    11 ar
    14    10    13 1
    15    11    12 ar
    16    14    15 2
    17    14    16 am
    18    16    17 1
    19    17    26 ar
    20    17    18 ar
    21    18    19 ar
    22    19    20 ar
    23    20    25 ar
    24    20    21 ar
    25    21    22 ar
    26    22    23 ar
    27    23    24 ar
    28    24    25 ar
    29    25    26 ar

@<TRIPOS>MOLECULE
ZINC35552869_replica-1.pdb
 29 33 0 0 0
SMALL
GASTEIGER

@<TRIPOS>ATOM
       1  C1         -0.2660   31.6110   62.7580  C.3       1 <0>        -0.1507
       2  C2          0.2080   33.0640   62.6800  C.3       1 <0>        -0.1143
       3  C3         -0.4860   33.7630   61.5080  C.3       1 <0>        -0.0494
       4  C4          0.4640   33.8470   60.3410  C.ar      1 <0>         0.3534
       5  N1          0.3750   32.9560   59.3690  N.ar      1 <0>        -0.5336
       6  C5          1.1800   32.9750   58.3200  C.ar      1 <0>         0.4804
       7  C6          2.1760   33.9870   58.2290  C.ar      1 <0>        -0.1899
       8  C7          3.1680   34.2050   57.1750  C.2       1 <0>        -0.0798
       9  C8          4.0070   35.2500   57.3320  C.2       1 <0>        -0.1372
      10  S1          3.5350   35.9960   58.8700  S.3       1 <0>         0.1064
      11  C9          2.2080   34.9010   59.3020  C.ar      1 <0>         0.1242
      12  N2          1.3630   34.8110   60.3100  N.ar      1 <0>        -0.4805
      13  C10         5.1010   35.6820   56.4050  C.3       1 <0>        -0.0422
      14  C11         5.3800   34.5380   55.4180  C.3       1 <0>        -0.1146
      15  C12         4.0450   34.0390   54.8560  C.3       1 <0>        -0.1238
      16  C13         3.2660   33.3040   55.9470  C.3       1 <0>        -0.0588
      17  N3          1.0550   32.0250   57.3220  N.pl3     1 <0>        -0.6559
      18  C14         1.6670   30.6970   57.4730  C.3       1 <0>         0.1323
      19  C15         0.5790   29.6320   57.2920  C.3       1 <0>         0.1060
      20  N4         -0.1700   29.9310   56.0630  N.pl3     1 <0>        -0.6226
      21  C16        -0.7830   31.2580   55.9130  C.3       1 <0>         0.1057
      22  C17         0.3000   32.3220   56.0970  C.3       1 <0>         0.1323
      23  C18        -0.2970   28.9690   55.0560  C.ar      1 <0>         0.2137
      24  C19        -1.0680   29.2370   53.9320  C.ar      1 <0>        -0.1735
      25  C20        -1.1920   28.2860   52.9380  C.ar      1 <0>        -0.1006
      26  C21        -0.5480   27.0670   53.0600  C.ar      1 <0>         0.0343
      27  C22         0.2220   26.7980   54.1790  C.ar      1 <0>        -0.1006
      28  C23         0.3520   27.7480   55.1740  C.ar      1 <0>        -0.1734
      29  F1         -0.6700   26.1380   52.0870  F         1 <0>        -0.1464
@<TRIPOS>BOND
     1     1     2 1
     2     2     3 1
     3     3     4 1
     4     4    12 ar
     5     4     5 ar
     6     5     6 ar
     7     6     7 ar
     8     6    17 1
     9     7    11 ar
    10     7     8 1
    11     8    16 1
    12     8     9 2
    13     9    10 1
    14     9    13 1
    15    10    11 1
    16    11    12 ar
    17    13    14 1
    18    14    15 1
    19    15    16 1
    20    17    22 1
    21    17    18 1
    22    18    19 1
    23    19    20 1
    24    20    21 1
    25    20    23 1
    26    21    22 1
    27    23    28 ar
    28    23    24 ar
    29    24    25 ar
    30    25    26 ar
    31    26    27 ar
    32    26    29 1
    33    27    28 ar

@<TRIPOS>MOLECULE
ZINC54753497_replica-1.pdb
 24 27 0 0 0
SMALL
GASTEIGER

@<TRIPOS>ATOM
       1  C1         15.5830   33.9970   64.1140  C.3       1 <0>        -0.1836
       2  C2         14.3640   33.4100   63.3990  C.3       1 <0>         0.0738
       3  C3         14.2120   31.9360   63.7760  C.3       1 <0>        -0.1510
       4  O1         13.1920   34.1270   63.7940  O.3       1 <0>        -0.3030
       5  C4         12.2110   34.2620   62.8660  C.ar      1 <0>         0.1732
       6  C5         11.4920   33.1490   62.4480  C.ar      1 <0>        -0.2196
       7  C6         10.4960   33.2820   61.5060  C.ar      1 <0>        -0.0023
       8  C7         10.2090   34.5400   60.9690  C.ar      1 <0>        -0.1241
       9  C8         10.9330   35.6570   61.3930  C.ar      1 <0>        -0.0434
      10  C9         11.9240   35.5160   62.3380  C.ar      1 <0>        -0.1548
      11  C10         9.1430   34.6870   59.9600  C.2       1 <0>         0.4713
      12  N1          8.2120   35.6800   60.1020  N.am      1 <0>        -0.6362
      13  C11         7.2260   35.8470   59.2000  C.2       1 <0>         0.5598
      14  O2          6.4040   36.7350   59.3380  O.2       1 <0>        -0.5189
      15  C12         7.1590   34.9600   58.0750  C.2       1 <0>        -0.2639
      16  C13         6.1690   34.9650   56.9860  C.2       1 <0>        -0.0312
      17  C14         6.3220   34.0290   56.0350  C.2       1 <0>        -0.1820
      18  S1          7.7550   33.0940   56.5250  S.3       1 <0>         0.1561
      19  C15         8.1520   33.9740   58.0110  C.2       1 <0>         0.1248
      20  N2          9.1040   33.8660   58.9310  N.2       1 <0>        -0.4894
      21  C16         5.5140   33.7630   54.7940  C.3       1 <0>        -0.0008
      22  S2          3.9290   34.6450   54.9410  S.3       1 <0>        -0.2332
      23  C17         4.4600   36.2430   55.6350  C.3       1 <0>        -0.0824
      24  C18         5.0540   36.0030   57.0150  C.3       1 <0>        -0.0670
@<TRIPOS>BOND
     1     1     2 1
     2     2     3 1
     3     2     4 1
     4     4     5 1
     5     5    10 ar
     6     5     6 ar
     7     6     7 ar
     8     7     8 ar
     9     8     9 ar
    10     8    11 1
    11     9    10 ar
    12    11    20 2
    13    11    12 1
    14    12    13 am
    15    13    14 2
    16    13    15 1
    17    15    19 2
    18    15    16 1
    19    16    24 1
    20    16    17 2
    21    17    18 1
    22    17    21 1
    23    18    19 1
    24    19    20 1
    25    21    22 1
    26    22    23 1
    27    23    24 1

@<TRIPOS>MOLECULE
ZINC04356710_replica-1.pdb
 19 20 0 0 0
SMALL
GASTEIGER

@<TRIPOS>ATOM
       1  C1          8.0330   38.3670   56.5560  C.3       1 <0>        -0.1432
       2  C2          7.4440   37.0250   56.9940  C.3       1 <0>        -0.0054
       3  C3          7.1820   36.1560   55.7610  C.3       1 <0>        -0.1421
       4  C4          8.4160   36.3220   57.9060  C.2       1 <0>         0.1935
       5  N1          9.1630   35.3010   57.5970  N.2       1 <0>        -0.2789
       6  N2          9.8740   34.9520   58.6110  N.2       1 <0>        -0.2915
       7  C5          9.6180   35.7420   59.6270  C.2       1 <0>         0.1535
       8  N3          8.6760   36.6380   59.2110  N.pl3     1 <0>        -0.4585
       9  C6          8.0740   37.7180   59.9960  C.3       1 <0>         0.1332
      10  C7          6.8480   37.2010   60.7040  C.2       1 <0>        -0.1918
      11  C8          5.6650   37.3540   60.1620  C.2       1 <0>        -0.1445
      12  S1         10.3520   35.6600   61.2270  S.3       1 <0>         0.0052
      13  C9         10.3790   33.8670   61.4700  C.3       1 <0>        -0.0588
      14  C10        11.6920   33.4630   62.0870  C.ar      1 <0>        -0.0848
      15  C11        11.7880   32.2800   62.7950  C.ar      1 <0>        -0.0987
      16  C12        12.9940   31.9060   63.3580  C.ar      1 <0>        -0.1197
      17  C13        14.1020   32.7220   63.2210  C.ar      1 <0>        -0.1099
      18  C14        14.0050   33.9070   62.5170  C.ar      1 <0>        -0.1196
      19  C15        12.8000   34.2780   61.9500  C.ar      1 <0>        -0.0984
@<TRIPOS>BOND
     1     1     2 1
     2     2     3 1
     3     2     4 1
     4     4     8 1
     5     4     5 2
     6     5     6 1
     7     6     7 2
     8     7     8 1
     9     7    12 1
    10     8     9 1
    11     9    10 1
    12    10    11 2
    13    12    13 1
    14    13    14 1
    15    14    19 ar
    16    14    15 ar
    17    15    16 ar
    18    16    17 ar
    19    17    18 ar
    20    18    19 ar

@<TRIPOS>MOLECULE
ZINC37101184_replica-1.pdb
 19 19 0 0 0
SMALL
GASTEIGER

@<TRIPOS>ATOM
       1  C1          8.2400   33.5650   58.2110  C.3       1 <0>        -0.1729
       2  C2          8.3520   34.9190   58.9160  C.3       1 <0>         0.1427
       3  C3          7.5570   35.9670   58.1360  C.3       1 <0>        -0.1231
       4  C4          8.5010   36.7400   57.2130  C.3       1 <0>        -0.0978
       5  C5          8.2120   36.3650   55.7570  C.3       1 <0>        -0.1493
       6  C6          8.2860   38.2420   57.4040  C.3       1 <0>        -0.1504
       7  N1          9.7590   35.3210   58.9810  N.pl3     1 <0>        -0.7312
       8  C7         10.3840   35.4790   60.2240  C.ar      1 <0>         0.1741
       9  C8         11.2230   34.4910   60.7070  C.ar      1 <0>        -0.0952
      10  C9         11.8460   34.6530   61.9480  C.ar      1 <0>        -0.1226
      11  C10        11.6170   35.8150   62.6930  C.ar      1 <0>         0.1350
      12  C11        10.7780   36.7960   62.2010  C.ar      1 <0>        -0.1530
      13  C12        10.1670   36.6360   60.9700  C.ar      1 <0>         0.0875
      14  F1          9.3520   37.6010   60.4920  F         1 <0>        -0.1261
      15  F2         12.2150   35.9770   63.8940  F         1 <0>        -0.1113
      16  C13        12.7390   33.6030   62.4700  C.2       1 <0>         0.5067
      17  O1         13.9380   33.6780   62.2830  O.2       1 <0>        -0.4848
      18  O2         12.2280   32.5610   63.1530  O.3       1 <0>        -0.3482
      19  C14        13.0520   31.4000   63.2810  C.3       1 <0>         0.0341
@<TRIPOS>BOND
     1     1     2 1
     2     2     3 1
     3     2     7 1
     4     3     4 1
     5     4     5 1
     6     4     6 1
     7     7     8 1
     8     8    13 ar
     9     8     9 ar
    10     9    10 ar
    11    10    11 ar
    12    10    16 1
    13    11    12 ar
    14    11    15 1
    15    12    13 ar
    16    13    14 1
    17    16    17 2
    18    16    18 1
    19    18    19 1

@<TRIPOS>MOLECULE
ZINC13311117_replica-1.pdb
 23 24 0 0 0
SMALL
GASTEIGER

@<TRIPOS>ATOM
       1  C1         10.2580   36.8680   61.0440  C.3       1 <0>        -0.1363
       2  C2         10.8490   35.5990   61.6030  C.ar      1 <0>         0.0062
       3  C3         11.8570   35.6680   62.5500  C.ar      1 <0>        -0.1583
       4  C4         12.4020   34.5120   63.0670  C.ar      1 <0>        -0.0173
       5  C5         11.9360   33.2700   62.6320  C.ar      1 <0>        -0.1362
       6  C6         10.9170   33.2070   61.6800  C.ar      1 <0>         0.0148
       7  C7         10.3840   34.3720   61.1680  C.ar      1 <0>        -0.6941
       8  S1          9.1020   34.2960   59.9620  S.o2      1 <0>         2.6994
       9  O1          9.6460   34.8150   58.7560  O.2       1 <0>        -0.9604
      10  O2          7.9400   34.8420   60.5710  O.2       1 <0>        -0.9553
      11  N1          8.7830   32.6950   59.6860  N.pl3     1 <0>        -1.1177
      12  C8          8.4540   32.2360   58.3330  C.3       1 <0>         0.1321
      13  C9          6.9920   32.5630   58.0260  C.3       1 <0>        -0.1010
      14  S2          6.9150   33.8620   56.7610  S.3       1 <0>        -0.2200
      15  C10         6.0560   35.2290   57.5870  C.3       1 <0>        -0.0044
      16  C11         6.9200   36.4640   57.5450  C.2       1 <0>        -0.1370
      17  C12         7.0570   37.4420   58.4730  C.2       1 <0>        -0.1359
      18  C13         7.9120   38.4960   58.2150  C.2       1 <0>        -0.1583
      19  C14         8.5890   38.5200   57.0410  C.2       1 <0>        -0.1690
      20  S3          8.0210   37.0210   56.2560  S.3       1 <0>         0.0554
      21  C15        12.5160   32.0260   63.1810  C.2       1 <0>         0.4896
      22  O3         11.7880   31.1130   63.5150  O.co2     1 <0>        -0.6235
      23  O4         13.8510   31.9060   63.3100  O.co2     1 <0>        -0.7511
@<TRIPOS>BOND
     1     1     2 1
     2     2     7 ar
     3     2     3 ar
     4     3     4 ar
     5     4     5 ar
     6     5     6 ar
     7     5    21 1
     8     6     7 ar
     9     7     8 1
    10     8     9 2
    11     8    10 2
    12     8    11 1
    13    11    12 1
    14    12    13 1
    15    13    14 1
    16    14    15 1
    17    15    16 1
    18    16    20 1
    19    16    17 2
    20    17    18 1
    21    18    19 2
    22    19    20 1
    23    21    22 2
    24    21    23 1

@<TRIPOS>MOLECULE
ZINC22333014_replica-1.pdb
 24 25 0 0 0
SMALL
GASTEIGER

@<TRIPOS>ATOM
       1  C1          4.7780   34.4780   54.5630  C.3       1 <0>        -0.1666
       2  C2          4.3640   35.6850   55.4080  C.3       1 <0>         0.1368
       3  C3          3.0190   35.4010   56.0780  C.3       1 <0>        -0.1244
       4  C4          3.2440   35.0540   57.5500  C.3       1 <0>        -0.0992
       5  C5          2.3950   35.9750   58.4280  C.3       1 <0>        -0.1520
       6  C6          2.8410   33.5980   57.7980  C.3       1 <0>        -0.1483
       7  N1          5.3790   35.9310   56.4350  N.am      1 <0>        -0.7043
       8  C7          6.2130   36.9840   56.3210  C.2       1 <0>         0.5946
       9  O1          6.1230   37.7290   55.3660  O.2       1 <0>        -0.5085
      10  C8          7.2400   37.2330   57.3610  C.2       1 <0>         0.0732
      11  C9          7.9380   36.2470   58.0910  C.2       1 <0>        -0.2369
      12  C10         8.7870   36.8800   58.9430  C.2       1 <0>         0.1281
      13  O2          8.6400   38.2070   58.7670  O.3       1 <0>        -0.0554
      14  N2          7.6640   38.4080   57.7610  N.2       1 <0>        -0.2872
      15  C11         9.7110   36.2270   59.8970  C.ar      1 <0>        -0.0562
      16  C12        10.1080   36.8950   61.0560  C.ar      1 <0>        -0.0748
      17  C13        10.9690   36.2800   61.9420  C.ar      1 <0>        -0.1169
      18  C14        11.4390   35.0050   61.6820  C.ar      1 <0>        -0.0431
      19  C15        11.0490   34.3380   60.5340  C.ar      1 <0>        -0.1232
      20  C16        10.1840   34.9380   59.6440  C.ar      1 <0>        -0.0779
      21  C17        12.3790   34.3410   62.6540  C.3       1 <0>        -0.0346
      22  C18        11.8260   32.9680   63.0420  C.3       1 <0>        -0.1406
      23  C19        13.7520   34.1700   61.9990  C.3       1 <0>        -0.1476
      24  C20        12.5160   35.2080   63.9060  C.3       1 <0>        -0.1406
@<TRIPOS>BOND
     1     1     2 1
     2     2     3 1
     3     2     7 1
     4     3     4 1
     5     4     5 1
     6     4     6 1
     7     7     8 am
     8     8     9 2
     9     8    10 1
    10    10    14 2
    11    10    11 1
    12    11    12 2
    13    12    13 1
    14    12    15 1
    15    13    14 1
    16    15    20 ar
    17    15    16 ar
    18    16    17 ar
    19    17    18 ar
    20    18    19 ar
    21    18    21 1
    22    19    20 ar
    23    21    22 1
    24    21    23 1
    25    21    24 1

@<TRIPOS>MOLECULE
ZINC04939267_replica-1.pdb
 26 29 0 0 0
SMALL
GASTEIGER

@<TRIPOS>ATOM
       1  C1          7.2120   37.4860   55.2750  C.3       1 <0>        -0.1165
       2  C2          6.5620   36.8290   56.4650  C.ar      1 <0>        -0.0980
       3  C3          7.0550   37.0660   57.7400  C.ar      1 <0>        -0.0603
       4  C4          6.4720   36.4700   58.8380  C.ar      1 <0>        -0.1213
       5  C5          5.3830   35.6240   58.6770  C.ar      1 <0>         0.1500
       6  C6          4.8820   35.3820   57.3850  C.ar      1 <0>        -0.0907
       7  C7          5.4840   35.9920   56.2830  C.ar      1 <0>        -0.0614
       8  C8          3.7380   34.4920   57.2310  C.2       1 <0>        -0.0882
       9  C9          3.1440   33.8860   58.3540  C.2       1 <0>        -0.2254
      10  C10         2.0500   33.0560   58.0820  C.2       1 <0>        -0.0104
      11  C11         1.6590   32.8950   56.7840  C.2       1 <0>        -0.2422
      12  S1          2.8150   33.9190   55.8940  S.3       1 <0>         0.2420
      13  C12         0.5570   32.0840   56.2540  C.2       1 <0>         0.6069
      14  O1         -0.5120   32.0560   56.8340  O.2       1 <0>        -0.5129
      15  N1          0.7290   31.3680   55.1250  N.am      1 <0>        -0.7247
      16  C13        -0.3710   30.5580   54.5960  C.3       1 <0>         0.1249
      17  C14        -0.1550   29.0930   54.9800  C.3       1 <0>        -0.0992
      18  C15        -0.4560   28.2140   53.7930  C.2       1 <0>        -0.1234
      19  C16        -1.2700   28.6660   52.8940  C.2       1 <0>        -0.1440
      20  C17        -1.6730   27.9050   51.6650  C.3       1 <0>        -0.0925
      21  C18        -0.7000   26.7520   51.4120  C.3       1 <0>        -0.1218
      22  C19        -0.5190   25.9730   52.7220  C.3       1 <0>        -0.1215
      23  C20         0.2060   26.8690   53.7280  C.3       1 <0>        -0.0837
      24  C21         3.7570   34.2150   59.6610  C.2       1 <0>         0.5459
      25  O2          3.2960   33.7260   60.6760  O.2       1 <0>        -0.4419
      26  O3          4.8070   35.0380   59.7480  O.3       1 <0>        -0.2655
@<TRIPOS>BOND
     1     1     2 1
     2     2     7 ar
     3     2     3 ar
     4     3     4 ar
     5     4     5 ar
     6     5    26 1
     7     5     6 ar
     8     6     7 ar
     9     6     8 1
    10     8    12 1
    11     8     9 2
    12     9    10 1
    13     9    24 1
    14    10    11 2
    15    11    12 1
    16    11    13 1
    17    13    14 2
    18    13    15 am
    19    15    16 1
    20    16    17 1
    21    17    18 1
    22    18    23 1
    23    18    19 2
    24    19    20 1
    25    20    21 1
    26    21    22 1
    27    22    23 1
    28    24    25 2
    29    24    26 1

@<TRIPOS>MOLECULE
ZINC66876166_replica-1.pdb
 23 23 0 0 0
SMALL
GASTEIGER

@<TRIPOS>ATOM
       1  C1          3.1560   35.8990   58.3970  C.3       1 <0>        -0.1540
       2  C2          3.7250   34.8860   59.3930  C.3       1 <0>         0.0802
       3  O1          5.0280   34.4820   58.9690  O.3       1 <0>        -0.3620
       4  C3          6.0730   34.9450   59.6800  C.2       1 <0>         0.6567
       5  O2          5.8900   35.4520   60.7700  O.2       1 <0>        -0.5602
       6  N1          7.3220   34.8460   59.1840  N.am      1 <0>        -0.6993
       7  C4          8.4600   35.3500   59.9580  C.3       1 <0>         0.1792
       8  C5          9.1770   36.4400   59.1600  C.3       1 <0>        -0.1017
       9  C6          8.6670   36.4340   57.7170  C.3       1 <0>        -0.1379
      10  C7          8.8970   37.8040   59.7940  C.3       1 <0>        -0.1619
      11  C8          9.4160   34.2190   60.2370  C.2       1 <0>         0.4654
      12  O3          9.0420   33.0740   60.1480  O.2       1 <0>        -0.4908
      13  O4         10.6860   34.4850   60.5830  O.3       1 <0>        -0.3286
      14  C9         10.9460   34.7200   61.9690  C.3       1 <0>         0.1262
      15  C10        11.4190   36.1630   62.1610  C.3       1 <0>        -0.1671
      16  C11        12.0140   33.7730   62.4480  C.ar      1 <0>        -0.0984
      17  C12        13.3360   34.1780   62.4760  C.ar      1 <0>        -0.1055
      18  C13        14.3170   33.3070   62.9170  C.ar      1 <0>         0.0937
      19  C14        13.9760   32.0310   63.3290  C.ar      1 <0>        -0.1195
      20  C15        12.6550   31.6250   63.3010  C.ar      1 <0>        -0.1202
      21  C16        11.6730   32.4980   62.8650  C.ar      1 <0>         0.1016
      22  F1         10.3810   32.1030   62.8420  F         1 <0>        -0.1290
      23  F2         15.6090   33.7030   62.9450  F         1 <0>        -0.1302
@<TRIPOS>BOND
     1     1     2 1
     2     2     3 1
     3     3     4 1
     4     4     5 2
     5     4     6 am
     6     6     7 1
     7     7     8 1
     8     7    11 1
     9     8     9 1
    10     8    10 1
    11    11    12 2
    12    11    13 1
    13    13    14 1
    14    14    15 1
    15    14    16 1
    16    16    21 ar
    17    16    17 ar
    18    17    18 ar
    19    18    19 ar
    20    18    23 1
    21    19    20 ar
    22    20    21 ar
    23    21    22 1

@<TRIPOS>MOLECULE
ZINC37067695_replica-1.pdb
 18 18 0 0 0
SMALL
GASTEIGER

@<TRIPOS>ATOM
       1  C1         13.0450   30.8810   63.4250  C.3       1 <0>        -0.1547
       2  C2         14.0570   32.0040   63.6610  C.3       1 <0>        -0.1256
       3  C3         13.7540   33.1710   62.7190  C.3       1 <0>        -0.1132
       4  C4         12.4020   33.7850   63.0860  C.3       1 <0>        -0.1032
       5  C5         12.6230   35.1610   63.7170  C.3       1 <0>        -0.1504
       6  C6         11.5510   33.9350   61.8240  C.3       1 <0>         0.1255
       7  N1         11.3200   35.3570   61.5570  N.pl3     1 <0>        -0.7421
       8  C7         10.3680   35.7450   60.6060  C.ar      1 <0>         0.2301
       9  C8         10.1470   34.9570   59.4830  C.ar      1 <0>        -0.1803
      10  C9          9.2080   35.3390   58.5460  C.ar      1 <0>        -0.0300
      11  C10         8.4840   36.5110   58.7250  C.ar      1 <0>        -0.1674
      12  C11         8.7060   37.3000   59.8480  C.ar      1 <0>        -0.0683
      13  C12         9.6420   36.9140   60.7870  C.ar      1 <0>        -0.1745
      14  S1          7.2870   37.0000   57.5290  S.3       1 <0>        -0.0340
      15  C13         7.8310   38.6510   57.0120  C.3       1 <0>         0.4526
      16  F1          7.4550   39.5900   57.9790  F         1 <0>        -0.1648
      17  F2          9.2230   38.6600   56.8700  F         1 <0>        -0.1467
      18  F3          7.2370   38.9770   55.7890  F         1 <0>        -0.1648
@<TRIPOS>BOND
     1     1     2 1
     2     2     3 1
     3     3     4 1
     4     4     5 1
     5     4     6 1
     6     6     7 1
     7     7     8 1
     8     8    13 ar
     9     8     9 ar
    10     9    10 ar
    11    10    11 ar
    12    11    12 ar
    13    11    14 1
    14    12    13 ar
    15    14    15 1
    16    15    16 1
    17    15    17 1
    18    15    18 1

@<TRIPOS>MOLECULE
ZINC36953717_replica-1.pdb
 19 20 0 0 0
SMALL
GASTEIGER

@<TRIPOS>ATOM
       1  C1         -0.6000   25.0050   51.7120  C.3       1 <0>        -0.1553
       2  C2         -0.2810   26.2690   52.5130  C.3       1 <0>        -0.1157
       3  C3         -1.4240   27.2740   52.3590  C.3       1 <0>        -0.0447
       4  C4         -1.5780   27.6470   50.8830  C.3       1 <0>        -0.1455
       5  C5         -1.1170   28.5120   53.1610  C.ar      1 <0>        -0.1368
       6  C6          0.0450   28.5790   53.9080  C.ar      1 <0>        -0.0639
       7  C7          0.3290   29.7120   54.6450  C.ar      1 <0>        -0.1935
       8  C8         -0.5550   30.7840   54.6350  C.ar      1 <0>         0.2162
       9  C9         -1.7200   30.7140   53.8840  C.ar      1 <0>        -0.2010
      10  C10        -1.9960   29.5790   53.1440  C.ar      1 <0>        -0.0681
      11  N1         -0.2700   31.9310   55.3800  N.pl3     1 <0>        -0.7349
      12  C11         0.4820   31.8220   56.6330  C.3       1 <0>         0.2271
      13  C12        -0.3900   31.1500   57.6950  C.3       1 <0>        -0.1639
      14  C13         0.8760   33.1980   57.1030  C.2       1 <0>         0.0613
      15  C14         0.2670   33.7870   58.1650  C.2       1 <0>        -0.2296
      16  S1          1.1400   35.3430   58.2240  S.3       1 <0>         0.1132
      17  C15         2.1660   35.0830   56.9150  C.2       1 <0>         0.0594
      18  N2          1.8300   33.8840   56.5070  N.2       1 <0>        -0.5167
      19  C16         3.2190   36.0020   56.3540  C.3       1 <0>        -0.0663
@<TRIPOS>BOND
     1     1     2 1
     2     2     3 1
     3     3     4 1
     4     3     5 1
     5     5    10 ar
     6     5     6 ar
     7     6     7 ar
     8     7     8 ar
     9     8     9 ar
    10     8    11 1
    11     9    10 ar
    12    11    12 1
    13    12    13 1
    14    12    14 1
    15    14    18 1
    16    14    15 2
    17    15    16 1
    18    16    17 1
    19    17    18 2
    20    17    19 1

@<TRIPOS>MOLECULE
ZINC05501026_replica-1.pdb
 18 18 0 0 0
SMALL
GASTEIGER

@<TRIPOS>ATOM
       1  C1         15.0710   33.8360   64.1230  C.3       1 <0>        -0.1485
       2  C2         14.4720   33.1410   62.8980  C.3       1 <0>        -0.0934
       3  C3         13.5310   32.0240   63.3550  C.3       1 <0>        -0.1521
       4  C4         13.6890   34.1590   62.0670  C.3       1 <0>        -0.1263
       5  C5         12.2820   34.3160   62.6480  C.3       1 <0>         0.1272
       6  N1         11.2910   33.9530   61.6310  N.pl3     1 <0>        -0.7568
       7  C6         10.6090   34.9540   60.9290  C.ar      1 <0>         0.1620
       8  C7         10.1480   34.7090   59.6420  C.ar      1 <0>        -0.1491
       9  C8          9.4700   35.6940   58.9520  C.ar      1 <0>        -0.1491
      10  C9          9.2570   36.9330   59.5410  C.ar      1 <0>         0.1621
      11  C10         9.7210   37.1800   60.8260  C.ar      1 <0>        -0.1469
      12  C11        10.3960   36.1930   61.5180  C.ar      1 <0>        -0.1469
      13  N2          8.5730   37.9330   58.8390  N.pl3     1 <0>        -0.7568
      14  C12         8.7900   38.0980   57.4000  C.3       1 <0>         0.1272
      15  C13         7.4600   38.4200   56.7170  C.3       1 <0>        -0.1263
      16  C14         6.9750   37.1950   55.9390  C.3       1 <0>        -0.0934
      17  C15         8.1800   36.3630   55.4960  C.3       1 <0>        -0.1485
      18  C16         6.0710   36.3460   56.8360  C.3       1 <0>        -0.1521
@<TRIPOS>BOND
     1     1     2 1
     2     2     3 1
     3     2     4 1
     4     4     5 1
     5     5     6 1
     6     6     7 1
     7     7    12 ar
     8     7     8 ar
     9     8     9 ar
    10     9    10 ar
    11    10    11 ar
    12    10    13 1
    13    11    12 ar
    14    13    14 1
    15    14    15 1
    16    15    16 1
    17    16    17 1
    18    16    18 1

@<TRIPOS>MOLECULE
ZINC37265296_replica-1.pdb
 19 19 0 0 0
SMALL
GASTEIGER

@<TRIPOS>ATOM
       1  C1         -1.5690   31.1060   56.3360  C.3       1 <0>        -0.1730
       2  C2         -1.3440   29.6050   56.5300  C.3       1 <0>         0.1386
       3  C3         -1.1880   29.3010   58.0210  C.3       1 <0>        -0.1242
       4  C4         -1.9960   28.0520   58.3760  C.3       1 <0>        -0.0976
       5  C5         -3.0520   27.8040   57.2970  C.3       1 <0>        -0.1500
       6  C6         -1.0580   26.8450   58.4580  C.3       1 <0>        -0.1510
       7  N1         -0.1300   29.1970   55.8190  N.pl3     1 <0>        -0.7237
       8  C7         -0.1920   28.1970   54.8530  C.ar      1 <0>         0.2521
       9  C8          0.4070   26.9630   55.0900  C.ar      1 <0>        -0.1766
      10  C9          0.3470   25.9730   54.1380  C.ar      1 <0>        -0.0152
      11  C10        -0.3160   26.2060   52.9280  C.ar      1 <0>        -0.0477
      12  C11        -0.9160   27.4460   52.6930  C.ar      1 <0>        -0.0847
      13  C12        -0.8570   28.4320   53.6530  C.ar      1 <0>        -0.1535
      14  C13        -1.6320   27.7030   51.3920  C.3       1 <0>         0.5027
      15  F1         -2.4570   26.6150   51.0900  F         1 <0>        -0.1720
      16  F2         -2.4090   28.8610   51.5080  F         1 <0>        -0.1708
      17  F3         -0.6930   27.8740   50.3700  F         1 <0>        -0.1709
      18  C14        -0.3810   25.1770   51.9350  C.1       1 <0>         0.2394
      19  N2         -0.4310   24.3620   51.1460  N.1       1 <0>        -0.3963
@<TRIPOS>BOND
     1     1     2 1
     2     2     3 1
     3     2     7 1
     4     3     4 1
     5     4     5 1
     6     4     6 1
     7     7     8 1
     8     8    13 ar
     9     8     9 ar
    10     9    10 ar
    11    10    11 ar
    12    11    12 ar
    13    11    18 1
    14    12    13 ar
    15    12    14 1
    16    14    15 1
    17    14    16 1
    18    14    17 1
    19    18    19 3

@<TRIPOS>MOLECULE
ZINC13683770_replica-1.pdb
 23 25 0 0 0
SMALL
GASTEIGER

@<TRIPOS>ATOM
       1  C1          5.7800   36.5140   59.1280  C.3       1 <0>        -0.1289
       2  C2          5.7540   35.3830   58.0990  C.3       1 <0>        -0.0790
       3  C3          6.9130   35.4360   57.0840  C.3       1 <0>        -0.1082
       4  C4          7.0740   34.0910   56.3630  C.3       1 <0>        -0.0830
       5  C5          5.7400   33.6430   55.8150  C.2       1 <0>        -0.0729
       6  C6          4.6520   34.3770   56.0620  C.2       1 <0>        -0.1023
       7  C7          4.8410   35.6610   56.8900  C.3       1 <0>        -0.0587
       8  C8          6.0450   36.4490   56.3180  C.3       1 <0>        -0.1307
       9  C9          3.3320   33.9810   55.5590  C.2       1 <0>         0.1289
      10  N1          2.7230   32.9520   56.0700  N.2       1 <0>        -0.2098
      11  N2          1.4630   32.5740   55.5880  N.pl3     1 <0>        -0.5596
      12  C10         0.9150   31.3800   55.9690  C.cat     1 <0>         0.5485
      13  N3          0.9750   30.3010   55.1320  N.pl3     1 <0>        -0.6954
      14  C11        -0.2220   29.4920   54.8910  C.3       1 <0>         0.1339
      15  C12         0.1570   28.0090   54.8830  C.3       1 <0>        -0.0919
      16  C13        -0.3290   27.3740   53.6060  C.ar      1 <0>        -0.0851
      17  C14        -0.0400   26.0480   53.3400  C.ar      1 <0>        -0.1116
      18  C15        -0.4850   25.4660   52.1690  C.ar      1 <0>        -0.1175
      19  C16        -1.2200   26.2080   51.2630  C.ar      1 <0>        -0.1181
      20  C17        -1.5100   27.5330   51.5300  C.ar      1 <0>        -0.1175
      21  C18        -1.0680   28.1150   52.7020  C.ar      1 <0>        -0.1116
      22  S1          0.1780   31.2400   57.4500  S.3       1 <0>        -0.5245
      23  C19         5.5420   34.0040   58.7300  C.3       1 <0>        -0.1461
@<TRIPOS>BOND
     1     1     2 1
     2     2     7 1
     3     2     3 1
     4     2    23 1
     5     3     8 1
     6     3     4 1
     7     4     5 1
     8     5     6 2
     9     6     7 1
    10     6     9 1
    11     7     8 1
    12     9    10 2
    13    10    11 1
    14    11    12 2
    15    12    13 1
    16    12    22 1
    17    13    14 1
    18    14    15 1
    19    15    16 1
    20    16    21 ar
    21    16    17 ar
    22    17    18 ar
    23    18    19 ar
    24    19    20 ar
    25    20    21 ar

@<TRIPOS>MOLECULE
ZINC59404793_replica-1.pdb
 22 25 0 0 0
SMALL
GASTEIGER

@<TRIPOS>ATOM
       1  C1         14.3090   32.2050   63.8290  C.ar      1 <0>        -0.1116
       2  C2         13.4110   31.1520   63.9470  C.ar      1 <0>        -0.0915
       3  C3         12.1690   31.2530   63.3510  C.ar      1 <0>        -0.0689
       4  C4         11.8440   32.3910   62.6540  C.ar      1 <0>        -0.1415
       5  C5         12.7370   33.4800   62.5160  C.ar      1 <0>         0.0791
       6  C6         13.9990   33.3350   63.1420  C.ar      1 <0>        -0.0599
       7  N1         12.2810   34.5230   61.8060  N.2       1 <0>        -0.4981
       8  C7         11.0770   34.5420   61.2670  C.2       1 <0>         0.1922
       9  S1         10.4190   32.9520   61.7520  S.3       1 <0>        -0.0079
      10  C8         10.4410   35.5970   60.4730  C.2       1 <0>        -0.0821
      11  C9          9.6830   35.2740   59.4060  C.2       1 <0>        -0.0437
      12  C10         9.0450   36.3330   58.6100  C.ar      1 <0>        -0.0664
      13  C11         8.9820   37.6450   59.0980  C.ar      1 <0>        -0.0959
      14  C12         8.3840   38.6330   58.3470  C.ar      1 <0>        -0.1091
      15  C13         7.8400   38.3390   57.1060  C.ar      1 <0>        -0.1044
      16  C14         7.8950   37.0460   56.6120  C.ar      1 <0>         0.0657
      17  C15         8.4990   36.0430   57.3550  C.ar      1 <0>         0.0881
      18  O1          8.5550   34.7760   56.8560  O.3       1 <0>        -0.3153
      19  C16         7.3050   34.0900   56.7480  C.3       1 <0>         0.0584
      20  C17         6.6030   34.4510   55.4490  C.3       1 <0>        -0.1896
      21  C18         6.2110   35.9190   55.3910  C.3       1 <0>         0.0603
      22  O2          7.3620   36.7530   55.3910  O.3       1 <0>        -0.3172
@<TRIPOS>BOND
     1     1     6 ar
     2     1     2 ar
     3     2     3 ar
     4     3     4 ar
     5     4     9 1
     6     4     5 ar
     7     5     6 ar
     8     5     7 1
     9     7     8 2
    10     8     9 1
    11     8    10 1
    12    10    11 2
    13    11    12 1
    14    12    17 ar
    15    12    13 ar
    16    13    14 ar
    17    14    15 ar
    18    15    16 ar
    19    16    22 1
    20    16    17 ar
    21    17    18 1
    22    18    19 1
    23    19    20 1
    24    20    21 1
    25    21    22 1

@<TRIPOS>MOLECULE
ZINC43373790_replica-1.pdb
 20 21 0 0 0
SMALL
GASTEIGER

@<TRIPOS>ATOM
       1  C1         -0.5030   24.6560   51.3320  C.3       1 <0>        -0.1085
       2  C2         -0.6650   25.9750   52.0420  C.ar      1 <0>        -0.1420
       3  C3         -1.3830   26.9950   51.4460  C.ar      1 <0>        -0.0729
       4  C4         -1.5330   28.2060   52.0930  C.ar      1 <0>        -0.1876
       5  C5         -0.9630   28.3980   53.3460  C.ar      1 <0>         0.2085
       6  C6         -0.2420   27.3700   53.9420  C.ar      1 <0>        -0.1919
       7  C7         -0.1000   26.1600   53.2910  C.ar      1 <0>        -0.0730
       8  N1         -1.1120   29.6210   54.0030  N.pl3     1 <0>        -0.7489
       9  C8         -2.2390   30.4970   53.6720  C.3       1 <0>         0.1325
      10  C9         -3.0940   30.7220   54.9200  C.3       1 <0>        -0.0485
      11  C10        -2.4870   29.9830   56.0850  C.2       1 <0>         0.2944
      12  N2         -2.8790   28.8290   56.5470  N.2       1 <0>        -0.5344
      13  C11        -2.1190   28.4680   57.5860  C.2       1 <0>         0.2565
      14  N3         -1.2280   29.3940   57.7990  N.2       1 <0>        -0.3357
      15  O1         -1.4470   30.3980   56.8200  O.3       1 <0>        -0.1038
      16  C12        -2.2690   27.1970   58.3820  C.3       1 <0>        -0.0404
      17  C13        -0.9160   26.8100   58.9850  C.3       1 <0>        -0.1094
      18  C14        -0.5300   25.4080   58.5130  C.3       1 <0>        -0.0948
      19  C15        -1.7550   24.4940   58.5720  C.3       1 <0>        -0.1527
      20  C16        -0.0150   25.4780   57.0740  C.3       1 <0>        -0.1490
@<TRIPOS>BOND
     1     1     2 1
     2     2     7 ar
     3     2     3 ar
     4     3     4 ar
     5     4     5 ar
     6     5     6 ar
     7     5     8 1
     8     6     7 ar
     9     8     9 1
    10     9    10 1
    11    10    11 1
    12    11    15 1
    13    11    12 2
    14    12    13 1
    15    13    14 2
    16    13    16 1
    17    14    15 1
    18    16    17 1
    19    17    18 1
    20    18    19 1
    21    18    20 1

@<TRIPOS>MOLECULE
ZINC37507793_replica-1.pdb
 19 20 0 0 0
SMALL
GASTEIGER

@<TRIPOS>ATOM
       1  C1         11.6690   36.4740   62.8200  C.3       1 <0>        -0.1797
       2  C2         11.1800   35.2360   62.0660  C.3       1 <0>         0.0829
       3  C3         10.3980   35.6630   60.8500  C.ar      1 <0>        -0.1543
       4  C4          9.8260   36.9210   60.8050  C.ar      1 <0>        -0.1186
       5  C5          9.1080   37.3130   59.6910  C.ar      1 <0>        -0.1023
       6  C6          8.9640   36.4490   58.6220  C.ar      1 <0>        -0.0347
       7  C7          9.5380   35.1920   58.6670  C.ar      1 <0>        -0.1096
       8  C8         10.2580   34.8010   59.7800  C.ar      1 <0>        -0.0830
       9  C9          8.1820   36.8770   57.4070  C.3       1 <0>        -0.0380
      10  C10         8.5520   38.3150   57.0410  C.3       1 <0>        -0.1419
      11  C11         8.5130   35.9510   56.2350  C.3       1 <0>        -0.1505
      12  C12         6.6840   36.7970   57.7120  C.3       1 <0>        -0.1426
      13  N1         12.3350   34.4290   61.6470  N.4       1 <0>        -0.5100
      14  C13        13.0040   33.8800   62.8330  C.3       1 <0>        -0.0046
      15  C14        13.0810   32.3560   62.7140  C.3       1 <0>        -0.1555
      16  C15        11.7310   31.7120   63.1170  C.3       1 <0>        -0.1446
      17  C16        12.1910   30.4730   63.9260  C.3       1 <0>         0.0430
      18  O1         13.3520   30.9500   64.6390  O.3       1 <0>        -0.3638
      19  C17        14.0910   31.7860   63.7290  C.3       1 <0>         0.0376
@<TRIPOS>BOND
     1     1     2 1
     2     2     3 1
     3     2    13 1
     4     3     8 ar
     5     3     4 ar
     6     4     5 ar
     7     5     6 ar
     8     6     7 ar
     9     6     9 1
    10     7     8 ar
    11     9    10 1
    12     9    11 1
    13     9    12 1
    14    13    14 1
    15    14    15 1
    16    15    19 1
    17    15    16 1
    18    16    17 1
    19    17    18 1
    20    18    19 1

@<TRIPOS>MOLECULE
ZINC37014002_replica-1.pdb
 19 20 0 0 0
SMALL
GASTEIGER

@<TRIPOS>ATOM
       1  C1         12.2360   29.3550   64.4540  C.3       1 <0>        -0.1548
       2  C2         11.8090   30.6960   63.8530  C.3       1 <0>        -0.1249
       3  C3         13.0190   31.3770   63.2110  C.3       1 <0>        -0.1139
       4  C4         12.8070   32.8910   63.1980  C.3       1 <0>        -0.1021
       5  C5         14.0380   33.5730   62.5970  C.3       1 <0>        -0.1499
       6  C6         11.5760   33.2270   62.3550  C.3       1 <0>         0.1239
       7  N1         11.9390   34.2120   61.3330  N.pl3     1 <0>        -0.7420
       8  C7         10.9680   35.0750   60.8180  C.ar      1 <0>         0.2169
       9  C8         10.2860   34.7390   59.6570  C.ar      1 <0>        -0.1423
      10  C9          9.3180   35.6030   59.1480  C.ar      1 <0>         0.0109
      11  C10         9.0410   36.8010   59.8090  C.ar      1 <0>        -0.1368
      12  C11         9.7250   37.1270   60.9620  C.ar      1 <0>        -0.0744
      13  C12        10.6810   36.2680   61.4700  C.ar      1 <0>        -0.1353
      14  C13        11.4190   36.6280   62.7340  C.3       1 <0>        -0.1109
      15  C14         8.5880   35.2520   57.9120  C.2       1 <0>         0.2166
      16  N2          8.3780   34.0420   57.4480  N.2       1 <0>        -0.2783
      17  N3          7.7070   34.1180   56.3530  N.2       1 <0>        -0.2885
      18  C15         7.4640   35.3690   56.0760  C.2       1 <0>         0.1446
      19  O1          8.0080   36.1150   57.0530  O.3       1 <0>        -0.2224
@<TRIPOS>BOND
     1     1     2 1
     2     2     3 1
     3     3     4 1
     4     4     5 1
     5     4     6 1
     6     6     7 1
     7     7     8 1
     8     8    13 ar
     9     8     9 ar
    10     9    10 ar
    11    10    11 ar
    12    10    15 1
    13    11    12 ar
    14    12    13 ar
    15    13    14 1
    16    15    19 1
    17    15    16 2
    18    16    17 1
    19    17    18 2
    20    18    19 1

@<TRIPOS>MOLECULE
ZINC64638114_replica-1.pdb
 21 22 0 0 0
SMALL
GASTEIGER

@<TRIPOS>ATOM
       1  C1         -0.4360   29.5160   59.0610  C.3       1 <0>        -0.1533
       2  C2         -0.4520   28.9700   57.6320  C.3       1 <0>        -0.0863
       3  C3          0.4290   27.7200   57.5540  C.3       1 <0>        -0.1417
       4  C4         -1.8870   28.6070   57.2410  C.3       1 <0>        -0.1464
       5  C5          0.0840   30.0330   56.6730  C.3       1 <0>         0.1784
       6  C6          0.5770   31.2190   57.4620  C.2       1 <0>        -0.1121
       7  C7         -0.0420   32.4000   57.7050  C.2       1 <0>        -0.1677
       8  C8          0.6090   33.3540   58.4640  C.2       1 <0>        -0.1551
       9  C9          1.8480   33.0810   58.9430  C.2       1 <0>        -0.1925
      10  S1          2.1270   31.4300   58.3230  S.3       1 <0>         0.0676
      11  N1         -0.9890   30.4610   55.7660  N.3       1 <0>        -0.6770
      12  C10        -0.5250   30.4770   54.3730  C.3       1 <0>         0.0309
      13  C11        -1.6360   29.9560   53.4590  C.3       1 <0>         0.1514
      14  C12        -1.2780   28.5780   52.9670  C.ar      1 <0>        -0.0885
      15  C13        -1.7130   28.1520   51.7250  C.ar      1 <0>        -0.1235
      16  C14        -1.3860   26.8880   51.2720  C.ar      1 <0>        -0.0851
      17  C15        -0.6220   26.0480   52.0610  C.ar      1 <0>        -0.1529
      18  C16        -0.1860   26.4730   53.3040  C.ar      1 <0>         0.1033
      19  C17        -0.5100   27.7410   53.7540  C.ar      1 <0>        -0.1429
      20  F1          0.5590   25.6510   54.0760  F         1 <0>        -0.1369
      21  O1         -2.8640   29.8970   54.1890  O.3       1 <0>        -0.5467
@<TRIPOS>BOND
     1     1     2 1
     2     2     3 1
     3     2     4 1
     4     2     5 1
     5     5     6 1
     6     5    11 1
     7     6    10 1
     8     6     7 2
     9     7     8 1
    10     8     9 2
    11     9    10 1
    12    11    12 1
    13    12    13 1
    14    13    14 1
    15    13    21 1
    16    14    19 ar
    17    14    15 ar
    18    15    16 ar
    19    16    17 ar
    20    17    18 ar
    21    18    19 ar
    22    18    20 1

@<TRIPOS>MOLECULE
ZINC50864848_replica-1.pdb
 21 22 0 0 0
SMALL
GASTEIGER

@<TRIPOS>ATOM
       1  C1          4.2600   35.0010   55.3300  C.3       1 <0>        -0.1481
       2  C2          4.7210   36.3880   55.7850  C.3       1 <0>        -0.0669
       3  C3          5.8220   36.2430   56.8020  C.ar      1 <0>        -0.2622
       4  C4          7.1490   36.2880   56.4190  C.ar      1 <0>         0.2032
       5  N1          8.0940   36.1570   57.3370  N.ar      1 <0>        -0.5221
       6  C5          7.7830   35.9850   58.6150  C.ar      1 <0>         0.4045
       7  N2          6.5220   35.9370   59.0240  N.ar      1 <0>        -0.5736
       8  C6          5.5250   36.0660   58.1560  C.ar      1 <0>         0.4448
       9  N3          4.2090   36.0230   58.5870  N.pl3     1 <0>        -0.7140
      10  C7          3.6810   34.8050   59.2080  C.3       1 <0>         0.1250
      11  C8          2.1570   34.7840   59.0770  C.3       1 <0>        -0.1675
      12  C9          8.8720   35.8420   59.6110  C.ar      1 <0>        -0.0852
      13  C10         9.2640   36.9360   60.3820  C.ar      1 <0>        -0.0310
      14  C11        10.2780   36.7980   61.3070  C.ar      1 <0>        -0.1728
      15  C12        10.9080   35.5770   61.4730  C.ar      1 <0>        -0.0570
      16  C13        10.5280   34.4870   60.7150  C.ar      1 <0>        -0.2256
      17  C14         9.5070   34.6090   59.7850  C.ar      1 <0>         0.1782
      18  O1          9.1280   33.5360   59.0430  O.3       1 <0>        -0.2691
      19  C15         8.5260   32.4450   59.7420  C.3       1 <0>         0.0464
      20  C16         8.3590   31.2600   58.7880  C.3       1 <0>        -0.1471
      21  C17         7.5170   36.4810   54.9710  C.3       1 <0>        -0.1052
@<TRIPOS>BOND
     1     1     2 1
     2     2     3 1
     3     3     8 ar
     4     3     4 ar
     5     4     5 ar
     6     4    21 1
     7     5     6 ar
     8     6     7 ar
     9     6    12 1
    10     7     8 ar
    11     8     9 1
    12     9    10 1
    13    10    11 1
    14    12    17 ar
    15    12    13 ar
    16    13    14 ar
    17    14    15 ar
    18    15    16 ar
    19    16    17 ar
    20    17    18 1
    21    18    19 1
    22    19    20 1

@<TRIPOS>MOLECULE
ZINC03229393_replica-1.pdb
 26 28 0 0 0
SMALL
GASTEIGER

@<TRIPOS>ATOM
       1  C1         -0.8660   24.8140   51.3680  C.ar      1 <0>        -0.1017
       2  C2         -1.4240   26.0040   50.9040  C.ar      1 <0>        -0.0988
       3  C3         -1.3460   27.1480   51.6360  C.ar      1 <0>        -0.0866
       4  C4         -0.6830   27.1390   52.8780  C.ar      1 <0>         0.1243
       5  C5         -0.1110   25.9270   53.3450  C.ar      1 <0>        -0.0824
       6  C6         -0.2150   24.7640   52.5640  C.ar      1 <0>        -0.1008
       7  C7          0.5530   25.9160   54.5860  C.ar      1 <0>        -0.0543
       8  C8          0.6180   27.0800   55.2940  C.ar      1 <0>        -0.1223
       9  C9          0.0310   28.2450   54.7780  C.ar      1 <0>         0.1166
      10  N1         -0.5880   28.2460   53.6130  N.ar      1 <0>        -0.4453
      11  C10         0.1100   29.5020   55.5570  C.2       1 <0>         0.5926
      12  O1         -0.3150   29.5400   56.6960  O.2       1 <0>        -0.4779
      13  N2          0.6500   30.6060   55.0040  N.am      1 <0>        -0.5610
      14  N3          0.7240   31.7950   55.7410  N.2       1 <0>        -0.1928
      15  C11         1.8340   32.1260   56.3290  C.2       1 <0>         0.0935
      16  C12         1.9110   33.3770   57.1040  C.ar      1 <0>        -0.0732
      17  C13         2.5390   34.5030   56.5610  C.ar      1 <0>         0.1555
      18  C14         2.6030   35.6760   57.2910  C.ar      1 <0>         0.0543
      19  C15         2.0560   35.7340   58.5640  C.ar      1 <0>         0.1095
      20  C16         1.4370   34.6190   59.1120  C.ar      1 <0>         0.0558
      21  C17         1.3620   33.4430   58.3890  C.ar      1 <0>         0.1485
      22  F1          0.7590   32.3580   58.9240  F         1 <0>        -0.0951
      23  F2          0.9080   34.6840   60.3520  F         1 <0>        -0.0970
      24  F3          2.1270   36.8800   59.2750  F         1 <0>        -0.0920
      25  F4          3.2040   36.7660   56.7650  F         1 <0>        -0.0963
      26  F5          3.0770   34.4470   55.3230  F         1 <0>        -0.0736
@<TRIPOS>BOND
     1     1     6 ar
     2     1     2 ar
     3     2     3 ar
     4     3     4 ar
     5     4    10 ar
     6     4     5 ar
     7     5     6 ar
     8     5     7 ar
     9     7     8 ar
    10     8     9 ar
    11     9    10 ar
    12     9    11 1
    13    11    12 2
    14    11    13 am
    15    13    14 1
    16    14    15 2
    17    15    16 1
    18    16    21 ar
    19    16    17 ar
    20    17    18 ar
    21    17    26 1
    22    18    19 ar
    23    18    25 1
    24    19    20 ar
    25    19    24 1
    26    20    21 ar
    27    20    23 1
    28    21    22 1

@<TRIPOS>MOLECULE
ZINC55004247_replica-1.pdb
 19 20 0 0 0
SMALL
GASTEIGER

@<TRIPOS>ATOM
       1  C1          1.3790   35.4400   58.9150  C.3       1 <0>        -0.1506
       2  C2          2.7650   36.0330   58.6560  C.3       1 <0>        -0.1157
       3  C3          3.7930   34.9040   58.5570  C.3       1 <0>        -0.0462
       4  C4          4.9190   35.3280   57.6490  C.2       1 <0>         0.1354
       5  C5          4.8890   35.0750   56.3180  C.2       1 <0>        -0.2524
       6  S1          6.4420   35.7930   55.8080  S.3       1 <0>         0.1000
       7  C6          6.9580   36.3290   57.3170  C.2       1 <0>         0.3234
       8  N1          5.9770   35.9670   58.1160  N.2       1 <0>        -0.5790
       9  N2          8.1300   36.9970   57.6400  N.pl3     1 <0>        -0.5268
      10  C7          8.5640   38.1450   56.8420  C.3       1 <0>         0.1041
      11  C8          8.8990   36.5720   58.7290  C.ar      1 <0>         0.0908
      12  C9          9.5580   35.3510   58.6820  C.ar      1 <0>        -0.0777
      13  C10        10.3170   34.9350   59.7590  C.ar      1 <0>        -0.1211
      14  C11        10.4200   35.7310   60.8840  C.ar      1 <0>        -0.0753
      15  C12         9.7650   36.9470   60.9360  C.ar      1 <0>        -0.1485
      16  C13         9.0090   37.3740   59.8610  C.ar      1 <0>         0.1114
      17  F1          8.3720   38.5640   59.9090  F         1 <0>        -0.1282
      18  C14         3.8350   34.3800   55.4960  C.3       1 <0>         0.1778
      19  O1          2.7630   35.2860   55.2310  O.3       1 <0>        -0.5667
@<TRIPOS>BOND
     1     1     2 1
     2     2     3 1
     3     3     4 1
     4     4     8 1
     5     4     5 2
     6     5     6 1
     7     5    18 1
     8     6     7 1
     9     7     8 2
    10     7     9 1
    11     9    10 1
    12     9    11 1
    13    11    16 ar
    14    11    12 ar
    15    12    13 ar
    16    13    14 ar
    17    14    15 ar
    18    15    16 ar
    19    16    17 1
    20    18    19 1

@<TRIPOS>MOLECULE
ZINC54745558_replica-1.pdb
 25 26 0 0 0
SMALL
GASTEIGER

@<TRIPOS>ATOM
       1  C1          3.8360   33.2480   56.5660  C.3       1 <0>        -0.0736
       2  C2          5.2910   32.8670   56.6690  C.2       1 <0>         0.1093
       3  C3          6.2480   33.5420   55.9890  C.2       1 <0>        -0.2692
       4  S1          7.7100   32.6530   56.5020  S.3       1 <0>         0.0054
       5  C4          6.9610   31.5350   57.5110  C.2       1 <0>         0.2779
       6  S2          7.7010   30.2410   58.4510  S.3       1 <0>        -0.7524
       7  N1          5.6890   31.8640   57.4310  N.2       1 <0>        -0.5747
       8  C5          6.1170   34.7180   55.0570  C.3       1 <0>        -0.0244
       9  C6          6.9740   35.8530   55.5550  C.2       1 <0>         0.5096
      10  O1          7.6240   36.5120   54.7690  O.2       1 <0>        -0.5159
      11  N2          7.0210   36.1350   56.8710  N.am      1 <0>        -0.7361
      12  C7          7.8550   37.2390   57.3550  C.3       1 <0>         0.1592
      13  C8          8.7080   36.7580   58.5010  C.ar      1 <0>        -0.0912
      14  C9          8.8980   37.5630   59.6070  C.ar      1 <0>        -0.1029
      15  C10         9.6810   37.1230   60.6580  C.ar      1 <0>        -0.0958
      16  C11        10.2740   35.8750   60.6020  C.ar      1 <0>        -0.0943
      17  C12        10.0840   35.0690   59.4960  C.ar      1 <0>        -0.0961
      18  C13         9.2970   35.5080   58.4460  C.ar      1 <0>        -0.1031
      19  C14        11.1280   35.3950   61.7470  C.3       1 <0>         0.1063
      20  O2         11.5950   34.0730   61.4700  O.3       1 <0>        -0.3659
      21  C15        12.0020   33.3460   62.6320  C.3       1 <0>         0.0170
      22  C16        13.5210   33.4450   62.7890  C.3       1 <0>         0.4614
      23  F1         14.0740   34.0030   61.6310  F         1 <0>        -0.1747
      24  F2         13.8240   34.2560   63.8880  F         1 <0>        -0.1774
      25  F3         14.0530   32.1670   62.9900  F         1 <0>        -0.1746
@<TRIPOS>BOND
     1     1     2 1
     2     2     7 1
     3     2     3 2
     4     3     4 1
     5     3     8 1
     6     4     5 1
     7     5     6 1
     8     5     7 2
     9     8     9 1
    10     9    10 2
    11     9    11 am
    12    11    12 1
    13    12    13 1
    14    13    18 ar
    15    13    14 ar
    16    14    15 ar
    17    15    16 ar
    18    16    17 ar
    19    16    19 1
    20    17    18 ar
    21    19    20 1
    22    20    21 1
    23    21    22 1
    24    22    23 1
    25    22    24 1
    26    22    25 1

@<TRIPOS>MOLECULE
ZINC37780085_replica-1.pdb
 20 21 0 0 0
SMALL
GASTEIGER

@<TRIPOS>ATOM
       1  C1         11.6350   36.3070   62.7140  C.3       1 <0>        -0.1463
       2  C2         10.8550   36.0730   61.4190  C.3       1 <0>        -0.0939
       3  C3         10.6960   34.5690   61.1840  C.3       1 <0>        -0.1471
       4  C4          9.4740   36.7200   61.5310  C.3       1 <0>         0.0686
       5  O1          8.5990   36.1470   60.5580  O.3       1 <0>        -0.3177
       6  C5          8.5410   36.7580   59.3440  C.ar      1 <0>         0.0553
       7  C6          8.5740   38.1400   59.2590  C.ar      1 <0>        -0.1630
       8  C7          8.5150   38.7590   58.0240  C.ar      1 <0>        -0.1444
       9  C8          8.4220   38.0020   56.8710  C.ar      1 <0>        -0.1056
      10  C9          8.3900   36.6230   56.9460  C.ar      1 <0>        -0.1727
      11  C10         8.4540   35.9940   58.1820  C.ar      1 <0>         0.2026
      12  N1          8.4260   34.5970   58.2610  N.pl3     1 <0>        -0.7251
      13  C11         7.1430   33.8920   58.3120  C.3       1 <0>         0.1602
      14  C12         6.9680   33.2510   59.6920  C.3       1 <0>        -0.1352
      15  C13         8.1060   32.2600   59.9410  C.3       1 <0>        -0.1185
      16  C14         8.0790   31.1710   58.8670  C.3       1 <0>        -0.1178
      17  C15         8.2530   31.8110   57.4880  C.3       1 <0>        -0.1413
      18  C16         7.1140   32.8030   57.2380  C.3       1 <0>         0.0821
      19  O2          7.2780   33.4000   55.9500  O.3       1 <0>        -0.3764
      20  C17         6.1040   34.0480   55.4570  C.3       1 <0>         0.0293
@<TRIPOS>BOND
     1     1     2 1
     2     2     3 1
     3     2     4 1
     4     4     5 1
     5     5     6 1
     6     6    11 ar
     7     6     7 ar
     8     7     8 ar
     9     8     9 ar
    10     9    10 ar
    11    10    11 ar
    12    11    12 1
    13    12    13 1
    14    13    18 1
    15    13    14 1
    16    14    15 1
    17    15    16 1
    18    16    17 1
    19    17    18 1
    20    18    19 1
    21    19    20 1

@<TRIPOS>MOLECULE
ZINC13309990_replica-1.pdb
 23 24 0 0 0
SMALL
GASTEIGER

@<TRIPOS>ATOM
       1  C1         12.7480   31.5270   62.9610  C.3       1 <0>        -0.1442
       2  C2         13.1660   32.9360   63.3840  C.3       1 <0>        -0.0573
       3  C3         14.6200   33.1810   62.9730  C.3       1 <0>        -0.1455
       4  C4         12.2770   33.9480   62.7090  C.ar      1 <0>        -0.0792
       5  C5         12.3870   35.2890   63.0300  C.ar      1 <0>        -0.1171
       6  C6         11.5710   36.2170   62.4100  C.ar      1 <0>        -0.1104
       7  C7         10.6460   35.8050   61.4690  C.ar      1 <0>        -0.0868
       8  C8         10.5330   34.4650   61.1510  C.ar      1 <0>        -0.1095
       9  C9         11.3510   33.5360   61.7680  C.ar      1 <0>        -0.1127
      10  C10         9.7580   36.8170   60.7930  C.3       1 <0>        -0.0856
      11  C11         8.5250   37.0750   61.6620  C.3       1 <0>         0.1191
      12  N1          7.4500   37.6270   60.8340  N.pl3     1 <0>        -1.1166
      13  S1          6.2720   36.6310   60.2340  S.o2      1 <0>         2.7367
      14  O1          6.1790   35.5290   61.1270  O.2       1 <0>        -0.9541
      15  O2          5.1590   37.4590   59.9270  O.2       1 <0>        -0.9546
      16  C12         6.8610   35.9910   58.7030  C.2       1 <0>        -0.8003
      17  C13         6.9730   34.7030   58.3210  C.2       1 <0>         0.0502
      18  C14         7.4890   34.4540   56.9980  C.2       1 <0>        -0.1943
      19  C15         7.8320   35.5550   56.2410  C.2       1 <0>        -0.1124
      20  S2          7.4630   36.8860   57.2860  S.3       1 <0>         0.1572
      21  C16         7.6460   33.0860   56.4800  C.2       1 <0>         0.5051
      22  O3          8.4130   32.3150   57.0230  O.co2     1 <0>        -0.6273
      23  O4          6.9400   32.6880   55.4020  O.co2     1 <0>        -0.7516
@<TRIPOS>BOND
     1     1     2 1
     2     2     3 1
     3     2     4 1
     4     4     9 ar
     5     4     5 ar
     6     5     6 ar
     7     6     7 ar
     8     7     8 ar
     9     7    10 1
    10     8     9 ar
    11    10    11 1
    12    11    12 1
    13    12    13 1
    14    13    14 2
    15    13    15 2
    16    13    16 1
    17    16    20 1
    18    16    17 2
    19    17    18 1
    20    18    19 2
    21    18    21 1
    22    19    20 1
    23    21    22 2
    24    21    23 1

@<TRIPOS>MOLECULE
ZINC36953282_replica-1.pdb
 19 20 0 0 0
SMALL
GASTEIGER

@<TRIPOS>ATOM
       1  C1         13.3710   31.4880   63.4140  C.3       1 <0>        -0.1555
       2  C2         12.2610   32.4560   63.0010  C.3       1 <0>        -0.1157
       3  C3         12.8090   33.8850   62.9870  C.3       1 <0>        -0.0456
       4  C4         14.1850   33.8970   62.3190  C.3       1 <0>        -0.1454
       5  C5         11.8690   34.7760   62.2170  C.ar      1 <0>        -0.1309
       6  C6         11.2710   34.3120   61.0590  C.ar      1 <0>        -0.0669
       7  C7         10.4090   35.1250   60.3500  C.ar      1 <0>        -0.1916
       8  C8         10.1430   36.4120   60.8010  C.ar      1 <0>         0.2129
       9  C9         10.7460   36.8750   61.9640  C.ar      1 <0>        -0.1947
      10  C10        11.6020   36.0550   62.6710  C.ar      1 <0>        -0.0734
      11  N1          9.2730   37.2370   60.0860  N.pl3     1 <0>        -0.7427
      12  C11         8.0120   36.6990   59.5700  C.3       1 <0>         0.2406
      13  C12         6.8620   37.1240   60.4880  C.3       1 <0>        -0.1349
      14  C13         5.8770   35.9630   60.6410  C.3       1 <0>        -0.1585
      15  C14         7.7680   37.2320   58.1820  C.2       1 <0>        -0.1550
      16  C15         8.2050   38.3860   57.6210  C.2       1 <0>        -0.1461
      17  C16         7.8520   38.6720   56.3160  C.2       1 <0>        -0.1564
      18  C17         7.0790   37.7910   55.6350  C.2       1 <0>        -0.1686
      19  S1          6.8310   36.5040   56.8480  S.3       1 <0>         0.0407
@<TRIPOS>BOND
     1     1     2 1
     2     2     3 1
     3     3     4 1
     4     3     5 1
     5     5    10 ar
     6     5     6 ar
     7     6     7 ar
     8     7     8 ar
     9     8     9 ar
    10     8    11 1
    11     9    10 ar
    12    11    12 1
    13    12    13 1
    14    12    15 1
    15    13    14 1
    16    15    19 1
    17    15    16 2
    18    16    17 1
    19    17    18 2
    20    18    19 1

@<TRIPOS>MOLECULE
ZINC37057549_replica-1.pdb
 21 22 0 0 0
SMALL
GASTEIGER

@<TRIPOS>ATOM
       1  C1         10.7760   36.6400   62.0790  C.3       1 <0>        -0.1529
       2  C2         10.0780   36.3820   60.7420  C.3       1 <0>        -0.1196
       3  C3         10.4520   34.9880   60.2320  C.3       1 <0>        -0.0896
       4  C4         11.3020   34.2720   61.2830  C.3       1 <0>        -0.1493
       5  C5          9.1780   34.1820   59.9710  C.3       1 <0>        -0.1231
       6  C6          8.0410   35.1340   59.5970  C.3       1 <0>         0.1491
       7  C7          6.7570   34.6980   60.3070  C.3       1 <0>        -0.1393
       8  C8          5.9320   35.9330   60.6750  C.3       1 <0>        -0.1569
       9  N1          7.8310   35.1000   58.1470  N.pl3     1 <0>        -0.7306
      10  C9          7.7110   36.2960   57.4290  C.ar      1 <0>         0.2175
      11  C10         8.5920   37.3400   57.6640  C.ar      1 <0>        -0.1957
      12  C11         8.4720   38.5190   56.9530  C.ar      1 <0>        -0.0780
      13  C12         7.4730   38.6630   56.0090  C.ar      1 <0>        -0.1747
      14  C13         6.5880   37.6280   55.7690  C.ar      1 <0>        -0.0809
      15  C14         6.7060   36.4380   56.4730  C.ar      1 <0>         0.0875
      16  N2          5.8150   35.3860   56.2270  N.pl3     1 <0>        -0.6701
      17  C15         4.5580   35.2660   56.9820  C.3       1 <0>         0.1116
      18  C16         3.4090   35.0860   55.9850  C.3       1 <0>         0.0456
      19  O1          3.7210   34.0100   55.0970  O.3       1 <0>        -0.3816
      20  C17         4.8840   34.2310   54.2940  C.3       1 <0>         0.0455
      21  C18         6.1060   34.3720   55.2030  C.3       1 <0>         0.1120
@<TRIPOS>BOND
     1     1     2 1
     2     2     3 1
     3     3     4 1
     4     3     5 1
     5     5     6 1
     6     6     7 1
     7     6     9 1
     8     7     8 1
     9     9    10 1
    10    10    15 ar
    11    10    11 ar
    12    11    12 ar
    13    12    13 ar
    14    13    14 ar
    15    14    15 ar
    16    15    16 1
    17    16    21 1
    18    16    17 1
    19    17    18 1
    20    18    19 1
    21    19    20 1
    22    20    21 1

@<TRIPOS>MOLECULE
ZINC63659030_replica-1.pdb
 28 31 0 0 0
SMALL
GASTEIGER

@<TRIPOS>ATOM
       1  C1         -0.4540   27.3950   56.7360  C.3       1 <0>        -0.1561
       2  C2          0.2700   27.7160   55.4270  C.3       1 <0>         0.0980
       3  C3         -0.5500   28.6840   54.6020  C.2       1 <0>         0.0868
       4  C4         -0.8330   28.0440   53.4450  C.ar      1 <0>        -0.1760
       5  C5         -1.5850   28.4400   52.2490  C.ar      1 <0>        -0.0206
       6  C6         -1.6990   27.5630   51.2250  C.ar      1 <0>        -0.1534
       7  C7         -1.1200   26.2880   51.2800  C.ar      1 <0>         0.0566
       8  C8         -0.4140   25.8530   52.3440  C.ar      1 <0>        -0.2114
       9  C9         -0.2300   26.6920   53.4770  C.ar      1 <0>         0.3346
      10  N1          0.4030   26.5040   54.6110  N.pl3     1 <0>        -0.5881
      11  C10        -0.9670   30.0790   54.9930  C.3       1 <0>        -0.1106
      12  C11         0.2540   31.0000   54.9710  C.3       1 <0>         0.1021
      13  N2          0.4310   31.6060   56.2930  N.pl3     1 <0>        -0.5758
      14  C12        -0.3160   31.0900   57.4420  C.3       1 <0>         0.1772
      15  C13         0.6420   30.7680   58.5610  C.2       1 <0>        -0.0642
      16  C14         1.5000   29.7330   58.5880  C.2       1 <0>        -0.1737
      17  C15         2.1990   29.8120   59.8150  C.2       1 <0>        -0.2110
      18  C16         1.7260   30.8910   60.4640  C.2       1 <0>        -0.0175
      19  O1          0.7870   31.4700   59.6970  O.3       1 <0>        -0.1719
      20  C17         1.2810   32.6400   56.4520  C.2       1 <0>         0.5635
      21  S1          0.7270   34.1060   57.1390  S.2       1 <0>        -0.6253
      22  N3          2.5680   32.5210   56.0680  N.pl3     1 <0>        -0.6700
      23  C18         3.4920   33.6450   56.2400  C.3       1 <0>         0.1405
      24  C19         4.0240   34.0800   54.8730  C.3       1 <0>        -0.1254
      25  C20         4.9880   35.2550   55.0530  C.3       1 <0>        -0.1151
      26  C21         6.1560   34.8240   55.9420  C.3       1 <0>        -0.1255
      27  C22         5.6240   34.3880   57.3080  C.3       1 <0>        -0.1146
      28  C23         4.6600   33.2140   57.1280  C.3       1 <0>        -0.1284
@<TRIPOS>BOND
     1     1     2 1
     2     2    10 1
     3     2     3 1
     4     3     4 2
     5     3    11 1
     6     4     9 ar
     7     4     5 ar
     8     5     6 ar
     9     6     7 ar
    10     7     8 ar
    11     8     9 ar
    12     9    10 2
    13    11    12 1
    14    12    13 1
    15    13    14 1
    16    13    20 1
    17    14    15 1
    18    15    19 1
    19    15    16 2
    20    16    17 1
    21    17    18 2
    22    18    19 1
    23    20    21 2
    24    20    22 1
    25    22    23 1
    26    23    28 1
    27    23    24 1
    28    24    25 1
    29    25    26 1
    30    26    27 1
    31    27    28 1

@<TRIPOS>MOLECULE
ZINC10345944_replica-1.pdb
 22 23 0 0 0
SMALL
GASTEIGER

@<TRIPOS>ATOM
       1  C1          0.6420   25.5950   55.0750  C.3       1 <0>        -0.1458
       2  C2         -0.0150   26.9640   55.2600  C.3       1 <0>        -0.0870
       3  C3         -0.6030   27.4200   53.9500  C.ar      1 <0>        -0.0702
       4  C4         -0.3340   26.7200   52.7900  C.ar      1 <0>        -0.1169
       5  C5         -0.8740   27.1370   51.5880  C.ar      1 <0>        -0.1021
       6  C6         -1.6830   28.2580   51.5410  C.ar      1 <0>        -0.1171
       7  C7         -1.9570   28.9620   52.6960  C.ar      1 <0>        -0.0593
       8  C8         -1.4170   28.5460   53.9070  C.ar      1 <0>         0.1317
       9  N1         -1.6860   29.2590   55.0770  N.pl3     1 <0>        -0.6146
      10  C9         -0.7550   30.1690   55.5660  C.2       1 <0>         0.3498
      11  N2          0.1720   30.8460   54.9180  N.2       1 <0>        -0.3527
      12  N3          0.9970   31.7080   55.6040  N.2       1 <0>        -0.2721
      13  C10         0.8640   31.8430   56.9100  C.2       1 <0>         0.0279
      14  S1         -0.4890   30.7250   57.2430  S.3       1 <0>         0.0099
      15  S2          1.7760   32.8550   58.0260  S.3       1 <0>         0.1181
      16  C11         0.6270   34.1950   58.4430  C.3       1 <0>        -0.0958
      17  C12         0.7480   34.5280   59.9320  C.3       1 <0>        -0.1466
      18  C13         0.9610   35.4170   57.6270  C.2       1 <0>         0.4872
      19  O1          0.2050   35.7900   56.7600  O.2       1 <0>        -0.4872
      20  O2          2.0970   36.0910   57.8620  O.3       1 <0>        -0.3471
      21  C14         3.0950   36.0890   56.8070  C.3       1 <0>         0.0347
      22  C15        -2.8400   30.1830   52.6450  C.3       1 <0>        -0.1141
@<TRIPOS>BOND
     1     1     2 1
     2     2     3 1
     3     3     8 ar
     4     3     4 ar
     5     4     5 ar
     6     5     6 ar
     7     6     7 ar
     8     7     8 ar
     9     7    22 1
    10     8     9 1
    11     9    10 1
    12    10    14 1
    13    10    11 2
    14    11    12 1
    15    12    13 2
    16    13    14 1
    17    13    15 1
    18    15    16 1
    19    16    17 1
    20    16    18 1
    21    18    19 2
    22    18    20 1
    23    20    21 1

@<TRIPOS>MOLECULE
ZINC05371577_replica-1.pdb
 22 24 0 0 0
SMALL
GASTEIGER

@<TRIPOS>ATOM
       1  C1          3.9370   30.6210   60.3300  C.3       1 <0>        -0.1146
       2  C2          3.6860   32.0410   59.8950  C.ar      1 <0>        -0.0798
       3  C3          2.5910   32.7300   60.3810  C.ar      1 <0>        -0.0930
       4  C4          2.3580   34.0330   59.9850  C.ar      1 <0>        -0.1066
       5  C5          3.2220   34.6540   59.1040  C.ar      1 <0>        -0.0555
       6  C6          4.3200   33.9630   58.6090  C.ar      1 <0>         0.0975
       7  C7          4.5520   32.6540   59.0100  C.ar      1 <0>        -0.0820
       8  N1          5.1960   34.5880   57.7120  N.am      1 <0>        -0.4748
       9  C8          6.2850   35.1780   58.1750  C.2       1 <0>         0.5295
      10  O1          6.5460   35.1920   59.3640  O.2       1 <0>        -0.4226
      11  C9          7.1630   35.8220   57.1840  C.2       1 <0>        -0.2602
      12  C10         8.3320   36.4980   57.3680  C.2       1 <0>         0.1229
      13  C11         8.9820   36.4590   58.6230  C.2       1 <0>        -0.0554
      14  C12         8.9540   37.4490   59.5850  C.2       1 <0>        -0.1166
      15  C13         9.7250   36.9840   60.6610  C.2       1 <0>        -0.2323
      16  C14        10.1890   35.7620   60.3200  C.2       1 <0>         0.0434
      17  O2          9.7390   35.4470   59.0970  O.3       1 <0>        -0.1197
      18  C15        11.0680   34.8890   61.1790  C.3       1 <0>        -0.0857
      19  S1          6.2790   35.4650   55.6720  S.3       1 <0>         0.0780
      20  C16         4.9130   34.5690   56.3930  C.2       1 <0>         0.2784
      21  S2          3.5720   33.8580   55.6030  S.2       1 <0>        -0.3191
      22  C17         2.9710   36.0770   58.6770  C.3       1 <0>        -0.1183
@<TRIPOS>BOND
     1     1     2 1
     2     2     7 ar
     3     2     3 ar
     4     3     4 ar
     5     4     5 ar
     6     5     6 ar
     7     5    22 1
     8     6     7 ar
     9     6     8 1
    10     8    20 1
    11     8     9 am
    12     9    10 2
    13     9    11 1
    14    11    12 2
    15    11    19 1
    16    12    13 1
    17    13    17 1
    18    13    14 2
    19    14    15 1
    20    15    16 2
    21    16    17 1
    22    16    18 1
    23    19    20 1
    24    20    21 2

@<TRIPOS>MOLECULE
ZINC03168593_replica-1.pdb
 23 23 0 0 0
SMALL
GASTEIGER

@<TRIPOS>ATOM
       1  C1          8.3540   36.1290   55.6100  C.3       1 <0>        -0.1489
       2  C2          7.9320   36.6450   56.9880  C.3       1 <0>        -0.0203
       3  C3          6.4130   36.8250   57.0230  C.3       1 <0>        -0.1430
       4  C4          8.6110   37.9880   57.2590  C.3       1 <0>        -0.1427
       5  C5          8.3440   35.6520   58.0430  C.ar      1 <0>        -0.0967
       6  C6          9.3230   35.9830   58.9550  C.ar      1 <0>        -0.0760
       7  C7          9.7050   35.0620   59.9330  C.ar      1 <0>        -0.0691
       8  C8          9.0950   33.8050   59.9800  C.ar      1 <0>        -0.0700
       9  C9          8.1140   33.4840   59.0680  C.ar      1 <0>        -0.0988
      10  C10         7.7370   34.4030   58.0970  C.ar      1 <0>         0.1397
      11  O1          6.7720   34.0810   57.1970  O.3       1 <0>        -0.4845
      12  C11         7.4520   32.1300   59.1200  C.3       1 <0>        -0.0208
      13  C12         7.8630   31.3150   57.8930  C.3       1 <0>        -0.1477
      14  C13         7.8900   31.3980   60.3900  C.3       1 <0>        -0.1423
      15  C14         5.9320   32.3060   59.1320  C.3       1 <0>        -0.1426
      16  C15        10.7530   35.4120   60.9100  C.2       1 <0>         0.1639
      17  N1         11.6140   34.5200   61.2830  N.2       1 <0>        -0.3340
      18  O2         12.6200   34.8570   62.2210  O.3       1 <0>        -0.2238
      19  C16        12.7340   33.9350   63.3070  C.3       1 <0>         0.0865
      20  C17        13.9660   33.0870   63.1200  C.2       1 <0>         0.4642
      21  O3         14.9940   33.5940   62.7390  O.2       1 <0>        -0.4885
      22  O4         13.9200   31.7710   63.3780  O.3       1 <0>        -0.3548
      23  C18        12.6160   31.1350   63.3240  C.3       1 <0>         0.0370
@<TRIPOS>BOND
     1     1     2 1
     2     2     3 1
     3     2     4 1
     4     2     5 1
     5     5    10 ar
     6     5     6 ar
     7     6     7 ar
     8     7     8 ar
     9     7    16 1
    10     8     9 ar
    11     9    10 ar
    12     9    12 1
    13    10    11 1
    14    12    13 1
    15    12    14 1
    16    12    15 1
    17    16    17 2
    18    17    18 1
    19    18    19 1
    20    19    20 1
    21    20    21 2
    22    20    22 1
    23    22    23 1

@<TRIPOS>MOLECULE
ZINC37123469_replica-1.pdb
 20 21 0 0 0
SMALL
GASTEIGER

@<TRIPOS>ATOM
       1  C1         -2.7940   30.2230   52.9940  C.3       1 <0>        -0.1704
       2  C2         -1.5490   30.5550   53.8200  C.3       1 <0>         0.1475
       3  C3         -0.6500   29.3190   53.9080  C.3       1 <0>        -0.1285
       4  C4         -1.2110   28.2160   53.0080  C.3       1 <0>        -0.1133
       5  C5         -0.1860   27.0880   52.8860  C.3       1 <0>        -0.0975
       6  C6          0.1610   26.5600   54.2790  C.3       1 <0>        -0.1500
       7  C7         -0.7730   25.9530   52.0430  C.3       1 <0>        -0.1485
       8  N1         -1.9520   30.9630   55.1680  N.pl3     1 <0>        -0.7343
       9  C8         -1.8580   30.0560   56.2300  C.ar      1 <0>         0.2413
      10  C9         -2.8000   29.0480   56.3700  C.ar      1 <0>        -0.1859
      11  C10        -2.7070   28.1530   57.4200  C.ar      1 <0>        -0.0744
      12  C11        -1.6750   28.2600   58.3340  C.ar      1 <0>        -0.1637
      13  C12        -0.7310   29.2620   58.2040  C.ar      1 <0>        -0.0874
      14  C13        -0.8140   30.1600   57.1500  C.ar      1 <0>        -0.1580
      15  S1          0.3920   31.4330   56.9770  S.3       1 <0>        -0.1334
      16  C14         0.0280   32.5710   58.3430  C.3       1 <0>        -0.0694
      17  C15         0.2910   34.0260   57.9030  C.3       1 <0>        -0.1226
      18  C16         0.8830   34.7030   59.1640  C.3       1 <0>        -0.1233
      19  C17         1.7740   33.5880   59.7630  C.3       1 <0>        -0.1227
      20  C18         0.9720   32.2920   59.5260  C.3       1 <0>        -0.1024
@<TRIPOS>BOND
     1     1     2 1
     2     2     3 1
     3     2     8 1
     4     3     4 1
     5     4     5 1
     6     5     6 1
     7     5     7 1
     8     8     9 1
     9     9    14 ar
    10     9    10 ar
    11    10    11 ar
    12    11    12 ar
    13    12    13 ar
    14    13    14 ar
    15    14    15 1
    16    15    16 1
    17    16    20 1
    18    16    17 1
    19    17    18 1
    20    18    19 1
    21    19    20 1

@<TRIPOS>MOLECULE
ZINC04356990_replica-1.pdb
 29 31 0 0 0
SMALL
GASTEIGER

@<TRIPOS>ATOM
       1  C1          0.7950   35.7140   56.9640  C.3       1 <0>        -0.1859
       2  C2          2.3200   35.6320   56.8530  C.3       1 <0>        -0.0155
       3  C3          3.8810   35.6790   55.0020  C.3       1 <0>        -0.0111
       4  C4          4.5580   34.7490   53.9930  C.3       1 <0>        -0.1892
       5  C5          3.0360   33.5620   55.8180  C.3       1 <0>        -0.0101
       6  C6          3.8800   33.4530   57.0900  C.3       1 <0>        -0.1525
       7  C7          4.2580   31.9890   57.3280  C.3       1 <0>        -0.1252
       8  C8          5.7780   31.8350   57.2490  C.3       1 <0>         0.1434
       9  C9          6.2000   30.5590   57.9810  C.3       1 <0>        -0.1704
      10  N1          6.4180   32.9920   57.8780  N.am      1 <0>        -0.7245
      11  C10         7.6050   33.4380   57.4180  C.2       1 <0>         0.5675
      12  O1          8.1420   32.8800   56.4810  O.2       1 <0>        -0.5117
      13  C11         8.2520   34.6070   58.0520  C.ar      1 <0>        -0.0749
      14  C12         9.0850   34.4560   59.1500  C.ar      1 <0>        -0.1284
      15  C13         9.6810   35.5870   59.7260  C.ar      1 <0>         0.1917
      16  N2          9.4710   36.7980   59.2500  N.ar      1 <0>        -0.4432
      17  C14         8.6790   37.0100   58.1970  C.ar      1 <0>         0.1351
      18  C15         8.0380   35.9200   57.5570  C.ar      1 <0>        -0.0666
      19  C16         7.2100   36.1540   56.4520  C.ar      1 <0>        -0.1093
      20  C17         7.0290   37.4270   56.0010  C.ar      1 <0>        -0.1064
      21  C18         7.6560   38.5020   56.6280  C.ar      1 <0>        -0.0912
      22  C19         8.4670   38.3110   57.7040  C.ar      1 <0>        -0.0952
      23  C20        10.5730   35.4170   60.9000  C.ar      1 <0>        -0.0581
      24  C21        10.8540   36.5040   61.7270  C.ar      1 <0>        -0.1037
      25  C22        11.6790   36.3400   62.8200  C.ar      1 <0>        -0.1242
      26  C23        12.2350   35.1010   63.0910  C.ar      1 <0>        -0.1024
      27  C24        11.9640   34.0210   62.2700  C.ar      1 <0>        -0.1200
      28  C25        11.1350   34.1720   61.1770  C.ar      1 <0>        -0.0734
      29  N3          2.7120   34.9850   55.5830  N.4       1 <0>        -0.3961
@<TRIPOS>BOND
     1     1     2 1
     2     2    29 1
     3     3     4 1
     4     3    29 1
     5     5     6 1
     6     5    29 1
     7     6     7 1
     8     7     8 1
     9     8     9 1
    10     8    10 1
    11    10    11 am
    12    11    12 2
    13    11    13 1
    14    13    18 ar
    15    13    14 ar
    16    14    15 ar
    17    15    16 ar
    18    15    23 1
    19    16    17 ar
    20    17    22 ar
    21    17    18 ar
    22    18    19 ar
    23    19    20 ar
    24    20    21 ar
    25    21    22 ar
    26    23    28 ar
    27    23    24 ar
    28    24    25 ar
    29    25    26 ar
    30    26    27 ar
    31    27    28 ar

@<TRIPOS>MOLECULE
ZINC13416513_replica-1.pdb
 26 28 0 0 0
SMALL
GASTEIGER

@<TRIPOS>ATOM
       1  C1         -0.3340   29.7390   57.2100  C.3       1 <0>        -0.1588
       2  C2         -0.2550   30.5440   55.9110  C.3       1 <0>         0.1858
       3  C3         -0.5950   29.6510   54.7470  C.ar      1 <0>        -0.0926
       4  C4         -1.4590   30.0940   53.7610  C.ar      1 <0>        -0.1156
       5  C5         -1.7680   29.2700   52.6990  C.ar      1 <0>        -0.1152
       6  C6         -1.2190   27.9970   52.6110  C.ar      1 <0>        -0.0751
       7  C7         -0.3550   27.5580   53.5890  C.ar      1 <0>        -0.0712
       8  C8         -0.0430   28.3900   54.6560  C.ar      1 <0>        -0.1061
       9  C9          0.2850   26.1950   53.5520  C.3       1 <0>        -0.0827
      10  C10        -0.4700   25.2730   52.5960  C.3       1 <0>        -0.1208
      11  C11        -0.6240   25.9920   51.2520  C.3       1 <0>        -0.1203
      12  C12        -1.6100   27.1450   51.4310  C.3       1 <0>        -0.0821
      13  N1          1.1030   31.0680   55.7440  N.am      1 <0>        -0.7206
      14  C13         1.4070   32.3040   56.1890  C.2       1 <0>         0.5417
      15  O1          0.5580   32.9810   56.7290  O.2       1 <0>        -0.5144
      16  C14         2.8030   32.8440   56.0170  C.3       1 <0>        -0.1812
      17  S1          2.7900   34.6380   56.2540  S.3       1 <0>         0.1226
      18  C15         4.5220   34.9500   56.3290  C.2       1 <0>         0.0344
      19  N2          5.1670   35.9030   56.9760  N.2       1 <0>        -0.4372
      20  C16         6.4830   35.9910   56.9280  C.2       1 <0>         0.1197
      21  C17         7.1640   35.0850   56.1870  C.2       1 <0>        -0.2206
      22  S2          5.8210   34.0870   55.5630  S.3       1 <0>        -0.0063
      23  C18         7.2100   37.0790   57.6770  C.3       1 <0>        -0.1010
      24  C19         7.7480   38.0900   56.6980  C.2       1 <0>         0.4681
      25  O2          8.8010   38.6400   56.9160  O.co2     1 <0>        -0.6197
      26  O3          7.0570   38.3800   55.5850  O.co2     1 <0>        -0.7750
@<TRIPOS>BOND
     1     1     2 1
     2     2     3 1
     3     2    13 1
     4     3     8 ar
     5     3     4 ar
     6     4     5 ar
     7     5     6 ar
     8     6    12 1
     9     6     7 ar
    10     7     8 ar
    11     7     9 1
    12     9    10 1
    13    10    11 1
    14    11    12 1
    15    13    14 am
    16    14    15 2
    17    14    16 1
    18    16    17 1
    19    17    18 1
    20    18    22 1
    21    18    19 2
    22    19    20 1
    23    20    21 2
    24    20    23 1
    25    21    22 1
    26    23    24 1
    27    24    25 2
    28    24    26 1

@<TRIPOS>MOLECULE
ZINC13774847_replica-1.pdb
 20 20 0 0 0
SMALL
GASTEIGER

@<TRIPOS>ATOM
       1  C1          8.4930   31.6820   58.6850  C.3       1 <0>        -0.1535
       2  C2          7.3780   32.3030   57.8420  C.3       1 <0>        -0.1204
       3  C3          7.9790   32.9170   56.5750  C.3       1 <0>        -0.1343
       4  C4          6.9330   33.8020   55.8930  C.3       1 <0>         0.1227
       5  N1          7.3340   35.2070   56.0100  N.pl3     1 <0>        -0.6862
       6  C5          7.3200   35.8140   57.2140  C.2       1 <0>         0.5625
       7  S1          5.8450   36.0010   58.0620  S.2       1 <0>        -0.6379
       8  N2          8.4690   36.2690   57.7520  N.pl3     1 <0>        -0.6811
       9  C6          8.4550   36.9280   59.0590  C.3       1 <0>         0.1864
      10  C7          8.8100   38.4060   58.8890  C.3       1 <0>        -0.1576
      11  C8          9.4640   36.2700   59.9650  C.ar      1 <0>        -0.1013
      12  C9          9.9290   36.9370   61.0820  C.ar      1 <0>        -0.1156
      13  C10        10.8510   36.3300   61.9150  C.ar      1 <0>        -0.1167
      14  C11        11.3160   35.0620   61.6240  C.ar      1 <0>        -0.0639
      15  C12        10.8550   34.3970   60.5040  C.ar      1 <0>        -0.1092
      16  C13         9.9290   35.0000   59.6740  C.ar      1 <0>        -0.0984
      17  C14        12.3260   34.4030   62.5290  C.3       1 <0>        -0.0318
      18  C15        12.4920   35.2360   63.8000  C.3       1 <0>        -0.1397
      19  C16        11.8390   33.0000   62.8980  C.3       1 <0>        -0.1456
      20  C17        13.6700   34.3040   61.8040  C.3       1 <0>        -0.1398
@<TRIPOS>BOND
     1     1     2 1
     2     2     3 1
     3     3     4 1
     4     4     5 1
     5     5     6 1
     6     6     7 2
     7     6     8 1
     8     8     9 1
     9     9    10 1
    10     9    11 1
    11    11    16 ar
    12    11    12 ar
    13    12    13 ar
    14    13    14 ar
    15    14    15 ar
    16    14    17 1
    17    15    16 ar
    18    17    18 1
    19    17    19 1
    20    17    20 1

@<TRIPOS>MOLECULE
ZINC47387666_replica-1.pdb
 19 19 0 0 0
SMALL
GASTEIGER

@<TRIPOS>ATOM
       1  C1         10.3040   34.9660   59.7240  C.ar      1 <0>        -0.0568
       2  C2          9.4780   35.2540   58.6570  C.ar      1 <0>        -0.0584
       3  C3          8.8020   36.4610   58.6080  C.ar      1 <0>        -0.0255
       4  C4          8.9520   37.3860   59.6260  C.ar      1 <0>        -0.0599
       5  C5          9.7760   37.1110   60.6970  C.ar      1 <0>        -0.0869
       6  C6         10.4590   35.8950   60.7540  C.ar      1 <0>        -0.0853
       7  C7         11.3430   35.5920   61.9000  C.2       1 <0>         0.5604
       8  O1         11.4700   36.4010   62.7980  O.2       1 <0>        -0.5122
       9  N1         12.0050   34.4200   61.9480  N.am      1 <0>        -0.7208
      10  C8         12.8800   34.1200   63.0850  C.3       1 <0>         0.1372
      11  C9         13.2200   32.6280   63.0880  C.3       1 <0>        -0.1212
      12  S1         11.7060   31.6620   63.3410  S.3       1 <0>        -0.1352
      13  C10        12.2990   30.0860   64.0150  C.3       1 <0>         0.4667
      14  F1         11.2090   29.2410   64.2520  F         1 <0>        -0.1666
      15  F2         13.1650   29.4820   63.0960  F         1 <0>        -0.1439
      16  F3         12.9790   30.3170   65.2150  F         1 <0>        -0.1666
      17  N2          7.9180   36.7640   57.4610  N.pl3     1 <0>         0.0270
      18  O2          8.3670   37.3030   56.4760  O.2       1 <0>        -0.1472
      19  O3          6.7460   36.4700   57.5080  O.3       1 <0>        -0.1488
@<TRIPOS>BOND
     1     1     6 ar
     2     1     2 ar
     3     2     3 ar
     4     3     4 ar
     5     3    17 1
     6     4     5 ar
     7     5     6 ar
     8     6     7 1
     9     7     8 2
    10     7     9 am
    11     9    10 1
    12    10    11 1
    13    11    12 1
    14    12    13 1
    15    13    14 1
    16    13    15 1
    17    13    16 1
    18    17    18 2
    19    17    19 1

@<TRIPOS>MOLECULE
ZINC36934289_replica-1.pdb
 18 18 0 0 0
SMALL
GASTEIGER

@<TRIPOS>ATOM
       1  C1         -0.1440   22.4750   57.5440  C.3       1 <0>        -0.1544
       2  C2          0.1240   23.7460   56.7340  C.3       1 <0>        -0.1257
       3  C3         -0.1580   24.9740   57.6030  C.3       1 <0>        -0.1123
       4  C4         -0.1320   26.2310   56.7320  C.3       1 <0>        -0.1043
       5  C5          0.6890   27.3180   57.4280  C.3       1 <0>        -0.1512
       6  C6          0.5020   25.9010   55.3790  C.3       1 <0>         0.1266
       7  N1          0.5870   27.1190   54.5700  N.pl3     1 <0>        -0.7406
       8  C7         -0.2440   27.2780   53.4550  C.ar      1 <0>         0.2555
       9  C8         -0.4390   26.2230   52.5770  C.ar      1 <0>        -0.1818
      10  C9         -1.2600   26.3830   51.4750  C.ar      1 <0>        -0.0573
      11  C10        -1.8890   27.5930   51.2460  C.ar      1 <0>        -0.1564
      12  C11        -1.7010   28.6500   52.1160  C.ar      1 <0>        -0.0722
      13  C12        -0.8840   28.4970   53.2270  C.ar      1 <0>        -0.1855
      14  S1         -0.6480   29.8410   54.3420  S.3       1 <0>        -0.0435
      15  C13        -1.9770   29.6400   55.5600  C.3       1 <0>         0.4584
      16  F1         -1.4740   29.8770   56.8440  F         1 <0>        -0.1625
      17  F2         -3.0030   30.5510   55.2860  F         1 <0>        -0.1453
      18  F3         -2.4800   28.3360   55.4910  F         1 <0>        -0.1625
@<TRIPOS>BOND
     1     1     2 1
     2     2     3 1
     3     3     4 1
     4     4     5 1
     5     4     6 1
     6     6     7 1
     7     7     8 1
     8     8    13 ar
     9     8     9 ar
    10     9    10 ar
    11    10    11 ar
    12    11    12 ar
    13    12    13 ar
    14    13    14 1
    15    14    15 1
    16    15    16 1
    17    15    17 1
    18    15    18 1

@<TRIPOS>MOLECULE
ZINC05468517_replica-1.pdb
 20 20 0 0 0
SMALL
GASTEIGER

@<TRIPOS>ATOM
       1  C1         -0.0310   30.2410   58.5580  C.3       1 <0>        -0.1544
       2  C2          1.4190   29.9410   58.9440  C.3       1 <0>        -0.1321
       3  C3          1.6760   28.4370   58.8330  C.3       1 <0>         0.1423
       4  C4          3.1570   28.1520   59.0910  C.3       1 <0>        -0.1659
       5  N1          1.3160   27.9770   57.4910  N.am      1 <0>        -0.7229
       6  C5          0.5840   26.8560   57.3350  C.2       1 <0>         0.5164
       7  O1          0.2250   26.2280   58.3070  O.2       1 <0>        -0.5108
       8  C6          0.2140   26.3830   55.9530  C.3       1 <0>         0.0360
       9  O2          0.2520   27.4860   55.0450  O.3       1 <0>        -0.2788
      10  C7         -0.3220   27.3020   53.8270  C.ar      1 <0>         0.1341
      11  C8         -0.0840   26.1340   53.1160  C.ar      1 <0>        -0.2099
      12  C9         -0.6680   25.9500   51.8780  C.ar      1 <0>        -0.0525
      13  C10        -1.4880   26.9290   51.3460  C.ar      1 <0>        -0.1537
      14  C11        -1.7260   28.0930   52.0530  C.ar      1 <0>        -0.0805
      15  C12        -1.1480   28.2800   53.2940  C.ar      1 <0>        -0.1000
      16  C13        -1.4130   29.5470   54.0660  C.3       1 <0>        -0.0179
      17  C14        -0.0870   30.2460   54.3700  C.3       1 <0>        -0.1456
      18  C15        -2.3000   30.4750   53.2320  C.3       1 <0>        -0.1402
      19  C16        -2.1230   29.2050   55.3770  C.3       1 <0>        -0.1403
      20  C17        -0.4100   24.6820   51.1060  C.3       1 <0>        -0.1165
@<TRIPOS>BOND
     1     1     2 1
     2     2     3 1
     3     3     4 1
     4     3     5 1
     5     5     6 am
     6     6     7 2
     7     6     8 1
     8     8     9 1
     9     9    10 1
    10    10    15 ar
    11    10    11 ar
    12    11    12 ar
    13    12    13 ar
    14    12    20 1
    15    13    14 ar
    16    14    15 ar
    17    15    16 1
    18    16    17 1
    19    16    18 1
    20    16    19 1

@<TRIPOS>MOLECULE
ZINC63655134_replica-1.pdb
 27 29 0 0 0
SMALL
GASTEIGER

@<TRIPOS>ATOM
       1  C1         -1.9090   27.7010   50.7170  C.3       1 <0>        -0.1277
       2  C2         -1.2010   27.3480   52.0000  C.ar      1 <0>        -0.1122
       3  C3         -0.6300   26.0760   52.1360  C.ar      1 <0>         0.0589
       4  C4          0.0220   25.6840   53.2520  C.ar      1 <0>        -0.2076
       5  C5          0.1530   26.5710   54.3560  C.ar      1 <0>         0.3337
       6  N1          0.7260   26.4290   55.5260  N.pl3     1 <0>        -0.5863
       7  C6          0.5600   27.6750   56.2830  C.3       1 <0>         0.0986
       8  C7         -0.2140   28.6090   55.3790  C.2       1 <0>         0.0807
       9  C8         -0.4410   27.9220   54.2370  C.ar      1 <0>        -0.1684
      10  C9         -1.1270   28.2700   52.9860  C.ar      1 <0>        -0.0339
      11  C10        -0.6430   30.0190   55.6890  C.3       1 <0>        -0.1100
      12  C11         0.5940   30.8950   55.9020  C.3       1 <0>         0.1012
      13  N2          0.5800   31.4370   57.2620  N.pl3     1 <0>        -0.5737
      14  C12        -0.2870   32.5710   57.5900  C.3       1 <0>         0.1822
      15  C13         0.5530   33.8070   57.7850  C.2       1 <0>        -0.2031
      16  C14         1.1090   34.6170   56.8510  C.2       1 <0>        -0.1172
      17  C15         1.8490   35.7080   57.2670  C.2       1 <0>        -0.1636
      18  C16         1.9970   35.9360   58.5940  C.2       1 <0>        -0.1455
      19  S1          1.0680   34.5880   59.3060  S.3       1 <0>         0.0516
      20  C17         1.3640   30.8920   58.2130  C.2       1 <0>         0.5643
      21  S2          0.6760   30.3550   59.6850  S.2       1 <0>        -0.6145
      22  N3          2.6900   30.7710   58.0050  N.pl3     1 <0>        -0.6646
      23  C18         3.5590   30.2850   59.0800  C.3       1 <0>         0.1755
      24  C19         5.0160   30.3230   58.6130  C.3       1 <0>        -0.1870
      25  C20         3.3950   31.1750   60.3120  C.3       1 <0>        -0.1606
      26  C21         3.1750   28.8470   59.4350  C.3       1 <0>        -0.1875
      27  C22        -0.2260   27.4110   57.5680  C.3       1 <0>        -0.1559
@<TRIPOS>BOND
     1     1     2 1
     2     2    10 ar
     3     2     3 ar
     4     3     4 ar
     5     4     5 ar
     6     5     9 ar
     7     5     6 2
     8     6     7 1
     9     7     8 1
    10     7    27 1
    11     8     9 2
    12     8    11 1
    13     9    10 ar
    14    11    12 1
    15    12    13 1
    16    13    14 1
    17    13    20 1
    18    14    15 1
    19    15    19 1
    20    15    16 2
    21    16    17 1
    22    17    18 2
    23    18    19 1
    24    20    21 2
    25    20    22 1
    26    22    23 1
    27    23    24 1
    28    23    25 1
    29    23    26 1

@<TRIPOS>MOLECULE
ZINC36922297_replica-1.pdb
 19 21 0 0 0
SMALL
GASTEIGER

@<TRIPOS>ATOM
       1  C1         12.3180   35.1620   63.7560  C.3       1 <0>        -0.1455
       2  C2         12.1590   34.3630   62.4620  C.3       1 <0>         0.0863
       3  C3         13.5260   34.1800   61.8030  C.3       1 <0>        -0.1393
       4  C4         11.5800   33.0440   62.7660  C.1       1 <0>         0.2152
       5  N1         11.1340   32.0270   63.0010  N.1       1 <0>        -0.4317
       6  C5         11.2440   35.1070   61.5230  C.ar      1 <0>        -0.1449
       7  C6         10.8560   34.5230   60.3310  C.ar      1 <0>        -0.0568
       8  C7         10.0180   35.2020   59.4680  C.ar      1 <0>        -0.1951
       9  C8          9.5630   36.4720   59.7990  C.ar      1 <0>         0.2267
      10  C9          9.9530   37.0550   60.9980  C.ar      1 <0>        -0.1992
      11  C10        10.7880   36.3690   61.8590  C.ar      1 <0>        -0.0561
      12  N2          8.7150   37.1610   58.9300  N.pl3     1 <0>        -0.7344
      13  C11         7.5400   36.4910   58.3670  C.3       1 <0>         0.2101
      14  C12         6.3010   36.8590   59.1850  C.3       1 <0>        -0.1716
      15  C13         5.9400   35.9530   60.3650  C.3       1 <0>        -0.1697
      16  C14         5.0910   35.9270   59.0920  C.3       1 <0>        -0.1790
      17  C15         7.3440   36.9370   56.9170  C.3       1 <0>        -0.1670
      18  C16         6.7160   35.9340   55.9480  C.3       1 <0>        -0.1706
      19  C17         8.2060   36.2630   55.8480  C.3       1 <0>        -0.1685
@<TRIPOS>BOND
     1     1     2 1
     2     2     3 1
     3     2     4 1
     4     2     6 1
     5     4     5 3
     6     6    11 ar
     7     6     7 ar
     8     7     8 ar
     9     8     9 ar
    10     9    10 ar
    11     9    12 1
    12    10    11 ar
    13    12    13 1
    14    13    14 1
    15    13    17 1
    16    14    16 1
    17    14    15 1
    18    15    16 1
    19    17    19 1
    20    17    18 1
    21    18    19 1

@<TRIPOS>MOLECULE
ZINC16850156_replica-1.pdb
 26 28 0 0 0
SMALL
GASTEIGER

@<TRIPOS>ATOM
       1  C1         10.5710   33.0630   61.6600  C.ar      1 <0>        -0.1233
       2  C2         11.5840   32.9590   62.5930  C.ar      1 <0>        -0.0830
       3  C3         12.3250   34.0790   62.9410  C.ar      1 <0>         0.0857
       4  C4         12.0440   35.3060   62.3570  C.ar      1 <0>        -0.1557
       5  C5         11.0350   35.4110   61.4210  C.ar      1 <0>        -0.1019
       6  C6         10.2930   34.2900   61.0710  C.ar      1 <0>         0.1495
       7  N1          9.2660   34.3970   60.1250  N.pl3     1 <0>        -0.6137
       8  C7          8.7490   35.6420   59.8020  C.2       1 <0>         0.3335
       9  N2          8.8690   36.3240   58.6780  N.2       1 <0>        -0.5394
      10  C8          8.3070   37.5080   58.5350  C.2       1 <0>         0.1155
      11  C9          7.5960   38.0160   59.5710  C.2       1 <0>        -0.2526
      12  S1          7.7690   36.7010   60.7690  S.3       1 <0>         0.0555
      13  C10         8.4500   38.2790   57.2480  C.3       1 <0>        -0.0703
      14  C11         7.4700   37.7500   56.2340  C.2       1 <0>         0.5173
      15  O1          7.2240   38.3930   55.2350  O.2       1 <0>        -0.5175
      16  N3          6.8680   36.5610   56.4340  N.am      1 <0>        -0.7303
      17  C12         5.9140   36.0460   55.4480  C.3       1 <0>         0.1412
      18  C13         4.4700   36.2870   55.9320  C.3       1 <0>        -0.1346
      19  C14         3.6990   35.0260   55.4720  C.3       1 <0>        -0.1256
      20  C15         4.7310   33.8920   55.7000  C.3       1 <0>        -0.1245
      21  C16         6.0810   34.5230   55.3000  C.3       1 <0>        -0.1317
      22  O2         13.3220   33.9750   63.8590  O.3       1 <0>        -0.3081
      23  C17        14.5600   33.4200   63.4120  C.3       1 <0>         0.6038
      24  F1         14.5140   32.0260   63.5260  F         1 <0>        -0.1642
      25  F2         15.6060   33.9180   64.1970  F         1 <0>        -0.1645
      26  F3         14.7730   33.7720   62.0750  F         1 <0>        -0.1293
@<TRIPOS>BOND
     1     1     6 ar
     2     1     2 ar
     3     2     3 ar
     4     3     4 ar
     5     3    22 1
     6     4     5 ar
     7     5     6 ar
     8     6     7 1
     9     7     8 1
    10     8    12 1
    11     8     9 2
    12     9    10 1
    13    10    11 2
    14    10    13 1
    15    11    12 1
    16    13    14 1
    17    14    15 2
    18    14    16 am
    19    16    17 1
    20    17    21 1
    21    17    18 1
    22    18    19 1
    23    19    20 1
    24    20    21 1
    25    22    23 1
    26    23    24 1
    27    23    25 1
    28    23    26 1

@<TRIPOS>MOLECULE
ZINC05795615_replica-1.pdb
 21 21 0 0 0
SMALL
GASTEIGER

@<TRIPOS>ATOM
       1  C1         17.3950   34.3760   64.9980  C.3       1 <0>        -0.1529
       2  C2         15.9830   33.8220   64.7970  C.3       1 <0>         0.0622
       3  O1         15.5930   33.9960   63.4330  O.3       1 <0>        -0.3531
       4  C3         14.4390   33.4120   63.0470  C.2       1 <0>         0.5063
       5  O2         14.1030   32.3480   63.5330  O.2       1 <0>        -0.5107
       6  C4         13.6200   34.0360   62.0780  C.2       1 <0>        -0.2515
       7  C5         12.6640   34.9060   62.4610  C.2       1 <0>         0.2371
       8  C6         12.5180   35.2710   63.9160  C.3       1 <0>        -0.1216
       9  N1         11.8240   35.4580   61.5270  N.am      1 <0>        -0.6828
      10  C7         10.8030   34.7340   61.0270  C.2       1 <0>         0.5677
      11  O3         10.5700   33.6260   61.4690  O.2       1 <0>        -0.5070
      12  C8          9.9670   35.2880   59.9430  C.ar      1 <0>        -0.1471
      13  C9          9.5410   34.4680   58.8970  C.ar      1 <0>        -0.0805
      14  C10         8.7600   34.9920   57.8880  C.ar      1 <0>        -0.1229
      15  C11         8.3990   36.3270   57.9100  C.ar      1 <0>        -0.0357
      16  C12         8.8170   37.1460   58.9440  C.ar      1 <0>        -0.1286
      17  C13         9.5940   36.6340   59.9620  C.ar      1 <0>        -0.0497
      18  C14         7.5460   36.8930   56.8040  C.3       1 <0>        -0.0357
      19  C15         7.6490   38.4180   56.8080  C.3       1 <0>        -0.1403
      20  C16         8.0320   36.3520   55.4580  C.3       1 <0>        -0.1481
      21  C17         6.0890   36.4800   57.0230  C.3       1 <0>        -0.1403
@<TRIPOS>BOND
     1     1     2 1
     2     2     3 1
     3     3     4 1
     4     4     5 2
     5     4     6 1
     6     6     7 2
     7     7     8 1
     8     7     9 1
     9     9    10 am
    10    10    11 2
    11    10    12 1
    12    12    17 ar
    13    12    13 ar
    14    13    14 ar
    15    14    15 ar
    16    15    16 ar
    17    15    18 1
    18    16    17 ar
    19    18    19 1
    20    18    20 1
    21    18    21 1

@<TRIPOS>MOLECULE
ZINC57476071_replica-1.pdb
 19 20 0 0 0
SMALL
GASTEIGER

@<TRIPOS>ATOM
      1  C6         0.1150   28.4520   55.1580 C.ar    0  <0>0        0.1394
      2  C7         0.6500   27.1770   55.3670 C.ar    0  <0>0        0.0369
      3  C8         0.4700   26.1850   54.4550 C.ar    0  <0>0        0.0031
      4  C9        -0.2650   26.4390   53.2840 C.ar    0  <0>0        0.0002
      5  C10       -0.4710   25.4360   52.3210 C.ar    0  <0>0        0.0000
      6  C11       -1.1880   25.7180   51.1990 C.ar    0  <0>0        0.0000
      7  C12       -1.7230   26.9870   50.9880 C.ar    0  <0>0        0.0000
      8  C13       -1.5440   27.9830   51.8980 C.ar    0  <0>0        0.0001
      9  C14       -0.8090   27.7310   53.0690 C.ar    0  <0>0        0.0030
     10  C15       -0.6090   28.7320   54.0340 C.ar    0  <0>0        0.0369
     11  O3         0.3120   29.4230   56.0880 O.3     0  <0>0       -0.4638
     12  C5         0.2240   30.7770   55.6390 C.3     0  <0>0        0.3141
     13  C4        -0.7940   31.5160   56.4700 C.2     0  <0>0        0.3624
     14  O2        -1.9670   31.2450   56.3690 O.2     0  <0>0       -0.2459
     15  O1        -0.3980   32.4740   57.3210 O.3     0  <0>0       -0.4400
     16  C3         0.6260   33.3630   56.8680 C.3     0  <0>0        0.2464
     17  C2         0.9010   34.3970   57.9300 C.2     0  <0>0        0.0790
     18  C1         0.5450   34.1720   59.1720 C.2     0  <0>0        0.0114
     19 Cl          1.6890   35.8840   57.5090 Cl      0  <0>0       -0.0831
@<TRIPOS>BOND
     1     7     6   ar
     2     7     8   ar
     3     6     5   ar
     4     8     9   ar
     5     5     4   ar
     6     9     4   ar
     7     9    10   ar
     8     4     3   ar
     9    10     1   ar
    10     3     2   ar
    11     1     2   ar
    12     1    11    1
    13    12    11    1
    14    12    13    1
    15    14    13    2
    16    13    15    1
    17    16    15    1
    18    16    17    1
    19    19    17    1
    20    17    18    2


@<TRIPOS>MOLECULE
ZINC43255834_replica-1.pdb
 22 24 0 0 0
SMALL
GASTEIGER

@<TRIPOS>ATOM
       1  C1          7.6160   38.5390   57.4210  C.ar      1 <0>        -0.1033
       2  C2          7.5570   38.7010   58.7940  C.ar      1 <0>        -0.1182
       3  C3          8.1820   37.7950   59.6260  C.ar      1 <0>        -0.0708
       4  C4          8.8740   36.7130   59.0810  C.ar      1 <0>        -0.0295
       5  C5          8.9290   36.5550   57.6960  C.ar      1 <0>        -0.1207
       6  C6          8.3010   37.4690   56.8740  C.ar      1 <0>        -0.1182
       7  C7          9.5450   35.7390   59.9680  C.2       1 <0>         0.3220
       8  N1         10.6320   35.9730   60.6610  N.2       1 <0>        -0.4799
       9  C8         10.9730   34.8650   61.3620  C.ar      1 <0>         0.0482
      10  C9         12.0200   34.5690   62.2430  C.ar      1 <0>        -0.0629
      11  C10        12.1020   33.3300   62.8090  C.ar      1 <0>        -0.1274
      12  C11        11.1570   32.3550   62.5210  C.ar      1 <0>        -0.0994
      13  C12        10.1170   32.6240   61.6560  C.ar      1 <0>        -0.1113
      14  C13        10.0160   33.8780   61.0700  C.ar      1 <0>         0.0526
      15  N2          9.1210   34.4560   60.1910  N.pl3     1 <0>        -0.4830
      16  C14         7.9410   33.8160   59.6060  C.3       1 <0>         0.0982
      17  C15         6.6960   34.2240   60.3960  C.3       1 <0>        -0.1455
      18  C16         5.4660   34.1450   59.4880  C.3       1 <0>        -0.1171
      19  C17         5.8440   34.6000   58.0770  C.3       1 <0>        -0.1175
      20  C18         5.1040   35.8960   57.7440  C.3       1 <0>        -0.0258
      21  C19         4.4780   35.7770   56.4170  C.1       1 <0>         0.2000
      22  N3          3.9950   35.6850   55.3930  N.1       1 <0>        -0.4332
@<TRIPOS>BOND
     1     1     6 ar
     2     1     2 ar
     3     2     3 ar
     4     3     4 ar
     5     4     5 ar
     6     4     7 1
     7     5     6 ar
     8     7    15 1
     9     7     8 2
    10     8     9 1
    11     9    14 ar
    12     9    10 ar
    13    10    11 ar
    14    11    12 ar
    15    12    13 ar
    16    13    14 ar
    17    14    15 1
    18    15    16 1
    19    16    17 1
    20    17    18 1
    21    18    19 1
    22    19    20 1
    23    20    21 1
    24    21    22 3

@<TRIPOS>MOLECULE
ZINC13382125_replica-1.pdb
 22 23 0 0 0
SMALL
GASTEIGER

@<TRIPOS>ATOM
       1  C1          0.1900   33.6300   58.6260  C.3       1 <0>        -0.1541
       2  C2          1.0820   32.3870   58.6000  C.3       1 <0>         0.0632
       3  O1          0.5750   31.4490   57.6150  O.3       1 <0>        -0.3545
       4  C3          0.7730   31.7560   56.3230  C.2       1 <0>         0.4795
       5  O2          1.8300   32.2200   55.9670  O.2       1 <0>        -0.4825
       6  C4         -0.3240   31.5220   55.3160  C.3       1 <0>        -0.1126
       7  S1         -1.8310   30.9920   56.1750  S.3       1 <0>        -0.1351
       8  C5         -2.0830   29.2870   55.6080  C.3       1 <0>        -0.1102
       9  C6         -1.0440   28.3920   56.2340  C.2       1 <0>         0.1816
      10  N1         -0.1040   27.8760   55.5000  N.2       1 <0>        -0.2101
      11  N2          0.0070   28.2320   54.1500  N.pl3     1 <0>        -0.5778
      12  C7         -0.4180   27.3500   53.1570  C.ar      1 <0>         0.2087
      13  C8         -1.2200   27.8050   52.1170  C.ar      1 <0>        -0.1807
      14  C9         -1.6380   26.9270   51.1360  C.ar      1 <0>        -0.0798
      15  C10        -1.2620   25.5980   51.1880  C.ar      1 <0>        -0.1610
      16  C11        -0.4630   25.1410   52.2220  C.ar      1 <0>        -0.0832
      17  C12        -0.0410   26.0120   53.2070  C.ar      1 <0>        -0.1566
      18  C13        -1.0930   28.1050   57.6720  C.2       1 <0>        -0.1442
      19  C14        -2.1840   27.7980   58.4650  C.2       1 <0>        -0.1039
      20  C15        -1.9750   27.5650   59.8050  C.2       1 <0>        -0.1684
      21  C16        -0.7150   27.6450   60.3040  C.2       1 <0>        -0.1773
      22  S2          0.2440   28.0540   58.8550  S.3       1 <0>         0.1537
@<TRIPOS>BOND
     1     1     2 1
     2     2     3 1
     3     3     4 1
     4     4     5 2
     5     4     6 1
     6     6     7 1
     7     7     8 1
     8     8     9 1
     9     9    10 2
    10     9    18 1
    11    10    11 1
    12    11    12 1
    13    12    17 ar
    14    12    13 ar
    15    13    14 ar
    16    14    15 ar
    17    15    16 ar
    18    16    17 ar
    19    18    22 1
    20    18    19 2
    21    19    20 1
    22    20    21 2
    23    21    22 1

@<TRIPOS>MOLECULE
ZINC61891750_replica-1.pdb
 20 21 0 0 0
SMALL
GASTEIGER

@<TRIPOS>ATOM
       1  C1         11.2210   36.4200   62.4820  C.3       1 <0>        -0.1394
       2  C2         11.4440   35.3020   61.4600  C.3       1 <0>         0.1270
       3  C3         12.1440   34.1460   62.1260  C.ar      1 <0>        -0.0627
       4  C4         11.4550   32.9710   62.3700  C.ar      1 <0>        -0.1230
       5  C5         12.0940   31.9070   62.9810  C.ar      1 <0>        -0.0810
       6  C6         13.4210   32.0160   63.3490  C.ar      1 <0>        -0.1883
       7  C7         14.1130   33.1930   63.1040  C.ar      1 <0>         0.1043
       8  C8         13.4720   34.2570   62.4860  C.ar      1 <0>        -0.1285
       9  O1         15.4190   33.3020   63.4650  O.3       1 <0>        -0.3211
      10  C9         15.6940   33.9010   64.7330  C.3       1 <0>         0.4119
      11  F1         15.8330   32.9020   65.7020  F         1 <0>        -0.1977
      12  F2         16.8790   34.6400   64.6520  F         1 <0>        -0.1979
      13  N1         10.1480   34.8540   60.9340  N.3       1 <0>        -0.6806
      14  C10         9.9920   35.2380   59.5240  C.3       1 <0>         0.0901
      15  C11         9.2210   36.5700   59.4230  C.3       1 <0>        -0.1152
      16  C12         8.3320   36.4000   58.1660  C.3       1 <0>        -0.1243
      17  C13         7.8970   34.9160   58.2540  C.3       1 <0>        -0.1113
      18  C14         9.1510   34.1850   58.7810  C.3       1 <0>        -0.0038
      19  C15         8.7560   33.1110   59.7070  C.1       1 <0>         0.2092
      20  N2          8.4520   32.2810   60.4210  N.1       1 <0>        -0.4216
@<TRIPOS>BOND
     1     1     2 1
     2     2     3 1
     3     2    13 1
     4     3     8 ar
     5     3     4 ar
     6     4     5 ar
     7     5     6 ar
     8     6     7 ar
     9     7     8 ar
    10     7     9 1
    11     9    10 1
    12    10    11 1
    13    10    12 1
    14    13    14 1
    15    14    18 1
    16    14    15 1
    17    15    16 1
    18    16    17 1
    19    17    18 1
    20    18    19 1
    21    19    20 3

@<TRIPOS>MOLECULE
ZINC50832851_replica-1.pdb
 20 21 0 0 0
SMALL
GASTEIGER

@<TRIPOS>ATOM
       1  C1         -3.0270   27.1410   58.0060  C.3       1 <0>        -0.1509
       2  C2         -2.1000   28.3180   57.6920  C.3       1 <0>        -0.1358
       3  C3         -0.7200   28.0550   58.2970  C.3       1 <0>         0.1086
       4  N1          0.3130   28.5970   57.4100  N.pl3     1 <0>        -0.6693
       5  C4          0.3260   29.9560   57.1050  C.2       1 <0>         0.1122
       6  C5          0.3290   30.5620   55.8810  C.2       1 <0>        -0.1020
       7  N2          0.3420   31.8770   55.8830  N.2       1 <0>        -0.1823
       8  N3          0.3520   32.5040   57.0100  N.2       1 <0>        -0.2429
       9  S1          0.3360   31.2740   58.1470  S.3       1 <0>         0.2675
      10  C6          0.3180   29.7690   54.6010  C.3       1 <0>         0.1593
      11  O1         -0.8060   28.8860   54.5960  O.3       1 <0>        -0.3247
      12  C7         -1.1240   28.2980   53.4130  C.ar      1 <0>         0.0936
      13  C8         -1.9520   28.9530   52.5120  C.ar      1 <0>        -0.0983
      14  C9         -2.2740   28.3530   51.3100  C.ar      1 <0>        -0.1096
      15  C10        -1.7710   27.1010   51.0050  C.ar      1 <0>        -0.1158
      16  C11        -0.9470   26.4470   51.9010  C.ar      1 <0>        -0.0813
      17  C12        -0.6170   27.0450   53.1020  C.ar      1 <0>        -0.1015
      18  C13         0.2870   26.3340   54.0750  C.3       1 <0>        -0.1079
      19  C14        -0.4020   25.0830   51.5650  C.3       1 <0>        -0.1162
      20  C15        -2.5000   30.3170   52.8450  C.3       1 <0>        -0.1153
@<TRIPOS>BOND
     1     1     2 1
     2     2     3 1
     3     3     4 1
     4     4     5 1
     5     5     9 1
     6     5     6 2
     7     6     7 1
     8     6    10 1
     9     7     8 2
    10     8     9 1
    11    10    11 1
    12    11    12 1
    13    12    17 ar
    14    12    13 ar
    15    13    14 ar
    16    13    20 1
    17    14    15 ar
    18    15    16 ar
    19    16    17 ar
    20    16    19 1
    21    17    18 1

@<TRIPOS>MOLECULE
ZINC62138495_replica-1.pdb
 20 21 0 0 0
SMALL
GASTEIGER

@<TRIPOS>ATOM
       1  C1          8.3060   38.9000   57.3250  C.ar      1 <0>        -0.0630
       2  C2          7.6070   38.2330   56.3360  C.ar      1 <0>        -0.1238
       3  C3          7.3540   36.8810   56.4600  C.ar      1 <0>        -0.0532
       4  C4          7.8000   36.1940   57.5750  C.ar      1 <0>        -0.0531
       5  C5          8.4990   36.8600   58.5630  C.ar      1 <0>        -0.0046
       6  C6          8.7510   38.2130   58.4390  C.ar      1 <0>        -0.1130
       7  C7          8.9830   36.1110   59.7780  C.3       1 <0>        -0.1321
       8  C8          9.3620   37.1090   60.8750  C.3       1 <0>         0.1196
       9  C9         10.5230   36.5460   61.6980  C.3       1 <0>        -0.1467
      10  C10        10.9900   35.2250   61.0840  C.3       1 <0>        -0.1101
      11  C11        11.5160   34.3070   62.1900  C.3       1 <0>        -0.0870
      12  C12        13.0420   34.2340   62.1080  C.3       1 <0>        -0.1142
      13  C13        13.5680   33.3170   63.2140  C.3       1 <0>        -0.1210
      14  C14        12.9800   31.9150   63.0360  C.3       1 <0>        -0.1205
      15  C15        11.4540   31.9880   63.1170  C.3       1 <0>        -0.1206
      16  C16        10.9280   32.9060   62.0110  C.3       1 <0>        -0.1150
      17  O1          8.2370   37.3290   61.7270  O.3       1 <0>        -0.5597
      18  N1          7.5280   34.7450   57.7080  N.pl3     1 <0>         0.0370
      19  O2          8.3140   33.9390   57.2660  O.2       1 <0>        -0.1629
      20  O3          6.5190   34.3670   58.2560  O.3       1 <0>        -0.1580
@<TRIPOS>BOND
     1     1     6 ar
     2     1     2 ar
     3     2     3 ar
     4     3     4 ar
     5     4     5 ar
     6     4    18 1
     7     5     6 ar
     8     5     7 1
     9     7     8 1
    10     8     9 1
    11     8    17 1
    12     9    10 1
    13    10    11 1
    14    11    16 1
    15    11    12 1
    16    12    13 1
    17    13    14 1
    18    14    15 1
    19    15    16 1
    20    18    19 2
    21    18    20 1

@<TRIPOS>MOLECULE
ZINC52250303_replica-1.pdb
 20 20 0 0 0
SMALL
GASTEIGER

@<TRIPOS>ATOM
       1  C1          6.9120   32.7460   60.4070  C.3       1 <0>        -0.1617
       2  C2          6.3800   34.0620   59.8360  C.3       1 <0>        -0.1194
       3  C3          7.1440   34.4080   58.5550  C.3       1 <0>        -0.1052
       4  C4          6.2080   34.3320   57.3770  C.2       1 <0>         0.4641
       5  O1          5.2140   35.0200   57.3510  O.2       1 <0>        -0.4797
       6  O2          6.4780   33.5030   56.3570  O.3       1 <0>        -0.3489
       7  C5          7.5260   32.5520   56.5540  C.3       1 <0>         0.0572
       8  C6          6.9210   31.1860   56.8860  C.3       1 <0>        -0.1524
       9  C7          7.7100   35.8240   58.6670  C.3       1 <0>         0.1981
      10  C8          8.2570   36.2630   57.3080  C.3       1 <0>        -0.1108
      11  C9          7.6640   37.6230   56.9330  C.3       1 <0>        -0.0884
      12  C10         8.7160   38.7140   57.1400  C.3       1 <0>        -0.1487
      13  C11         7.2310   37.6030   55.4650  C.3       1 <0>        -0.1417
      14  C12         8.8210   35.8420   59.6850  C.ar      1 <0>        -0.1026
      15  C13         9.8600   34.9350   59.5910  C.ar      1 <0>        -0.1122
      16  C14        10.8790   34.9510   60.5250  C.ar      1 <0>        -0.1160
      17  C15        10.8600   35.8750   61.5530  C.ar      1 <0>        -0.1193
      18  C16         9.8220   36.7840   61.6460  C.ar      1 <0>        -0.1160
      19  C17         8.8050   36.7710   60.7090  C.ar      1 <0>        -0.1088
      20  O3          6.6750   36.7200   59.0760  O.3       1 <0>        -0.5256
@<TRIPOS>BOND
     1     1     2 1
     2     2     3 1
     3     3     4 1
     4     3     9 1
     5     4     5 2
     6     4     6 1
     7     6     7 1
     8     7     8 1
     9     9    10 1
    10     9    14 1
    11     9    20 1
    12    10    11 1
    13    11    12 1
    14    11    13 1
    15    14    19 ar
    16    14    15 ar
    17    15    16 ar
    18    16    17 ar
    19    17    18 ar
    20    18    19 ar

@<TRIPOS>MOLECULE
ZINC13942151_replica-1.pdb
 28 31 0 0 0
SMALL
GASTEIGER

@<TRIPOS>ATOM
       1  C1          8.3580   38.6590   57.0640  C.3       1 <0>        -0.1674
       2  C2          8.0670   37.1570   57.0790  C.3       1 <0>         0.1543
       3  C3          8.4060   36.5850   58.4570  C.3       1 <0>        -0.0577
       4  C4          9.3150   35.3660   58.2930  C.3       1 <0>        -0.1026
       5  C5          9.6550   34.7940   59.6710  C.3       1 <0>        -0.0859
       6  C6         10.3730   35.8580   60.5030  C.3       1 <0>        -0.1081
       7  C7          9.4650   37.0780   60.6660  C.3       1 <0>        -0.0845
       8  C8          9.1250   37.6500   59.2880  C.3       1 <0>        -0.1014
       9  C9          8.1750   36.6610   61.3760  C.3       1 <0>        -0.1072
      10  C10         7.4560   35.5960   60.5460  C.3       1 <0>        -0.0851
      11  C11         8.3660   34.3770   60.3820  C.3       1 <0>        -0.1088
      12  C12         7.1160   36.1680   59.1680  C.3       1 <0>        -0.1060
      13  N1          6.6490   36.9310   56.7930  N.am      1 <0>        -0.7244
      14  C13         6.2750   36.4110   55.6060  C.2       1 <0>         0.5326
      15  O1          7.1130   36.1300   54.7760  O.2       1 <0>        -0.5218
      16  C14         4.8150   36.1800   55.3110  C.3       1 <0>        -0.1385
      17  S1          4.6130   34.5800   54.4810  S.3       1 <0>        -0.0598
      18  C15         4.8150   33.4000   55.7740  C.2       1 <0>         0.4141
      19  N2          6.0160   32.9200   56.0480  N.2       1 <0>        -0.6071
      20  C16         6.1900   32.0970   57.1110  C.1       1 <0>         0.4201
      21  N3          6.3360   31.4070   58.0010  N.1       1 <0>        -0.5469
      22  N4          3.7290   32.9790   56.4930  N.2       1 <0>        -0.6638
      23  C17         3.0070   33.8940   57.2670  C.ar      1 <0>         0.1828
      24  C18         3.6440   34.6200   58.2640  C.ar      1 <0>        -0.1932
      25  C19         2.9280   35.5220   59.0260  C.ar      1 <0>        -0.0903
      26  C20         1.5760   35.7030   58.7960  C.ar      1 <0>        -0.1906
      27  C21         0.9380   34.9830   57.8040  C.ar      1 <0>        -0.0979
      28  C22         1.6500   34.0820   57.0350  C.ar      1 <0>        -0.1613
@<TRIPOS>BOND
     1     1     2 1
     2     2     3 1
     3     2    13 1
     4     3     8 1
     5     3    12 1
     6     3     4 1
     7     4     5 1
     8     5    11 1
     9     5     6 1
    10     6     7 1
    11     7     8 1
    12     7     9 1
    13     9    10 1
    14    10    11 1
    15    10    12 1
    16    13    14 am
    17    14    15 2
    18    14    16 1
    19    16    17 1
    20    17    18 1
    21    18    19 2
    22    18    22 1
    23    19    20 1
    24    20    21 3
    25    22    23 1
    26    23    28 ar
    27    23    24 ar
    28    24    25 ar
    29    25    26 ar
    30    26    27 ar
    31    27    28 ar

@<TRIPOS>MOLECULE
ZINC49181512_replica-1.pdb
 20 20 0 0 0
SMALL
GASTEIGER

@<TRIPOS>ATOM
       1  C1         15.0990   33.6680   63.8130  C.3       1 <0>        -0.1555
       2  C2         14.1890   33.5540   62.5880  C.3       1 <0>        -0.1155
       3  C3         12.7360   33.4090   63.0450  C.3       1 <0>        -0.0717
       4  C4         12.3880   31.9260   63.1770  C.3       1 <0>        -0.1463
       5  C5         11.8240   34.0510   62.0300  C.2       1 <0>        -0.1185
       6  C6         11.4790   35.3310   62.1610  C.2       1 <0>        -0.1169
       7  C7         11.8880   36.1000   63.3900  C.3       1 <0>        -0.1237
       8  C8         10.7000   35.9910   61.1100  C.2       1 <0>        -0.0715
       9  C9         10.0530   35.2520   60.1860  C.2       1 <0>        -0.1438
      10  C10         9.2720   35.9140   59.1320  C.ar      1 <0>         0.0361
      11  C11         9.1420   37.3000   59.1220  C.ar      1 <0>        -0.1703
      12  C12         8.4040   37.9220   58.1250  C.ar      1 <0>         0.1666
      13  C13         7.7890   37.1720   57.1290  C.ar      1 <0>        -0.1622
      14  C14         7.9040   35.7950   57.1180  C.ar      1 <0>         0.1956
      15  C15         8.6530   35.1450   58.1170  C.ar      1 <0>        -0.2300
      16  C16         8.7790   33.7340   58.1100  C.2       1 <0>         0.3741
      17  O1          7.7880   33.0340   58.1500  O.2       1 <0>        -0.4476
      18  O2          7.3010   35.0700   56.1430  O.3       1 <0>        -0.4732
      19  C17         6.9910   37.8660   56.0560  C.3       1 <0>        -0.1112
      20  O3          8.2820   39.2730   58.1220  O.3       1 <0>        -0.4909
@<TRIPOS>BOND
     1     1     2 1
     2     2     3 1
     3     3     4 1
     4     3     5 1
     5     5     6 2
     6     6     7 1
     7     6     8 1
     8     8     9 2
     9     9    10 1
    10    10    15 ar
    11    10    11 ar
    12    11    12 ar
    13    12    13 ar
    14    12    20 1
    15    13    14 ar
    16    13    19 1
    17    14    15 ar
    18    14    18 1
    19    15    16 1
    20    16    17 2

@<TRIPOS>MOLECULE
ZINC41113276_replica-1.pdb
 21 22 0 0 0
SMALL
GASTEIGER

@<TRIPOS>ATOM
       1  C1          6.7500   37.4190   56.1310  C.3       1 <0>        -0.1664
       2  C2          7.9360   37.2970   57.0900  C.3       1 <0>        -0.0813
       3  C3          8.7780   38.5720   57.0230  C.3       1 <0>        -0.1455
       4  C4          7.4190   37.0990   58.5160  C.3       1 <0>        -0.0575
       5  C5          8.5420   36.6110   59.3940  C.ar      1 <0>        -0.1063
       6  C6          9.3200   35.5430   58.9900  C.ar      1 <0>        -0.0401
       7  C7         10.3500   35.0930   59.7940  C.ar      1 <0>        -0.1538
       8  C8         10.6050   35.7170   61.0070  C.ar      1 <0>         0.1290
       9  C9          9.8230   36.7900   61.4090  C.ar      1 <0>        -0.2113
      10  C10         8.7970   37.2380   60.6000  C.ar      1 <0>        -0.0717
      11  O1         11.6180   35.2770   61.7990  O.3       1 <0>        -0.3183
      12  C11        11.6420   33.8820   62.1060  C.3       1 <0>         0.0272
      13  C12         6.3080   36.0810   58.5110  C.2       1 <0>         0.5178
      14  O2          6.4450   35.0350   57.9130  O.2       1 <0>        -0.5272
      15  N1          5.1600   36.3340   59.1720  N.am      1 <0>        -0.7307
      16  C13         4.0510   35.3790   59.1030  C.3       1 <0>         0.1240
      17  C14         2.8420   36.0500   58.4450  C.3       1 <0>        -0.1051
      18  C15         1.5440   35.3410   58.8800  C.3       1 <0>        -0.1227
      19  C16         0.6560   35.3600   57.6110  C.3       1 <0>        -0.1260
      20  C17         1.6800   35.1160   56.4740  C.3       1 <0>        -0.1262
      21  C18         2.9300   35.9070   56.9150  C.3       1 <0>        -0.1181
@<TRIPOS>BOND
     1     1     2 1
     2     2     3 1
     3     2     4 1
     4     4     5 1
     5     4    13 1
     6     5    10 ar
     7     5     6 ar
     8     6     7 ar
     9     7     8 ar
    10     8     9 ar
    11     8    11 1
    12     9    10 ar
    13    11    12 1
    14    13    14 2
    15    13    15 am
    16    15    16 1
    17    16    17 1
    18    17    21 1
    19    17    18 1
    20    18    19 1
    21    19    20 1
    22    20    21 1

@<TRIPOS>MOLECULE
ZINC37564455_replica-1.pdb
 20 20 0 0 0
SMALL
GASTEIGER

@<TRIPOS>ATOM
       1  C1         12.4220   29.7780   64.6650  C.3       1 <0>        -0.1541
       2  C2         12.8910   30.4430   63.3700  C.3       1 <0>         0.0603
       3  O1         12.4250   31.7940   63.3320  O.3       1 <0>        -0.3451
       4  C3         13.3540   32.7550   63.2160  C.2       1 <0>         0.4610
       5  O2         14.5190   32.4590   63.0930  O.2       1 <0>        -0.5040
       6  C4         12.9440   34.2060   63.2370  C.3       1 <0>         0.1272
       7  N1         12.0260   34.4690   62.1270  N.am      1 <0>        -0.7207
       8  C5         11.4080   35.6640   62.0320  C.2       1 <0>         0.5672
       9  O3         11.6130   36.5210   62.8680  O.2       1 <0>        -0.5252
      10  C6         10.4830   35.9290   60.9150  C.ar      1 <0>        -0.1280
      11  C7         10.3800   35.0180   59.8590  C.ar      1 <0>        -0.0632
      12  C8          9.5190   35.2660   58.8210  C.ar      1 <0>        -0.0890
      13  C9          8.7480   36.4260   58.8180  C.ar      1 <0>        -0.0797
      14  C10         8.8480   37.3370   59.8680  C.ar      1 <0>        -0.1296
      15  C11         9.7020   37.0890   60.9120  C.ar      1 <0>        -0.0303
      16  S1          7.6430   36.7440   57.4820  S.3       1 <0>        -0.0116
      17  C12         7.9530   38.4820   57.0610  C.3       1 <0>         0.4508
      18  F1          9.3320   38.6980   56.9560  F         1 <0>        -0.1610
      19  F2          7.3400   38.7820   55.8400  F         1 <0>        -0.1421
      20  F3          7.4260   39.3050   58.0620  F         1 <0>        -0.1610
@<TRIPOS>BOND
     1     1     2 1
     2     2     3 1
     3     3     4 1
     4     4     5 2
     5     4     6 1
     6     6     7 1
     7     7     8 am
     8     8     9 2
     9     8    10 1
    10    10    15 ar
    11    10    11 ar
    12    11    12 ar
    13    12    13 ar
    14    13    14 ar
    15    13    16 1
    16    14    15 ar
    17    16    17 1
    18    17    18 1
    19    17    19 1
    20    17    20 1

@<TRIPOS>MOLECULE
ZINC49154795_replica-1.pdb
 20 20 0 0 0
SMALL
GASTEIGER

@<TRIPOS>ATOM
       1  C1         16.0910   34.0130   64.8180  C.3       1 <0>        -0.1533
       2  C2         15.1560   32.8460   65.1400  C.3       1 <0>         0.0571
       3  O1         14.7980   32.1740   63.9300  O.3       1 <0>        -0.3886
       4  C3         13.5960   31.4070   64.0240  C.3       1 <0>         0.0536
       5  C4         12.7380   31.6490   62.7800  C.3       1 <0>         0.1176
       6  N1         11.9080   32.8380   62.9830  N.pl3     1 <0>        -1.1107
       7  S1         12.4980   34.3350   62.5980  S.o2      1 <0>         2.6966
       8  O2         12.5350   35.0810   63.8070  O.2       1 <0>        -0.9519
       9  O3         13.6550   34.1230   61.8000  O.2       1 <0>        -0.9509
      10  C5         11.3070   35.1160   61.5610  C.ar      1 <0>        -0.6729
      11  C6         10.8530   36.3850   61.8680  C.ar      1 <0>        -0.0006
      12  C7          9.9180   37.0000   61.0570  C.ar      1 <0>        -0.1046
      13  C8          9.4360   36.3410   59.9320  C.ar      1 <0>        -0.0524
      14  C9          9.8960   35.0660   59.6280  C.ar      1 <0>        -0.1446
      15  C10        10.8340   34.4600   60.4390  C.ar      1 <0>         0.0095
      16  S2          8.2440   37.1220   58.8950  S.3       1 <0>        -0.0070
      17  C11         6.6700   36.8530   59.7560  C.3       1 <0>         0.4505
      18  F1          6.0660   38.0870   60.0200  F         1 <0>        -0.1601
      19  F2          5.8250   36.0820   58.9510  F         1 <0>        -0.1406
      20  F3          6.9070   36.1820   60.9600  F         1 <0>        -0.1605
@<TRIPOS>BOND
     1     1     2 1
     2     2     3 1
     3     3     4 1
     4     4     5 1
     5     5     6 1
     6     6     7 1
     7     7     8 2
     8     7     9 2
     9     7    10 1
    10    10    15 ar
    11    10    11 ar
    12    11    12 ar
    13    12    13 ar
    14    13    14 ar
    15    13    16 1
    16    14    15 ar
    17    16    17 1
    18    17    18 1
    19    17    19 1
    20    17    20 1

@<TRIPOS>MOLECULE
ZINC49912760_replica-1.pdb
 21 22 0 0 0
SMALL
GASTEIGER

@<TRIPOS>ATOM
       1  C1         13.6200   34.2590   61.9460  C.3       1 <0>        -0.1392
       2  C2         12.2300   34.4200   62.5650  C.3       1 <0>        -0.0321
       3  C3         11.6860   33.0460   62.9630  C.3       1 <0>        -0.1393
       4  C4         12.3240   35.3090   63.8060  C.3       1 <0>        -0.1461
       5  C5         11.3030   35.0550   61.5600  C.ar      1 <0>        -0.0600
       6  C6         10.8150   36.3300   61.7830  C.ar      1 <0>        -0.1242
       7  C7          9.9660   36.9170   60.8660  C.ar      1 <0>        -0.0814
       8  C8          9.6010   36.2220   59.7150  C.ar      1 <0>        -0.0315
       9  C9         10.0950   34.9380   59.4950  C.ar      1 <0>        -0.0993
      10  C10        10.9480   34.3630   60.4160  C.ar      1 <0>        -0.1166
      11  C11         8.6880   36.8470   58.7260  C.2       1 <0>         0.1085
      12  C12         8.7730   38.1750   58.4060  C.2       1 <0>        -0.2229
      13  S1          7.4560   38.3090   57.2080  S.3       1 <0>         0.1192
      14  C13         6.9460   36.7070   57.2380  C.2       1 <0>         0.0560
      15  N1          7.7510   36.1470   58.1040  N.2       1 <0>        -0.5031
      16  C14         5.8320   36.0670   56.4500  C.3       1 <0>        -0.0196
      17  C15         6.4250   35.2410   55.3070  C.3       1 <0>        -0.1091
      18  C16         6.0800   33.7870   55.5050  C.2       1 <0>         0.4635
      19  O1          4.9260   33.4520   55.6310  O.2       1 <0>        -0.5031
      20  O2          7.0550   32.8650   55.5430  O.3       1 <0>        -0.3531
      21  C17         7.7950   32.7530   56.7600  C.3       1 <0>         0.0326
@<TRIPOS>BOND
     1     1     2 1
     2     2     3 1
     3     2     4 1
     4     2     5 1
     5     5    10 ar
     6     5     6 ar
     7     6     7 ar
     8     7     8 ar
     9     8     9 ar
    10     8    11 1
    11     9    10 ar
    12    11    15 1
    13    11    12 2
    14    12    13 1
    15    13    14 1
    16    14    15 2
    17    14    16 1
    18    16    17 1
    19    17    18 1
    20    18    19 2
    21    18    20 1
    22    20    21 1

@<TRIPOS>MOLECULE
ZINC43614623_replica-1.pdb
 19 20 0 0 0
SMALL
GASTEIGER

@<TRIPOS>ATOM
       1  C1         17.1510   34.5240   64.5170  C.3       1 <0>        -0.1530
       2  C2         15.7350   33.9890   64.7400  C.3       1 <0>         0.0590
       3  O1         15.0730   33.8520   63.4810  O.3       1 <0>        -0.3466
       4  C3         14.0590   32.9750   63.4180  C.2       1 <0>         0.4723
       5  O2         14.2800   31.7900   63.4860  O.2       1 <0>        -0.5050
       6  C4         12.6440   33.4710   63.2610  C.3       1 <0>        -0.0820
       7  C5         11.6990   32.2780   63.1110  C.3       1 <0>        -0.1444
       8  C6         12.5500   34.3540   62.0150  C.3       1 <0>         0.0752
       9  O3         11.3780   34.0090   61.2730  O.3       1 <0>        -0.3122
      10  C7         10.6550   35.0330   60.7490  C.ar      1 <0>         0.1285
      11  C8         10.4910   36.2090   61.4660  C.ar      1 <0>        -0.2067
      12  C9          9.7530   37.2420   60.9270  C.ar      1 <0>        -0.0795
      13  C10         9.1750   37.1160   59.6700  C.ar      1 <0>        -0.1122
      14  C11         9.3410   35.9520   58.9530  C.ar      1 <0>        -0.0366
      15  C12        10.0840   34.9110   59.4940  C.ar      1 <0>        -0.1533
      16  C13         8.7550   35.7540   57.5800  C.3       1 <0>        -0.0823
      17  C14         7.6480   36.7720   57.3160  C.3       1 <0>        -0.1204
      18  C15         8.1910   38.1700   57.6360  C.3       1 <0>        -0.1210
      19  C16         8.3760   38.2810   59.1470  C.3       1 <0>        -0.0772
@<TRIPOS>BOND
     1     1     2 1
     2     2     3 1
     3     3     4 1
     4     4     5 2
     5     4     6 1
     6     6     7 1
     7     6     8 1
     8     8     9 1
     9     9    10 1
    10    10    15 ar
    11    10    11 ar
    12    11    12 ar
    13    12    13 ar
    14    13    19 1
    15    13    14 ar
    16    14    15 ar
    17    14    16 1
    18    16    17 1
    19    17    18 1
    20    18    19 1

@<TRIPOS>MOLECULE
ZINC04319838_replica-1.pdb
 21 21 0 0 0
SMALL
GASTEIGER

@<TRIPOS>ATOM
       1  C1          5.3760   33.1010   57.6880  C.3       1 <0>        -0.1543
       2  C2          4.7340   32.9140   56.3120  C.3       1 <0>        -0.1324
       3  C3          3.6190   33.9450   56.1260  C.3       1 <0>         0.1451
       4  C4          3.8500   34.7180   54.8260  C.3       1 <0>        -0.1360
       5  C5          5.1810   34.2880   54.2060  C.3       1 <0>        -0.1468
       6  N1          2.3250   33.2590   56.0620  N.am      1 <0>        -0.7202
       7  C6          1.5070   33.2610   57.1320  C.2       1 <0>         0.5155
       8  O1          1.8420   33.8310   58.1500  O.2       1 <0>        -0.5079
       9  C7          0.1770   32.5550   57.0670  C.3       1 <0>         0.0469
      10  O2         -0.0140   32.0190   55.7570  O.3       1 <0>        -0.3238
      11  C8         -1.0040   31.1160   55.6030  C.2       1 <0>         0.5016
      12  O3         -2.1150   31.3510   56.0380  O.2       1 <0>        -0.5119
      13  C9         -0.7400   29.8510   54.9180  C.2       1 <0>        -0.1999
      14  C10        -1.4290   29.5300   53.8030  C.2       1 <0>         0.0058
      15  C11        -1.1630   28.2570   53.1140  C.ar      1 <0>        -0.0942
      16  C12        -1.6950   28.0230   51.8430  C.ar      1 <0>        -0.0895
      17  C13        -1.4370   26.8300   51.2010  C.ar      1 <0>        -0.1249
      18  C14        -0.6640   25.8610   51.8170  C.ar      1 <0>        -0.0661
      19  C15        -0.1400   26.0840   53.0790  C.ar      1 <0>        -0.1261
      20  C16        -0.3830   27.2730   53.7310  C.ar      1 <0>        -0.0835
      21  C17        -0.3910   24.5580   51.1110  C.3       1 <0>        -0.1211
@<TRIPOS>BOND
     1     1     2 1
     2     2     3 1
     3     3     4 1
     4     3     6 1
     5     4     5 1
     6     6     7 am
     7     7     8 2
     8     7     9 1
     9     9    10 1
    10    10    11 1
    11    11    12 2
    12    11    13 1
    13    13    14 2
    14    14    15 1
    15    15    20 ar
    16    15    16 ar
    17    16    17 ar
    18    17    18 ar
    19    18    19 ar
    20    18    21 1
    21    19    20 ar

@<TRIPOS>MOLECULE
ZINC36994597_replica-1.pdb
 18 19 0 0 0
SMALL
GASTEIGER

@<TRIPOS>ATOM
       1  C1         -2.8120   28.7600   56.3920  C.3       1 <0>        -0.1450
       2  C2         -1.3970   28.5320   56.9300  C.3       1 <0>        -0.0754
       3  C3         -1.2300   29.2780   58.2550  C.3       1 <0>        -0.1730
       4  C4         -1.1720   27.0360   57.1550  C.3       1 <0>        -0.1660
       5  C5         -0.3760   29.0560   55.9170  C.3       1 <0>         0.0855
       6  C6         -0.5170   28.2950   54.6230  C.ar      1 <0>        -0.1371
       7  C7         -1.2700   28.8230   53.5910  C.ar      1 <0>        -0.1234
       8  C8         -1.3980   28.1270   52.4030  C.ar      1 <0>        -0.1032
       9  C9         -0.7730   26.9040   52.2480  C.ar      1 <0>        -0.0912
      10  C10        -0.0190   26.3770   53.2810  C.ar      1 <0>        -0.1047
      11  C11         0.1130   27.0750   54.4660  C.ar      1 <0>        -0.0868
      12  N1         -0.6160   30.4840   55.6760  N.4       1 <0>        -0.5103
      13  C12         0.6700   31.1870   55.5800  C.3       1 <0>         0.0910
      14  C13         0.6630   32.3760   56.5060  C.2       1 <0>        -0.1152
      15  C14        -0.2080   32.5860   57.5090  C.2       1 <0>        -0.1368
      16  C15         0.1520   33.8140   58.1120  C.2       1 <0>        -0.2200
      17  C16         1.2200   34.2800   57.4410  C.2       1 <0>         0.0166
      18  O1          1.5290   33.4020   56.4730  O.3       1 <0>        -0.1677
@<TRIPOS>BOND
     1     1     2 1
     2     2     3 1
     3     2     4 1
     4     2     5 1
     5     5     6 1
     6     5    12 1
     7     6    11 ar
     8     6     7 ar
     9     7     8 ar
    10     8     9 ar
    11     9    10 ar
    12    10    11 ar
    13    12    13 1
    14    13    14 1
    15    14    18 1
    16    14    15 2
    17    15    16 1
    18    16    17 2
    19    17    18 1

@<TRIPOS>MOLECULE
ZINC42328355_replica-1.pdb
 19 21 0 0 0
SMALL
GASTEIGER

@<TRIPOS>ATOM
       1  C1         -0.8070   25.0000   51.7620  C.3       1 <0>        -0.1445
       2  C2         -0.6750   26.5140   51.5900  C.3       1 <0>        -0.0507
       3  C3         -1.9670   27.0740   50.9910  C.3       1 <0>        -0.1441
       4  C4         -0.4260   27.1520   52.9320  C.ar      1 <0>        -0.1309
       5  C5         -0.9190   28.4170   53.1980  C.ar      1 <0>        -0.0660
       6  C6         -0.6930   29.0040   54.4270  C.ar      1 <0>        -0.1890
       7  C7          0.0300   28.3220   55.3980  C.ar      1 <0>         0.2125
       8  C8          0.5240   27.0520   55.1280  C.ar      1 <0>        -0.1927
       9  C9          0.2890   26.4690   53.8990  C.ar      1 <0>        -0.0699
      10  N1          0.2600   28.9130   56.6430  N.pl3     1 <0>        -0.7408
      11  C10        -0.7960   29.6980   57.2880  C.3       1 <0>         0.2660
      12  C11        -0.2200   30.9960   57.7920  C.2       1 <0>        -0.1511
      13  C12        -0.2710   32.2280   57.2300  C.2       1 <0>        -0.1551
      14  C13         0.3350   33.2870   57.8810  C.2       1 <0>        -0.1559
      15  C14         0.9620   33.0610   59.0610  C.2       1 <0>        -0.1780
      16  S1          0.7010   31.3110   59.2900  S.3       1 <0>         0.0499
      17  C15        -1.3750   28.9060   58.4610  C.3       1 <0>        -0.1658
      18  C16        -0.9190   27.4550   58.6290  C.3       1 <0>        -0.1744
      19  C17        -2.3340   27.7600   58.1350  C.3       1 <0>        -0.1657
@<TRIPOS>BOND
     1     1     2 1
     2     2     3 1
     3     2     4 1
     4     4     9 ar
     5     4     5 ar
     6     5     6 ar
     7     6     7 ar
     8     7     8 ar
     9     7    10 1
    10     8     9 ar
    11    10    11 1
    12    11    12 1
    13    11    17 1
    14    12    16 1
    15    12    13 2
    16    13    14 1
    17    14    15 2
    18    15    16 1
    19    17    19 1
    20    17    18 1
    21    18    19 1

@<TRIPOS>MOLECULE
ZINC62765800_replica-1.pdb
 19 20 0 0 0
SMALL
GASTEIGER

@<TRIPOS>ATOM
       1  C1         13.6680   34.1660   61.7190  C.3       1 <0>        -0.1378
       2  C2         12.3640   34.2930   62.5090  C.3       1 <0>        -0.0264
       3  C3         11.7920   32.8990   62.7780  C.3       1 <0>        -0.1388
       4  C4         12.6390   34.9960   63.8390  C.3       1 <0>        -0.1431
       5  C5         11.3710   35.0980   61.7110  C.ar      1 <0>        -0.0878
       6  C6         10.9450   36.3280   62.1790  C.ar      1 <0>        -0.1056
       7  C7         10.0350   37.0680   61.4510  C.ar      1 <0>        -0.1056
       8  C8          9.5460   36.5760   60.2470  C.ar      1 <0>        -0.0728
       9  C9          9.9760   35.3400   59.7800  C.ar      1 <0>        -0.1323
      10  C10        10.8900   34.6080   60.5100  C.ar      1 <0>        -0.0957
      11  S1          8.3840   37.5160   59.3150  S.3       1 <0>        -0.1380
      12  C11         8.3410   36.6880   57.7020  C.3       1 <0>        -0.0452
      13  C12         8.3780   37.7340   56.5690  C.3       1 <0>        -0.1146
      14  C13         7.4420   37.1510   55.4820  C.3       1 <0>        -0.1151
      15  C14         6.3030   36.5160   56.3170  C.3       1 <0>        -0.0975
      16  C15         7.0230   35.9120   57.5420  C.3       1 <0>        -0.1378
      17  C16         7.3080   34.4510   57.3060  C.2       1 <0>         0.5045
      18  O1          6.4530   33.6160   57.5480  O.co2     1 <0>        -0.6951
      19  O2          8.3940   34.1040   56.8740  O.co2     1 <0>        -0.6910
@<TRIPOS>BOND
     1     1     2 1
     2     2     3 1
     3     2     4 1
     4     2     5 1
     5     5    10 ar
     6     5     6 ar
     7     6     7 ar
     8     7     8 ar
     9     8     9 ar
    10     8    11 1
    11     9    10 ar
    12    11    12 1
    13    12    16 1
    14    12    13 1
    15    13    14 1
    16    14    15 1
    17    15    16 1
    18    16    17 1
    19    17    18 2
    20    17    19 1

@<TRIPOS>MOLECULE
ZINC61123312_replica-1.pdb
 21 23 0 0 0
SMALL
GASTEIGER

@<TRIPOS>ATOM
       1  C1          2.1540   29.8010   58.8650  C.3       1 <0>        -0.1564
       2  C2          1.4110   28.4850   59.1050  C.3       1 <0>        -0.0845
       3  C3          0.0780   28.7720   59.7990  C.3       1 <0>        -0.1172
       4  C4         -0.7730   29.6840   58.9150  C.3       1 <0>        -0.1182
       5  C5         -1.0340   28.9940   57.5740  C.3       1 <0>        -0.0693
       6  C6          0.2980   28.7080   56.8790  C.3       1 <0>         0.1873
       7  C7          1.1490   27.7960   57.7640  C.3       1 <0>        -0.1432
       8  C8          0.0410   28.0300   55.5590  C.ar      1 <0>        -0.0951
       9  C9          0.5600   26.7960   55.3080  C.ar      1 <0>        -0.0978
      10  C10         0.3310   26.1530   54.0930  C.ar      1 <0>        -0.1214
      11  C11        -0.4190   26.7380   53.1190  C.ar      1 <0>        -0.0839
      12  C12        -0.9700   28.0090   53.3400  C.ar      1 <0>        -0.1149
      13  C13        -0.7410   28.6610   54.5800  C.ar      1 <0>        -0.0027
      14  C14        -1.3100   29.9320   54.7790  C.ar      1 <0>        -0.1486
      15  C15        -2.0560   30.4770   53.7790  C.ar      1 <0>         0.0705
      16  N1         -2.2590   29.8440   52.6320  N.ar      1 <0>        -0.4865
      17  C16        -1.7510   28.6630   52.3730  C.ar      1 <0>         0.1418
      18  O1          0.9920   29.9370   56.6550  O.3       1 <0>        -0.5413
      19  C17        -1.7770   27.6790   57.8140  C.3       1 <0>        -0.0886
      20  C18        -2.0840   27.5300   59.3050  C.3       1 <0>        -0.1499
      21  C19        -3.0870   27.6810   57.0230  C.3       1 <0>        -0.1681
@<TRIPOS>BOND
     1     1     2 1
     2     2     7 1
     3     2     3 1
     4     3     4 1
     5     4     5 1
     6     5     6 1
     7     5    19 1
     8     6     7 1
     9     6     8 1
    10     6    18 1
    11     8    13 ar
    12     8     9 ar
    13     9    10 ar
    14    10    11 ar
    15    11    12 ar
    16    12    17 ar
    17    12    13 ar
    18    13    14 ar
    19    14    15 ar
    20    15    16 ar
    21    16    17 ar
    22    19    20 1
    23    19    21 1

@<TRIPOS>MOLECULE
ZINC04667906_replica-1.pdb
 25 28 0 0 0
SMALL
GASTEIGER

@<TRIPOS>ATOM
       1  C1          9.8840   35.1080   58.9950  C.3       1 <0>        -0.1439
       2  C2          9.7040   34.7190   60.4630  C.3       1 <0>        -0.1255
       3  C3          9.1700   33.3050   60.5470  C.3       1 <0>        -0.0975
       4  C4          7.8740   33.2450   59.7140  C.3       1 <0>        -0.1142
       5  C5          6.8690   34.2840   60.1950  C.3       1 <0>        -0.0477
       6  C6          5.5970   34.2570   59.3990  C.ar      1 <0>        -0.0475
       7  C7          5.1460   33.0350   58.9200  C.ar      1 <0>        -0.1075
       8  C8          3.9700   32.9510   58.2040  C.ar      1 <0>        -0.0843
       9  C9          3.2320   34.1000   57.9590  C.ar      1 <0>         0.0815
      10  C10         3.6890   35.3210   58.4260  C.ar      1 <0>        -0.0992
      11  C11         4.8710   35.4040   59.1490  C.ar      1 <0>        -0.0643
      12  C12         5.3080   36.7670   59.6190  C.3       1 <0>        -0.0792
      13  C13         6.3890   36.6610   60.6940  C.3       1 <0>        -0.1137
      14  C14         7.4660   35.6970   60.1960  C.3       1 <0>        -0.0734
      15  C15         8.6650   35.6690   61.1220  C.3       1 <0>        -0.0782
      16  C16         9.4730   36.9700   61.2100  C.3       1 <0>        -0.1132
      17  C17        10.8760   36.4670   61.6460  C.3       1 <0>        -0.1758
      18  C18        10.9710   35.0080   61.2120  C.2       1 <0>         0.3805
      19  O1         11.8800   34.2430   61.4250  O.2       1 <0>        -0.4375
      20  O2          2.0710   34.0290   57.2580  O.3       1 <0>        -0.2549
      21  C19         1.0850   33.2730   57.7820  C.2       1 <0>         0.4879
      22  S1          0.4300   33.6650   59.3150  S.2       1 <0>        -0.5970
      23  N1          0.6200   32.2060   57.1030  N.pl3     1 <0>        -0.5313
      24  C20        -0.4470   31.3820   57.6760  C.3       1 <0>         0.0723
      25  C21         1.1810   31.8710   55.7920  C.3       1 <0>         0.0574
@<TRIPOS>BOND
     1     1     2 1
     2     2    15 1
     3     2    18 1
     4     2     3 1
     5     3     4 1
     6     4     5 1
     7     5    14 1
     8     5     6 1
     9     6    11 ar
    10     6     7 ar
    11     7     8 ar
    12     8     9 ar
    13     9    10 ar
    14     9    20 1
    15    10    11 ar
    16    11    12 1
    17    12    13 1
    18    13    14 1
    19    14    15 1
    20    15    16 1
    21    16    17 1
    22    17    18 1
    23    18    19 2
    24    20    21 1
    25    21    22 2
    26    21    23 1
    27    23    24 1
    28    23    25 1

@<TRIPOS>MOLECULE
ZINC57707697_replica-1.pdb
 18 19 0 0 0
SMALL
GASTEIGER

@<TRIPOS>ATOM
       1  C1         12.6450   31.1370   63.2400  C.3       1 <0>        -0.1569
       2  C2         11.9840   32.4730   62.8930  C.3       1 <0>        -0.1174
       3  C3         12.9620   33.6150   63.1720  C.3       1 <0>        -0.1047
       4  C4         14.3900   33.0650   63.2070  C.3       1 <0>        -0.1532
       5  C5         12.8480   34.6670   62.0670  C.3       1 <0>         0.1155
       6  N1         11.6170   35.4390   62.2530  N.pl3     1 <0>        -0.7215
       7  C6         10.7600   35.6600   61.1730  C.ar      1 <0>         0.2652
       8  C7         10.6200   34.6910   60.1870  C.ar      1 <0>        -0.1838
       9  C8          9.7710   34.9130   59.1210  C.ar      1 <0>        -0.0344
      10  C9          9.0620   36.0960   59.0320  C.ar      1 <0>        -0.1287
      11  C10         9.1990   37.0620   60.0130  C.ar      1 <0>        -0.0347
      12  C11        10.0410   36.8460   61.0850  C.ar      1 <0>        -0.1807
      13  N2          8.2040   36.3170   57.9510  N.4       1 <0>        -0.3054
      14  C12         8.3760   35.2420   56.9650  C.3       1 <0>        -0.0059
      15  C13         7.3820   35.4330   55.8180  C.3       1 <0>        -0.1463
      16  C14         7.6360   36.7880   55.1490  C.3       1 <0>        -0.1390
      17  C15         7.5270   37.8940   56.2020  C.3       1 <0>        -0.1463
      18  C16         8.5160   37.6110   57.3360  C.3       1 <0>        -0.0057
@<TRIPOS>BOND
     1     1     2 1
     2     2     3 1
     3     3     4 1
     4     3     5 1
     5     5     6 1
     6     6     7 1
     7     7    12 ar
     8     7     8 ar
     9     8     9 ar
    10     9    10 ar
    11    10    11 ar
    12    10    13 1
    13    11    12 ar
    14    13    18 1
    15    13    14 1
    16    14    15 1
    17    15    16 1
    18    16    17 1
    19    17    18 1

@<TRIPOS>MOLECULE
ZINC02526560_replica-1.pdb
 21 21 0 0 0
SMALL
GASTEIGER

@<TRIPOS>ATOM
       1  C1          9.0900   37.0690   59.6080  C.3       1 <0>        -0.1459
       2  C2          7.9660   37.4430   58.6400  C.3       1 <0>        -0.0206
       3  C3          7.1830   38.6320   59.2010  C.3       1 <0>        -0.1413
       4  C4          8.5650   37.8210   57.2840  C.3       1 <0>        -0.1417
       5  C5          7.0390   36.2670   58.4680  C.ar      1 <0>        -0.0899
       6  C6          5.6720   36.4440   58.5610  C.ar      1 <0>        -0.1072
       7  C7          4.8200   35.3660   58.4040  C.ar      1 <0>        -0.0771
       8  C8          5.3350   34.1070   58.1530  C.ar      1 <0>        -0.1072
       9  C9          6.7010   33.9250   58.0570  C.ar      1 <0>        -0.0901
      10  C10         7.5570   35.0060   58.2100  C.ar      1 <0>         0.1112
      11  O1          8.9010   34.8300   58.1110  O.3       1 <0>        -0.4862
      12  C11         7.2610   32.5520   57.7830  C.3       1 <0>        -0.0206
      13  C12         6.1110   31.5560   57.6180  C.3       1 <0>        -0.1458
      14  C13         8.0930   32.5880   56.5000  C.3       1 <0>        -0.1415
      15  C14         8.1470   32.1200   58.9540  C.3       1 <0>        -0.1415
      16  C15         3.3310   35.5630   58.5070  C.3       1 <0>        -0.0714
      17  C16         2.6990   35.4150   57.1220  C.3       1 <0>        -0.0558
      18  C17         3.5270   36.1950   56.0990  C.3       1 <0>        -0.1398
      19  C18         2.6670   33.9370   56.7310  C.3       1 <0>        -0.1398
      20  C19         1.2710   35.9660   57.1500  C.3       1 <0>         0.0850
      21  O2          0.5240   35.4080   56.0670  O.3       1 <0>        -0.5687
@<TRIPOS>BOND
     1     1     2 1
     2     2     3 1
     3     2     4 1
     4     2     5 1
     5     5    10 ar
     6     5     6 ar
     7     6     7 ar
     8     7     8 ar
     9     7    16 1
    10     8     9 ar
    11     9    10 ar
    12     9    12 1
    13    10    11 1
    14    12    13 1
    15    12    14 1
    16    12    15 1
    17    16    17 1
    18    17    18 1
    19    17    19 1
    20    17    20 1
    21    20    21 1

@<TRIPOS>MOLECULE
ZINC40795300_replica-1.pdb
 18 19 0 0 0
SMALL
GASTEIGER

@<TRIPOS>ATOM
       1  C1          0.5150   27.5540   55.8360  C.3       1 <0>        -0.1719
       2  C2         -0.2770   28.5280   54.9610  C.3       1 <0>         0.1760
       3  C3         -0.6260   27.8610   53.6560  C.ar      1 <0>        -0.1191
       4  C4         -0.1790   26.5800   53.3920  C.ar      1 <0>        -0.1173
       5  C5         -0.5000   25.9680   52.1950  C.ar      1 <0>        -0.1092
       6  C6         -1.2670   26.6370   51.2600  C.ar      1 <0>        -0.1001
       7  C7         -1.7140   27.9190   51.5230  C.ar      1 <0>        -0.1073
       8  C8         -1.3980   28.5290   52.7230  C.ar      1 <0>        -0.0965
       9  N1          0.5340   29.7190   54.6990  N.pl3     1 <0>        -0.6239
      10  C9          0.6110   30.7190   55.6400  C.cat     1 <0>         0.4816
      11  N2          1.6650   31.4070   55.9770  N.pl3     1 <0>        -0.6382
      12  C10         1.6040   32.4230   57.0110  C.3       1 <0>         0.1041
      13  C11         0.1390   32.8640   57.2750  C.3       1 <0>        -0.1065
      14  S1         -0.7150   31.3550   56.6520  S.3       1 <0>         0.0273
      15  C12         2.4220   33.6390   56.5710  C.3       1 <0>        -0.1304
      16  C13         2.2120   34.7810   57.5680  C.3       1 <0>        -0.0993
      17  C14         3.1210   34.5720   58.7800  C.3       1 <0>        -0.1535
      18  C15         2.5560   36.1120   56.8960  C.3       1 <0>        -0.1602
@<TRIPOS>BOND
     1     1     2 1
     2     2     3 1
     3     2     9 1
     4     3     8 ar
     5     3     4 ar
     6     4     5 ar
     7     5     6 ar
     8     6     7 ar
     9     7     8 ar
    10     9    10 1
    11    10    14 1
    12    10    11 2
    13    11    12 1
    14    12    13 1
    15    12    15 1
    16    13    14 1
    17    15    16 1
    18    16    17 1
    19    16    18 1

@<TRIPOS>MOLECULE
ZINC37054549_replica-1.pdb
 21 22 0 0 0
SMALL
GASTEIGER

@<TRIPOS>ATOM
       1  C1         16.1140   33.2150   65.4620  C.3       1 <0>        -0.1720
       2  C2         15.9910   34.1320   64.2430  C.3       1 <0>         0.1473
       3  C3         17.3550   34.7510   63.9320  C.3       1 <0>        -0.1237
       4  C4         18.1940   34.8060   65.2100  C.3       1 <0>        -0.0385
       5  C5         19.1580   35.9610   65.1290  C.2       1 <0>        -0.0139
       6  C6         19.6360   36.6630   66.1720  C.2       1 <0>        -0.2097
       7  C7         20.5030   37.6470   65.6420  C.2       1 <0>        -0.2138
       8  C8         20.5030   37.4870   64.3060  C.2       1 <0>        -0.0419
       9  O1         19.6910   36.4610   64.0020  O.3       1 <0>        -0.1765
      10  N1         15.5320   33.3530   63.0900  N.pl3     1 <0>        -0.7392
      11  C9         14.1670   33.1140   62.9070  C.ar      1 <0>         0.1984
      12  C10        13.6140   31.9010   63.3040  C.ar      1 <0>        -0.1341
      13  C11        12.2660   31.6590   63.1250  C.ar      1 <0>        -0.1152
      14  C12        11.4560   32.6200   62.5500  C.ar      1 <0>         0.1049
      15  C13        12.0030   33.8430   62.1470  C.ar      1 <0>        -0.1142
      16  C14        13.3650   34.0880   62.3340  C.ar      1 <0>        -0.1139
      17  C15        11.1430   34.8730   61.5320  C.2       1 <0>         0.5045
      18  O2         11.1390   36.0040   61.9750  O.2       1 <0>        -0.4874
      19  O3         10.3630   34.5580   60.4790  O.3       1 <0>        -0.3488
      20  C16         9.9460   35.6360   59.6370  C.3       1 <0>         0.0343
      21  F1         10.1380   32.3800   62.3760  F         1 <0>        -0.1206
@<TRIPOS>BOND
     1     1     2 1
     2     2     3 1
     3     2    10 1
     4     3     4 1
     5     4     5 1
     6     5     9 1
     7     5     6 2
     8     6     7 1
     9     7     8 2
    10     8     9 1
    11    10    11 1
    12    11    16 ar
    13    11    12 ar
    14    12    13 ar
    15    13    14 ar
    16    14    15 ar
    17    14    21 1
    18    15    16 ar
    19    15    17 1
    20    17    18 2
    21    17    19 1
    22    19    20 1

@<TRIPOS>MOLECULE
ZINC61630206_replica-1.pdb
 20 20 0 0 0
SMALL
GASTEIGER

@<TRIPOS>ATOM
       1  C1          8.0390   31.4070   57.7310  C.3       1 <0>        -0.1701
       2  C2          7.3920   32.7930   57.7780  C.3       1 <0>         0.1445
       3  C3          6.2050   32.8330   56.8130  C.3       1 <0>         0.0469
       4  O1          6.6450   33.2940   55.5350  O.3       1 <0>        -0.3874
       5  C4          5.6070   33.8540   54.7290  C.3       1 <0>         0.0295
       6  N1          8.3750   33.8050   57.3860  N.pl3     1 <0>        -0.7263
       7  C5          8.8850   34.6910   58.3390  C.ar      1 <0>         0.3107
       8  C6          9.6530   34.2110   59.3940  C.ar      1 <0>        -0.1822
       9  C7         10.1570   35.0880   60.3340  C.ar      1 <0>        -0.0335
      10  C8          9.8970   36.4440   60.2270  C.ar      1 <0>         0.0291
      11  C9          9.1340   36.9240   59.1770  C.ar      1 <0>        -0.0004
      12  C10         8.6320   36.0520   58.2320  C.ar      1 <0>        -0.7094
      13  S1          7.6650   36.6640   56.8910  S.o2      1 <0>         2.4867
      14  O2          8.3030   36.1620   55.7250  O.2       1 <0>        -0.8575
      15  O3          6.3310   36.2890   57.2060  O.2       1 <0>        -0.8574
      16  C11         7.8430   38.4680   56.9730  C.3       1 <0>        -0.0268
      17  F1          7.1110   39.0550   55.9350  F         1 <0>        -0.1477
      18  F2          7.3610   38.9290   58.2020  F         1 <0>        -0.1558
      19  F3          9.1940   38.8080   56.8420  F         1 <0>        -0.1514
      20  F4         10.3910   37.3000   61.1490  F         1 <0>        -0.1334
@<TRIPOS>BOND
     1     1     2 1
     2     2     3 1
     3     2     6 1
     4     3     4 1
     5     4     5 1
     6     6     7 1
     7     7    12 ar
     8     7     8 ar
     9     8     9 ar
    10     9    10 ar
    11    10    11 ar
    12    10    20 1
    13    11    12 ar
    14    12    13 1
    15    13    14 2
    16    13    15 2
    17    13    16 1
    18    16    17 1
    19    16    18 1
    20    16    19 1

@<TRIPOS>MOLECULE
ZINC27532467_replica-1.pdb
 18 19 0 0 0
SMALL
GASTEIGER

@<TRIPOS>ATOM
       1  C1         -0.5490   24.7730   51.4680  C.3       1 <0>        -0.1143
       2  C2         -0.7550   26.1490   52.0480  C.ar      1 <0>        -0.1211
       3  C3         -0.2090   26.4690   53.2770  C.ar      1 <0>        -0.0804
       4  C4         -0.3960   27.7300   53.8100  C.ar      1 <0>        -0.1449
       5  C5         -1.1340   28.6750   53.1110  C.ar      1 <0>         0.1219
       6  C6         -1.6800   28.3510   51.8780  C.ar      1 <0>        -0.2033
       7  C7         -1.4900   27.0890   51.3500  C.ar      1 <0>        -0.0806
       8  O1         -1.3190   29.9160   53.6340  O.3       1 <0>        -0.3080
       9  C8         -2.4670   30.1050   54.4630  C.3       1 <0>         0.0756
      10  C9         -2.0440   30.7680   55.7760  C.3       1 <0>        -0.1271
      11  S1         -0.3980   31.5030   55.5800  S.3       1 <0>         0.0803
      12  C10        -0.0060   32.1050   57.1880  C.2       1 <0>         0.0498
      13  N1         -0.0710   33.3360   57.6580  N.2       1 <0>        -0.2967
      14  N2          0.2830   33.5900   58.9630  N.2       1 <0>        -0.3017
      15  C11         0.6970   32.6040   59.7340  C.2       1 <0>         0.0548
      16  S2          0.5950   31.2150   58.6160  S.3       1 <0>         0.0716
      17  S3          1.2110   32.6440   61.4200  S.3       1 <0>         0.0587
      18  C12        -0.1580   33.4710   62.2760  C.3       1 <0>        -0.1552
@<TRIPOS>BOND
     1     1     2 1
     2     2     7 ar
     3     2     3 ar
     4     3     4 ar
     5     4     5 ar
     6     5     6 ar
     7     5     8 1
     8     6     7 ar
     9     8     9 1
    10     9    10 1
    11    10    11 1
    12    11    12 1
    13    12    16 1
    14    12    13 2
    15    13    14 1
    16    14    15 2
    17    15    16 1
    18    15    17 1
    19    17    18 1

@<TRIPOS>MOLECULE
ZINC37876053_replica-1.pdb
 19 20 0 0 0
SMALL
GASTEIGER

@<TRIPOS>ATOM
       1  C1         10.3100   34.8480   60.3010  C.ar      1 <0>        -0.0630
       2  C2         10.4310   36.1320   60.7990  C.ar      1 <0>        -0.1576
       3  C3          9.5480   37.1190   60.4020  C.ar      1 <0>        -0.0728
       4  C4          8.5350   36.8210   59.5020  C.ar      1 <0>        -0.1689
       5  C5          8.4120   35.5260   59.0000  C.ar      1 <0>         0.2471
       6  C6          9.3030   34.5430   59.4040  C.ar      1 <0>        -0.1824
       7  N1          7.3920   35.2190   58.0910  N.pl3     1 <0>        -0.7424
       8  C7          7.7250   34.8350   56.7180  C.3       1 <0>         0.0966
       9  C8          6.5960   35.2630   55.7800  C.3       1 <0>         0.1273
      10  C9          5.5020   35.9660   56.5870  C.3       1 <0>        -0.1447
      11  C10         4.3720   36.3940   55.6490  C.3       1 <0>        -0.1160
      12  C11         3.7850   35.1620   54.9610  C.3       1 <0>        -0.1209
      13  C12         4.8780   34.4590   54.1540  C.3       1 <0>        -0.1158
      14  C13         6.0080   34.0300   55.0910  C.3       1 <0>        -0.1031
      15  O1          7.1090   36.1610   54.7930  O.3       1 <0>        -0.5474
      16  S1          7.4070   38.0760   58.9960  S.3       1 <0>        -0.1178
      17  C14         8.1400   38.7390   57.4750  C.3       1 <0>         0.2810
      18  F1          9.0970   37.8420   56.9900  F         1 <0>        -0.1794
      19  F2          7.1390   38.9170   56.5140  F         1 <0>        -0.1793
@<TRIPOS>BOND
     1     1     6 ar
     2     1     2 ar
     3     2     3 ar
     4     3     4 ar
     5     4     5 ar
     6     4    16 1
     7     5     6 ar
     8     5     7 1
     9     7     8 1
    10     8     9 1
    11     9    14 1
    12     9    10 1
    13     9    15 1
    14    10    11 1
    15    11    12 1
    16    12    13 1
    17    13    14 1
    18    16    17 1
    19    17    18 1
    20    17    19 1

@<TRIPOS>MOLECULE
ZINC41464938_replica-1.pdb
 21 23 0 0 0
SMALL
GASTEIGER

@<TRIPOS>ATOM
       1  C1          3.5930   36.3250   55.7570  C.3       1 <0>        -0.1394
       2  C2          3.2560   35.3860   56.9180  C.3       1 <0>        -0.0254
       3  C3          2.1500   36.0090   57.7740  C.3       1 <0>        -0.1390
       4  C4          2.7770   34.0420   56.3650  C.3       1 <0>        -0.1453
       5  C5          4.4850   35.1720   57.7640  C.ar      1 <0>        -0.1018
       6  C6          4.4830   34.2050   58.7530  C.ar      1 <0>        -0.0867
       7  C7          5.6100   34.0090   59.5250  C.ar      1 <0>        -0.1487
       8  C8          6.7480   34.7800   59.3130  C.ar      1 <0>         0.1333
       9  C9          6.7450   35.7480   58.3250  C.ar      1 <0>        -0.1512
      10  C10         5.6150   35.9360   57.5470  C.ar      1 <0>        -0.0779
      11  C11         7.9530   36.6140   58.0660  C.3       1 <0>        -0.0404
      12  C12         9.1960   35.9610   58.6770  C.3       1 <0>        -0.1410
      13  C13         8.8630   35.5400   60.1090  C.3       1 <0>         0.1169
      14  O1          7.8400   34.5520   60.0900  O.3       1 <0>        -0.3056
      15  C14        10.1240   34.9830   60.7950  C.3       1 <0>        -0.1114
      16  C15        10.6960   36.1940   61.5750  C.3       1 <0>        -0.1229
      17  C16         9.4190   36.9070   62.0860  C.3       1 <0>        -0.1229
      18  C17         8.4130   36.7600   60.9240  C.3       1 <0>        -0.1453
      19  C18         8.1520   36.7730   56.5580  C.3       1 <0>        -0.1116
      20  C19         7.9960   38.2450   56.1740  C.3       1 <0>         0.0743
      21  O2          9.0950   38.9940   56.6980  O.3       1 <0>        -0.5745
@<TRIPOS>BOND
     1     1     2 1
     2     2     3 1
     3     2     4 1
     4     2     5 1
     5     5    10 ar
     6     5     6 ar
     7     6     7 ar
     8     7     8 ar
     9     8    14 1
    10     8     9 ar
    11     9    10 ar
    12     9    11 1
    13    11    12 1
    14    11    19 1
    15    12    13 1
    16    13    18 1
    17    13    14 1
    18    13    15 1
    19    15    16 1
    20    16    17 1
    21    17    18 1
    22    19    20 1
    23    20    21 1

@<TRIPOS>MOLECULE
ZINC36977618_replica-1.pdb
 18 19 0 0 0
SMALL
GASTEIGER

@<TRIPOS>ATOM
       1  C1         12.6350   30.0400   64.1810  C.3       1 <0>        -0.1550
       2  C2         12.5310   31.0220   63.0110  C.3       1 <0>        -0.1190
       3  C3         13.0080   32.4030   63.4620  C.3       1 <0>        -0.0986
       4  C4         14.4900   32.3340   63.8360  C.3       1 <0>        -0.1530
       5  C5         12.8160   33.4060   62.3230  C.3       1 <0>         0.1505
       6  C6         14.1350   34.1370   62.0590  C.3       1 <0>        -0.1742
       7  N1         11.7850   34.3780   62.6950  N.pl3     1 <0>        -0.7392
       8  C7         11.0670   35.0510   61.7020  C.ar      1 <0>         0.2155
       9  C8         10.6760   36.3690   61.9010  C.ar      1 <0>        -0.1767
      10  C9          9.9670   37.0330   60.9200  C.ar      1 <0>        -0.0653
      11  C10         9.6440   36.3850   59.7360  C.ar      1 <0>         0.0916
      12  C11        10.0360   35.0670   59.5380  C.ar      1 <0>        -0.0867
      13  C12        10.7500   34.4040   60.5150  C.ar      1 <0>        -0.1725
      14  N2          8.9230   37.0600   58.7400  N.pl3     1 <0>        -0.3113
      15  C13         8.4570   38.3270   58.8150  C.2       1 <0>         0.0485
      16  C14         7.8180   38.6010   57.6530  C.2       1 <0>        -0.2663
      17  C15         7.8970   37.4640   56.8410  C.2       1 <0>         0.0496
      18  N3          8.5630   36.5430   57.4900  N.2       1 <0>        -0.2949
@<TRIPOS>BOND
     1     1     2 1
     2     2     3 1
     3     3     4 1
     4     3     5 1
     5     5     6 1
     6     5     7 1
     7     7     8 1
     8     8    13 ar
     9     8     9 ar
    10     9    10 ar
    11    10    11 ar
    12    11    12 ar
    13    11    14 1
    14    12    13 ar
    15    14    18 1
    16    14    15 1
    17    15    16 2
    18    16    17 1
    19    17    18 2

@<TRIPOS>MOLECULE
ZINC43763111_replica-1.pdb
 22 24 0 0 0
SMALL
GASTEIGER

@<TRIPOS>ATOM
       1  C1         -0.4740   25.4990   52.0270  C.3       1 <0>        -0.1260
       2  C2         -0.4840   26.7290   52.8980  C.ar      1 <0>        -0.0261
       3  C3          0.2360   26.7460   54.0780  C.ar      1 <0>        -0.1446
       4  C4          0.2280   27.8740   54.8770  C.ar      1 <0>        -0.0172
       5  C5         -0.5010   28.9850   54.4960  C.ar      1 <0>        -0.6741
       6  C6         -1.2190   28.9690   53.3150  C.ar      1 <0>        -0.0017
       7  C7         -1.2080   27.8420   52.5150  C.ar      1 <0>        -0.1439
       8  S1         -0.5120   30.4230   55.5150  S.o2      1 <0>         2.7151
       9  O1         -0.5770   31.5410   54.6390  O.2       1 <0>        -0.9422
      10  O2         -1.4790   30.1930   56.5300  O.2       1 <0>        -0.9518
      11  N1          0.9580   30.4990   56.2710  N.pl3     1 <0>        -0.9723
      12  N2          1.7250   31.6700   56.1960  N.2       1 <0>        -0.2326
      13  C8          2.2770   32.1420   57.2500  C.2       1 <0>         0.1324
      14  C9          1.9850   31.5050   58.5750  C.3       1 <0>        -0.0928
      15  C10         1.8880   32.5460   59.6740  C.3       1 <0>        -0.1290
      16  C11         2.3680   33.9640   59.4270  C.3       1 <0>        -0.1379
      17  C12         0.8900   33.6890   59.5780  C.3       1 <0>        -0.1254
      18  C13         0.0360   33.7770   58.3110  C.3       1 <0>        -0.1282
      19  C14         0.2070   34.1430   60.8690  C.3       1 <0>        -0.1163
      20  C15         2.7780   34.4540   58.0500  C.3       1 <0>        -0.0845
      21  C16         3.2030   33.3110   57.1260  C.3       1 <0>        -0.0319
      22  C17         3.1760   33.8150   55.6820  C.3       1 <0>        -0.1456
@<TRIPOS>BOND
     1     1     2 1
     2     2     7 ar
     3     2     3 ar
     4     3     4 ar
     5     4     5 ar
     6     5     6 ar
     7     5     8 1
     8     6     7 ar
     9     8     9 2
    10     8    10 2
    11     8    11 1
    12    11    12 1
    13    12    13 2
    14    13    21 1
    15    13    14 1
    16    14    15 1
    17    15    17 1
    18    15    16 1
    19    16    17 1
    20    16    20 1
    21    17    18 1
    22    17    19 1
    23    20    21 1
    24    21    22 1

@<TRIPOS>MOLECULE
ZINC40766409_replica-1.pdb
 20 21 0 0 0
SMALL
GASTEIGER

@<TRIPOS>ATOM
       1  C1          1.1040   34.8450   59.6000  C.3       1 <0>        -0.1404
       2  C2          0.3930   34.5290   58.2820  C.3       1 <0>        -0.0498
       3  C3          1.0190   35.3510   57.1550  C.3       1 <0>        -0.1468
       4  C4          0.5370   33.0610   57.9740  C.ar      1 <0>         0.2125
       5  C5          0.5330   32.6180   56.6650  C.ar      1 <0>        -0.2904
       6  C6          0.6690   31.2490   56.4290  C.ar      1 <0>         0.4385
       7  N1          0.7970   30.4260   57.4660  N.ar      1 <0>        -0.5841
       8  C7          0.7950   30.8920   58.6980  C.ar      1 <0>         0.3414
       9  N2          0.6730   32.1790   58.9540  N.ar      1 <0>        -0.5621
      10  N3          0.6710   30.7550   55.1350  N.pl3     1 <0>        -0.7091
      11  C8          0.4150   29.3330   54.8930  C.3       1 <0>         0.1332
      12  C9         -0.9930   29.1580   54.3210  C.3       1 <0>        -0.0321
      13  C10        -1.9580   28.7820   55.4460  C.3       1 <0>        -0.1417
      14  C11        -1.4480   30.4690   53.6760  C.3       1 <0>        -0.1417
      15  C12        -0.9820   28.0650   53.2820  C.ar      1 <0>        -0.0701
      16  C13        -0.3190   26.8790   53.5350  C.ar      1 <0>        -0.1240
      17  C14        -0.3080   25.8770   52.5840  C.ar      1 <0>        -0.1148
      18  C15        -0.9610   26.0600   51.3790  C.ar      1 <0>        -0.1220
      19  C16        -1.6270   27.2460   51.1280  C.ar      1 <0>        -0.1155
      20  C17        -1.6400   28.2460   52.0810  C.ar      1 <0>        -0.1116
@<TRIPOS>BOND
     1     1     2 1
     2     2     3 1
     3     2     4 1
     4     4     9 ar
     5     4     5 ar
     6     5     6 ar
     7     6     7 ar
     8     6    10 1
     9     7     8 ar
    10     8     9 ar
    11    10    11 1
    12    11    12 1
    13    12    13 1
    14    12    14 1
    15    12    15 1
    16    15    20 ar
    17    15    16 ar
    18    16    17 ar
    19    17    18 ar
    20    18    19 ar
    21    19    20 ar

@<TRIPOS>MOLECULE
ZINC50342792_replica-1.pdb
 19 20 0 0 0
SMALL
GASTEIGER

@<TRIPOS>ATOM
       1  C1         -2.0370   28.2430   56.8400  C.3       1 <0>        -0.1632
       2  C2         -0.8020   27.4020   56.5100  C.3       1 <0>         0.1927
       3  C3          0.1240   27.3800   57.6990  C.2       1 <0>        -0.1323
       4  C4          0.1180   26.3090   58.5720  C.2       1 <0>        -0.1508
       5  C5          0.9630   26.3200   59.6330  C.2       1 <0>        -0.1683
       6  S1          1.8060   27.8780   59.4150  S.3       1 <0>         0.0483
       7  C6          0.9790   28.4070   57.9240  C.2       1 <0>        -0.1623
       8  N1         -0.1060   27.9880   55.3610  N.pl3     1 <0>        -0.7110
       9  C7         -0.4630   27.6180   54.0710  C.ar      1 <0>         0.3145
      10  C8         -0.1700   26.3440   53.6040  C.ar      1 <0>        -0.2570
      11  C9         -0.5270   25.9780   52.3200  C.ar      1 <0>         0.1920
      12  C10        -1.1800   26.8800   51.4880  C.ar      1 <0>        -0.2314
      13  C11        -1.4780   28.1460   51.9350  C.ar      1 <0>         0.0213
      14  C12        -1.1280   28.5290   53.2340  C.ar      1 <0>        -0.2354
      15  C13        -1.4500   29.8810   53.7190  C.2       1 <0>         0.5249
      16  O1         -2.6010   30.2710   53.7150  O.2       1 <0>        -0.5243
      17  O2         -0.4670   30.6880   54.1670  O.3       1 <0>        -0.3459
      18  C14        -0.7370   31.4420   55.3500  C.3       1 <0>         0.0340
      19  F1         -0.2390   24.7370   51.8700  F         1 <0>        -0.1298
@<TRIPOS>BOND
     1     1     2 1
     2     2     3 1
     3     2     8 1
     4     3     7 2
     5     3     4 1
     6     4     5 2
     7     5     6 1
     8     6     7 1
     9     8     9 1
    10     9    14 ar
    11     9    10 ar
    12    10    11 ar
    13    11    12 ar
    14    11    19 1
    15    12    13 ar
    16    13    14 ar
    17    14    15 1
    18    15    16 2
    19    15    17 1
    20    17    18 1

@<TRIPOS>MOLECULE
ZINC35084449_replica-1.pdb
 19 19 0 0 0
SMALL
GASTEIGER

@<TRIPOS>ATOM
       1  C1         14.8710   33.5330   63.5270  C.3       1 <0>        -0.1497
       2  C2         13.6810   32.7620   62.9530  C.3       1 <0>        -0.0928
       3  C3         13.5260   31.4340   63.6970  C.3       1 <0>        -0.1541
       4  C4         12.4070   33.5920   63.1210  C.3       1 <0>        -0.1287
       5  C5         12.3220   34.6310   62.0010  C.3       1 <0>         0.1096
       6  N1         11.2360   34.2750   61.0850  N.pl3     1 <0>        -0.7224
       7  C6         10.4480   35.2750   60.5130  C.ar      1 <0>         0.2665
       8  C7         10.2590   36.4790   61.1800  C.ar      1 <0>        -0.1754
       9  C8          9.4790   37.4670   60.6120  C.ar      1 <0>         0.0020
      10  C9          8.8870   37.2590   59.3800  C.ar      1 <0>        -0.0769
      11  C10         9.0720   36.0620   58.7130  C.ar      1 <0>        -0.0711
      12  C11         9.8550   35.0720   59.2730  C.ar      1 <0>        -0.1500
      13  C12         8.4230   35.8400   57.3710  C.3       1 <0>         0.5124
      14  F1          7.0340   35.9220   57.5070  F         1 <0>        -0.1743
      15  F2          8.8640   36.8160   56.4720  F         1 <0>        -0.1588
      16  F3          8.7720   34.5730   56.8900  F         1 <0>        -0.1588
      17  N2          8.0510   38.3200   58.7750  N.pl3     1 <0>         0.0367
      18  O1          6.9030   38.4620   59.1260  O.2       1 <0>        -0.1537
      19  O2          8.5180   39.0470   57.9270  O.3       1 <0>        -0.1564
@<TRIPOS>BOND
     1     1     2 1
     2     2     3 1
     3     2     4 1
     4     4     5 1
     5     5     6 1
     6     6     7 1
     7     7    12 ar
     8     7     8 ar
     9     8     9 ar
    10     9    10 ar
    11    10    11 ar
    12    10    17 1
    13    11    12 ar
    14    11    13 1
    15    13    14 1
    16    13    15 1
    17    13    16 1
    18    17    18 2
    19    17    19 1

@<TRIPOS>MOLECULE
ZINC39491368_replica-1.pdb
 26 27 0 0 0
SMALL
GASTEIGER

@<TRIPOS>ATOM
       1  C1          0.6140   26.4900   55.6860  C.3       1 <0>        -0.1539
       2  C2          0.6580   27.3390   54.4130  C.3       1 <0>        -0.1264
       3  C3         -0.7010   27.2740   53.7110  C.3       1 <0>        -0.1157
       4  C4         -1.1030   28.6770   53.2500  C.3       1 <0>        -0.1069
       5  C5         -1.8430   28.5820   51.9140  C.3       1 <0>        -0.1210
       6  C6         -1.4860   27.2640   51.2250  C.3       1 <0>        -0.1602
       7  C7         -2.0210   29.3120   54.2970  C.3       1 <0>         0.1001
       8  N1         -1.2090   29.9820   55.3160  N.pl3     1 <0>        -0.4582
       9  C8         -0.3830   31.0480   55.0860  C.2       1 <0>         0.1253
      10  C9          0.2140   31.4210   56.2280  C.2       1 <0>        -0.2588
      11  C10        -0.2710   30.5190   57.2760  C.ar      1 <0>        -0.1110
      12  C11        -1.1690   29.6360   56.6440  C.ar      1 <0>         0.1323
      13  C12        -1.8060   28.6500   57.3950  C.ar      1 <0>        -0.1236
      14  C13        -1.5670   28.5400   58.7320  C.ar      1 <0>        -0.0418
      15  C14        -0.6780   29.4150   59.3720  C.ar      1 <0>        -0.1306
      16  C15        -0.0230   30.4030   58.6410  C.ar      1 <0>        -0.0175
      17  C16        -0.4290   29.2840   60.8220  C.2       1 <0>         0.5082
      18  O1         -0.5880   28.2130   61.3700  O.2       1 <0>        -0.5060
      19  O2         -0.0270   30.3540   61.5350  O.3       1 <0>        -0.3469
      20  C17        -0.8950   30.8040   62.5760  C.3       1 <0>         0.0335
      21  C18         1.1950   32.5520   56.3990  C.3       1 <0>         0.0842
      22  N2          0.4730   33.8300   56.4090  N.4       1 <0>        -0.5116
      23  C19         0.1780   34.2150   57.7950  C.3       1 <0>        -0.0086
      24  C20         1.4620   34.1580   58.6260  C.3       1 <0>        -0.1192
      25  C21         2.0660   35.5600   58.7260  C.3       1 <0>        -0.1701
      26  C22         1.1390   33.6400   60.0290  C.3       1 <0>        -0.1524
@<TRIPOS>BOND
     1     1     2 1
     2     2     3 1
     3     3     4 1
     4     4     5 1
     5     4     7 1
     6     5     6 1
     7     7     8 1
     8     8    12 1
     9     8     9 1
    10     9    10 2
    11    10    11 1
    12    10    21 1
    13    11    16 ar
    14    11    12 ar
    15    12    13 ar
    16    13    14 ar
    17    14    15 ar
    18    15    16 ar
    19    15    17 1
    20    17    18 2
    21    17    19 1
    22    19    20 1
    23    21    22 1
    24    22    23 1
    25    23    24 1
    26    24    25 1
    27    24    26 1

@<TRIPOS>MOLECULE
ZINC13931902_replica-1.pdb
 17 17 0 0 0
SMALL
GASTEIGER

@<TRIPOS>ATOM
       1  C1          0.4960   35.2840   57.2850  C.3       1 <0>        -0.1691
       2  C2          0.3250   33.9260   57.9690  C.3       1 <0>         0.1186
       3  N1         -0.2750   32.9760   57.0290  N.pl3     1 <0>        -0.6861
       4  C3         -0.1130   31.6520   57.2140  C.2       1 <0>         0.5621
       5  S1          1.1030   31.0770   58.2730  S.2       1 <0>        -0.6386
       6  N2         -0.9090   30.7790   56.5650  N.pl3     1 <0>        -0.6811
       7  C4         -0.7320   29.3380   56.7660  C.3       1 <0>         0.1864
       8  C5         -1.8930   28.7940   57.6010  C.3       1 <0>        -0.1578
       9  C6         -0.7070   28.6440   55.4280  C.ar      1 <0>        -0.1013
      10  C7          0.0360   27.4900   55.2610  C.ar      1 <0>        -0.0979
      11  C8          0.0580   26.8550   54.0340  C.ar      1 <0>        -0.1118
      12  C9         -0.6620   27.3710   52.9740  C.ar      1 <0>        -0.0704
      13  C10        -1.4010   28.5280   53.1390  C.ar      1 <0>        -0.1103
      14  C11        -1.4280   29.1620   54.3670  C.ar      1 <0>        -0.1154
      15  C12        -0.6380   26.6770   51.6370  C.3       1 <0>        -0.0598
      16  C13        -1.8710   27.0850   50.8280  C.3       1 <0>        -0.1451
      17  C14        -0.6440   25.1620   51.8480  C.3       1 <0>        -0.1451
@<TRIPOS>BOND
     1     1     2 1
     2     2     3 1
     3     3     4 1
     4     4     5 2
     5     4     6 1
     6     6     7 1
     7     7     8 1
     8     7     9 1
     9     9    14 ar
    10     9    10 ar
    11    10    11 ar
    12    11    12 ar
    13    12    13 ar
    14    12    15 1
    15    13    14 ar
    16    15    16 1
    17    15    17 1

@<TRIPOS>MOLECULE
ZINC66970823_replica-1.pdb
 23 25 0 0 0
SMALL
GASTEIGER

@<TRIPOS>ATOM
       1  C1         14.9500   33.4640   63.0890  C.3       1 <0>        -0.1511
       2  C2         13.6240   32.7310   62.8800  C.3       1 <0>        -0.0907
       3  C3         13.6000   31.4650   63.7380  C.3       1 <0>        -0.1488
       4  C4         12.4660   33.6450   63.2870  C.3       1 <0>        -0.0783
       5  C5         11.4900   33.7590   62.1450  C.ar      1 <0>        -0.0749
       6  C6         10.5800   32.7460   61.9110  C.ar      1 <0>        -0.1153
       7  C7          9.6830   32.8500   60.8630  C.ar      1 <0>        -0.1058
       8  C8          9.6980   33.9670   60.0490  C.ar      1 <0>        -0.0730
       9  C9         10.6090   34.9800   60.2830  C.ar      1 <0>        -0.0874
      10  C10        11.5010   34.8790   61.3340  C.ar      1 <0>        -0.1180
      11  C11         8.7230   34.0800   58.9070  C.3       1 <0>         0.2155
      12  C12         7.4200   34.6450   59.4120  C.2       1 <0>        -0.1730
      13  C13         6.1630   34.1670   59.2490  C.2       1 <0>        -0.1478
      14  C14         5.1050   34.8600   59.8090  C.2       1 <0>        -0.1567
      15  C15         5.3570   35.9950   60.5040  C.2       1 <0>        -0.1710
      16  S1          7.1350   36.1130   60.3870  S.3       1 <0>         0.0432
      17  N1          9.2760   34.9690   57.8770  N.3       1 <0>        -0.6659
      18  C16         8.4870   34.8970   56.6390  C.3       1 <0>         0.1380
      19  C17         8.1040   36.2890   56.2060  C.2       1 <0>         0.0779
      20  C18         8.1310   37.4340   57.0080  C.2       1 <0>        -0.2539
      21  C19         7.7180   38.4790   56.2550  C.2       1 <0>         0.0558
      22  N2          7.4400   38.0120   55.0200  N.pl3     1 <0>        -0.4754
      23  N3          7.6950   36.6350   55.0120  N.2       1 <0>        -0.2882
@<TRIPOS>BOND
     1     1     2 1
     2     2     3 1
     3     2     4 1
     4     4     5 1
     5     5    10 ar
     6     5     6 ar
     7     6     7 ar
     8     7     8 ar
     9     8     9 ar
    10     8    11 1
    11     9    10 ar
    12    11    12 1
    13    11    17 1
    14    12    16 1
    15    12    13 2
    16    13    14 1
    17    14    15 2
    18    15    16 1
    19    17    18 1
    20    18    19 1
    21    19    23 2
    22    19    20 1
    23    20    21 2
    24    21    22 1
    25    22    23 1

@<TRIPOS>MOLECULE
ZINC02504687_replica-1.pdb
 21 22 0 0 0
SMALL
GASTEIGER

@<TRIPOS>ATOM
       1  C1          7.1200   35.3240   55.6540  C.3       1 <0>        -0.1544
       2  C2          7.5920   36.7240   55.2540  C.3       1 <0>        -0.1261
       3  C3          7.2130   37.7210   56.3510  C.3       1 <0>        -0.1210
       4  C4          8.4400   38.5540   56.7270  C.3       1 <0>        -0.1211
       5  C5          8.5840   38.5910   58.2490  C.3       1 <0>        -0.1211
       6  C6          7.5800   37.6230   58.8800  C.3       1 <0>        -0.1156
       7  C7          8.3250   36.6250   59.7690  C.3       1 <0>        -0.0876
       8  C8          8.9940   35.5630   58.8930  C.3       1 <0>        -0.1146
       9  C9          9.7390   34.5660   59.7810  C.3       1 <0>        -0.1107
      10  C10        10.8050   35.3020   60.5950  C.3       1 <0>        -0.0486
      11  C11        10.1350   36.3630   61.4700  C.3       1 <0>        -0.1110
      12  C12         9.3900   37.3620   60.5820  C.3       1 <0>        -0.1151
      13  C13        11.5380   34.3180   61.4700  C.ar      1 <0>        -0.0683
      14  C14        10.8880   33.1720   61.9110  C.ar      1 <0>        -0.0978
      15  C15        11.5350   32.2760   62.7060  C.ar      1 <0>        -0.0872
      16  C16        12.8850   32.5110   63.0760  C.ar      1 <0>         0.1119
      17  C17        13.5360   33.6840   62.6140  C.ar      1 <0>        -0.1509
      18  C18        12.8590   34.5640   61.8220  C.ar      1 <0>        -0.0940
      19  N1         13.5290   31.6460   63.8450  N.2       1 <0>        -0.4492
      20  C19        12.9720   30.5820   64.1920  C.1       1 <0>         0.2124
      21  S1         12.2800   29.2610   64.6230  S.2       1 <0>         0.0188
@<TRIPOS>BOND
     1     1     2 1
     2     2     3 1
     3     3     4 1
     4     4     5 1
     5     5     6 1
     6     6     7 1
     7     7    12 1
     8     7     8 1
     9     8     9 1
    10     9    10 1
    11    10    11 1
    12    10    13 1
    13    11    12 1
    14    13    18 ar
    15    13    14 ar
    16    14    15 ar
    17    15    16 ar
    18    16    17 ar
    19    16    19 1
    20    17    18 ar
    21    19    20 2
    22    20    21 2

@<TRIPOS>MOLECULE
ZINC06504783_replica-1.pdb
 25 28 0 0 0
SMALL
GASTEIGER

@<TRIPOS>ATOM
       1  C1          0.6470   25.8890   54.4650  C.3       1 <0>        -0.1104
       2  C2         -0.1710   26.2680   53.2560  C.ar      1 <0>        -0.1068
       3  C3         -0.4820   25.3130   52.3060  C.ar      1 <0>        -0.0829
       4  C4         -1.2330   25.6600   51.1990  C.ar      1 <0>        -0.1496
       5  C5         -1.6730   26.9600   51.0380  C.ar      1 <0>        -0.0870
       6  C6         -1.3700   27.9160   51.9870  C.ar      1 <0>        -0.2069
       7  C7         -0.6120   27.5730   53.0980  C.ar      1 <0>         0.1231
       8  O1         -0.3080   28.5130   54.0310  O.3       1 <0>        -0.2842
       9  C8         -0.9110   29.7980   53.8780  C.3       1 <0>         0.0459
      10  C9         -0.3800   30.7320   54.9350  C.2       1 <0>         0.4868
      11  O2         -1.1140   31.5530   55.4420  O.2       1 <0>        -0.3778
      12  N1          0.9110   30.6550   55.3150  N.am      1 <0>        -0.6458
      13  C10         1.3860   31.4900   56.2610  C.2       1 <0>         0.5172
      14  S1          1.3580   31.0230   57.9070  S.2       1 <0>        -0.4906
      15  N2          1.8800   32.6940   55.9090  N.pl3     1 <0>        -0.6660
      16  C11         2.2900   33.6470   56.9440  C.3       1 <0>         0.1895
      17  C12         3.5840   33.1640   57.5990  C.3       1 <0>        -0.1149
      18  C13         4.0120   34.1600   58.6800  C.3       1 <0>        -0.0772
      19  C14         2.9140   34.2650   59.7390  C.3       1 <0>        -0.1137
      20  C15         1.6180   34.7490   59.0840  C.3       1 <0>        -0.0767
      21  C16         1.1910   33.7540   58.0030  C.3       1 <0>        -0.1455
      22  C17         1.8490   36.1220   58.4490  C.3       1 <0>        -0.1085
      23  C18         2.9480   36.0160   57.3900  C.3       1 <0>        -0.0759
      24  C19         4.2440   35.5330   58.0450  C.3       1 <0>        -0.1137
      25  C20         2.5210   35.0200   56.3090  C.3       1 <0>        -0.1450
@<TRIPOS>BOND
     1     1     2 1
     2     2     7 ar
     3     2     3 ar
     4     3     4 ar
     5     4     5 ar
     6     5     6 ar
     7     6     7 ar
     8     7     8 1
     9     8     9 1
    10     9    10 1
    11    10    11 2
    12    10    12 am
    13    12    13 1
    14    13    14 2
    15    13    15 1
    16    15    16 1
    17    16    21 1
    18    16    25 1
    19    16    17 1
    20    17    18 1
    21    18    24 1
    22    18    19 1
    23    19    20 1
    24    20    21 1
    25    20    22 1
    26    22    23 1
    27    23    24 1
    28    23    25 1

@<TRIPOS>MOLECULE
ZINC58376962_replica-1.pdb
 20 22 0 0 0
SMALL
GASTEIGER

@<TRIPOS>ATOM
       1  C1          3.3260   35.9460   58.5660  C.3       1 <0>        -0.1054
       2  C2          4.0190   34.7150   58.0400  C.ar      1 <0>        -0.0941
       3  C3          3.2770   33.6370   57.6030  C.ar      1 <0>        -0.1155
       4  C4          3.9120   32.5080   57.1200  C.ar      1 <0>        -0.1215
       5  C5          5.2930   32.4550   57.0720  C.ar      1 <0>        -0.1206
       6  C6          6.0420   33.5300   57.5070  C.ar      1 <0>        -0.1251
       7  C7          5.4070   34.6680   57.9880  C.ar      1 <0>         0.1748
       8  N1          6.1610   35.7580   58.4240  N.pl3     1 <0>        -0.6712
       9  C8          6.5190   36.8540   57.5120  C.3       1 <0>         0.1583
      10  C9          8.0460   37.0010   57.5090  C.3       1 <0>         0.1272
      11  N2          8.5750   37.0500   58.8620  N.3       1 <0>        -0.7099
      12  C10         8.1370   36.0710   59.8380  C.3       1 <0>         0.1405
      13  C11         6.6190   35.8640   59.8140  C.3       1 <0>         0.1556
      14  C12         8.4990   36.5950   61.2450  C.3       1 <0>        -0.1096
      15  C13        10.0110   36.7800   61.3480  C.3       1 <0>        -0.1174
      16  C14        10.7130   35.4380   61.1290  C.3       1 <0>        -0.1211
      17  C15        10.3460   34.8940   59.7460  C.3       1 <0>        -0.1176
      18  C16         8.8300   34.7190   59.6600  C.3       1 <0>        -0.1428
      19  C17         8.3830   38.3360   56.8110  C.3       1 <0>        -0.1442
      20  C18         8.6770   35.8760   56.6890  C.3       1 <0>        -0.1748
@<TRIPOS>BOND
     1     1     2 1
     2     2     7 ar
     3     2     3 ar
     4     3     4 ar
     5     4     5 ar
     6     5     6 ar
     7     6     7 ar
     8     7     8 1
     9     8    13 1
    10     8     9 1
    11     9    10 1
    12    10    11 1
    13    10    19 1
    14    10    20 1
    15    11    12 1
    16    12    18 1
    17    12    13 1
    18    12    14 1
    19    14    15 1
    20    15    16 1
    21    16    17 1
    22    17    18 1

@<TRIPOS>MOLECULE
ZINC19996564_replica-1.pdb
 17 17 0 0 0
SMALL
GASTEIGER

@<TRIPOS>ATOM
       1  C1         -2.8640   30.4360   53.2950  C.3       1 <0>        -0.1714
       2  C2         -2.0440   29.5750   54.2580  C.3       1 <0>         0.1421
       3  C3         -1.5940   30.4280   55.4470  C.3       1 <0>        -0.1241
       4  C4         -2.1980   29.8650   56.7350  C.3       1 <0>        -0.0986
       5  C5         -3.0940   28.6720   56.4000  C.3       1 <0>        -0.1487
       6  C6         -1.0730   29.4110   57.6690  C.3       1 <0>        -0.1490
       7  N1         -0.8670   29.0500   53.5620  N.pl3     1 <0>        -0.7330
       8  C7         -0.9700   27.8840   52.7990  C.ar      1 <0>         0.2705
       9  C8         -1.6880   27.8920   51.6090  C.ar      1 <0>        -0.2019
      10  C9         -1.7870   26.7380   50.8570  C.ar      1 <0>        -0.0389
      11  C10        -1.1750   25.5750   51.2870  C.ar      1 <0>        -0.1824
      12  C11        -0.4610   25.5640   52.4720  C.ar      1 <0>        -0.0252
      13  C12        -0.3510   26.7150   53.2250  C.ar      1 <0>        -0.2687
      14  C13         0.4330   26.7040   54.5110  C.3       1 <0>         0.5113
      15  F1          1.0440   25.4560   54.6740  F         1 <0>        -0.1764
      16  F2          1.4130   27.7020   54.4700  F         1 <0>        -0.1803
      17  F3         -0.4300   26.9430   55.5870  F         1 <0>        -0.1803
@<TRIPOS>BOND
     1     1     2 1
     2     2     3 1
     3     2     7 1
     4     3     4 1
     5     4     5 1
     6     4     6 1
     7     7     8 1
     8     8    13 ar
     9     8     9 ar
    10     9    10 ar
    11    10    11 ar
    12    11    12 ar
    13    12    13 ar
    14    13    14 1
    15    14    15 1
    16    14    16 1
    17    14    17 1

@<TRIPOS>MOLECULE
ZINC45327538_replica-1.pdb
 21 21 0 0 0
SMALL
GASTEIGER

@<TRIPOS>ATOM
       1  C1         12.3020   30.3630   64.0930  C.3       1 <0>        -0.1178
       2  C2         12.8290   31.6490   63.5100  C.ar      1 <0>        -0.0502
       3  C3         14.1630   31.9800   63.6630  C.ar      1 <0>        -0.1554
       4  C4         14.6500   33.1580   63.1290  C.ar      1 <0>        -0.0823
       5  C5         13.8060   34.0080   62.4420  C.ar      1 <0>        -0.2125
       6  C6         12.4680   33.6780   62.2860  C.ar      1 <0>         0.1323
       7  C7         11.9820   32.4910   62.8180  C.ar      1 <0>        -0.1193
       8  C8         10.5310   32.1260   62.6460  C.3       1 <0>        -0.1065
       9  O1         11.6350   34.5120   61.6110  O.3       1 <0>        -0.3117
      10  C9         11.4480   35.8210   62.1520  C.3       1 <0>         0.0583
      11  C10        10.3790   36.5590   61.3460  C.3       1 <0>        -0.1159
      12  C11         9.3520   35.5540   60.8210  C.3       1 <0>        -0.1231
      13  C12         9.2260   35.7010   59.3020  C.3       1 <0>        -0.1034
      14  C13         7.9300   35.0360   58.8320  C.3       1 <0>         0.2135
      15  C14         7.0010   34.8260   60.0300  C.3       1 <0>        -0.1854
      16  C15         8.2400   33.7360   58.2170  C.1       1 <0>         0.2182
      17  N1          8.4800   32.7320   57.7420  N.1       1 <0>        -0.4186
      18  N2          7.2680   35.9000   57.8450  N.3       1 <0>        -0.6705
      19  C16         8.2530   36.6970   57.1000  C.3       1 <0>         0.0716
      20  C17         8.2830   36.2360   55.6420  C.3       1 <0>        -0.1707
      21  C18         7.8630   38.1750   57.1600  C.3       1 <0>        -0.1393
@<TRIPOS>BOND
     1     1     2 1
     2     2     7 ar
     3     2     3 ar
     4     3     4 ar
     5     4     5 ar
     6     5     6 ar
     7     6     7 ar
     8     6     9 1
     9     7     8 1
    10     9    10 1
    11    10    11 1
    12    11    12 1
    13    12    13 1
    14    13    14 1
    15    14    15 1
    16    14    16 1
    17    14    18 1
    18    16    17 3
    19    18    19 1
    20    19    20 1
    21    19    21 1

@<TRIPOS>MOLECULE
ZINC20559121_replica-1.pdb
 17 17 0 0 0
SMALL
GASTEIGER

@<TRIPOS>ATOM
       1  C1         -1.4750   31.0970   55.5910  C.3       1 <0>        -0.1496
       2  C2         -1.6140   30.1170   56.7570  C.3       1 <0>        -0.0961
       3  C3         -2.6910   29.0820   56.4280  C.3       1 <0>        -0.1541
       4  C4         -0.2780   29.4070   56.9890  C.3       1 <0>        -0.1324
       5  C5         -0.3450   27.9910   56.4150  C.3       1 <0>         0.1524
       6  C6          0.1510   26.9920   57.4620  C.3       1 <0>        -0.1237
       7  C7         -0.8590   25.8500   57.5970  C.3       1 <0>        -0.0961
       8  C8         -0.1200   24.5530   57.9310  C.3       1 <0>        -0.1501
       9  C9         -1.8500   26.1760   58.7160  C.3       1 <0>        -0.1502
      10  N1          0.4990   27.9070   55.2220  N.pl3     1 <0>        -0.7489
      11  C10        -0.0210   27.3860   54.0330  C.ar      1 <0>         0.2011
      12  C11        -0.7670   28.1930   53.1860  C.ar      1 <0>        -0.1828
      13  C12        -1.2770   27.6760   52.0100  C.ar      1 <0>        -0.0786
      14  C13        -1.0520   26.3530   51.6800  C.ar      1 <0>        -0.1575
      15  C14        -0.3130   25.5420   52.5230  C.ar      1 <0>        -0.1047
      16  C15         0.2030   26.0530   53.6990  C.ar      1 <0>         0.0116
      17  F1          0.9240   25.2620   54.5220  F         1 <0>        -0.1459
@<TRIPOS>BOND
     1     1     2 1
     2     2     3 1
     3     2     4 1
     4     4     5 1
     5     5     6 1
     6     5    10 1
     7     6     7 1
     8     7     8 1
     9     7     9 1
    10    10    11 1
    11    11    16 ar
    12    11    12 ar
    13    12    13 ar
    14    13    14 ar
    15    14    15 ar
    16    15    16 ar
    17    16    17 1

@<TRIPOS>MOLECULE
ZINC66199875_replica-1.pdb
 22 22 0 0 0
SMALL
GASTEIGER

@<TRIPOS>ATOM
       1  C1          4.9680   34.6000   53.6710  C.3       1 <0>        -0.1555
       2  C2          4.0790   34.2960   54.8800  C.3       1 <0>        -0.1326
       3  C3          4.5100   35.1680   56.0620  C.3       1 <0>         0.1362
       4  C4          3.3170   35.9920   56.5480  C.3       1 <0>        -0.1650
       5  N1          4.9880   34.3120   57.1510  N.pl3     1 <0>        -0.6682
       6  C5          5.6020   34.8590   58.2180  C.2       1 <0>         0.5197
       7  S1          4.8750   34.7660   59.7650  S.2       1 <0>        -0.5203
       8  N2          6.7880   35.4820   58.0680  N.am      1 <0>        -0.6482
       9  C6          7.4020   36.0290   59.1350  C.2       1 <0>         0.4874
      10  O1          6.8870   35.9630   60.2300  O.2       1 <0>        -0.3903
      11  C7          8.7270   36.7250   58.9670  C.3       1 <0>        -0.0631
      12  C8          8.5370   38.2340   59.1320  C.3       1 <0>        -0.1446
      13  C9          9.6940   36.2230   60.0090  C.ar      1 <0>        -0.0823
      14  C10         9.9640   36.9920   61.1270  C.ar      1 <0>        -0.0803
      15  C11        10.8510   36.5320   62.0830  C.ar      1 <0>        -0.1148
      16  C12        11.4670   35.3040   61.9220  C.ar      1 <0>        -0.0710
      17  C13        11.1960   34.5360   60.8040  C.ar      1 <0>        -0.1205
      18  C14        10.3060   34.9950   59.8500  C.ar      1 <0>        -0.1047
      19  C15        12.4340   34.8040   62.9630  C.3       1 <0>        -0.0786
      20  C16        13.1450   33.5550   62.4410  C.3       1 <0>        -0.0906
      21  C17        14.6360   33.6390   62.7750  C.3       1 <0>        -0.1484
      22  C18        12.5440   32.3120   63.1000  C.3       1 <0>        -0.1524
@<TRIPOS>BOND
     1     1     2 1
     2     2     3 1
     3     3     4 1
     4     3     5 1
     5     5     6 1
     6     6     7 2
     7     6     8 1
     8     8     9 am
     9     9    10 2
    10     9    11 1
    11    11    12 1
    12    11    13 1
    13    13    18 ar
    14    13    14 ar
    15    14    15 ar
    16    15    16 ar
    17    16    17 ar
    18    16    19 1
    19    17    18 ar
    20    19    20 1
    21    20    21 1
    22    20    22 1

@<TRIPOS>MOLECULE
ZINC36978023_replica-1.pdb
 21 23 0 0 0
SMALL
GASTEIGER

@<TRIPOS>ATOM
       1  C1         12.3820   35.5560   63.7980  C.3       1 <0>        -0.1711
       2  C2         12.3200   35.3150   62.2880  C.3       1 <0>         0.1474
       3  C3         13.3460   34.2480   61.8990  C.3       1 <0>        -0.1234
       4  C4         13.9100   33.5980   63.1640  C.3       1 <0>        -0.0382
       5  C5         13.1830   32.3050   63.4310  C.2       1 <0>        -0.0130
       6  C6         13.7170   31.2030   63.9880  C.2       1 <0>        -0.2104
       7  C7         12.6880   30.2360   64.0490  C.2       1 <0>        -0.2138
       8  C8         11.5870   30.8040   63.5260  C.2       1 <0>        -0.0421
       9  O1         11.8920   32.0600   63.1580  O.3       1 <0>        -0.1764
      10  N1         10.9780   34.8590   61.9210  N.pl3     1 <0>        -0.7397
      11  C9         10.3080   35.4500   60.8450  C.ar      1 <0>         0.2148
      12  C10         9.8380   36.7530   60.9510  C.ar      1 <0>        -0.1759
      13  C11         9.1760   37.3360   59.8890  C.ar      1 <0>        -0.0659
      14  C12         8.9800   36.6200   58.7160  C.ar      1 <0>         0.0934
      15  C13         9.4490   35.3180   58.6100  C.ar      1 <0>        -0.0875
      16  C14        10.1160   34.7360   59.6700  C.ar      1 <0>        -0.1709
      17  N2          8.3070   37.2120   57.6370  N.pl3     1 <0>        -0.3120
      18  C15         8.3410   38.5210   57.2980  C.2       1 <0>         0.0486
      19  C16         7.5620   38.6840   56.2030  C.2       1 <0>        -0.2661
      20  C17         7.0360   37.4340   55.8600  C.2       1 <0>         0.0499
      21  N3          7.4860   36.5510   56.7140  N.2       1 <0>        -0.2946
@<TRIPOS>BOND
     1     1     2 1
     2     2     3 1
     3     2    10 1
     4     3     4 1
     5     4     5 1
     6     5     9 1
     7     5     6 2
     8     6     7 1
     9     7     8 2
    10     8     9 1
    11    10    11 1
    12    11    16 ar
    13    11    12 ar
    14    12    13 ar
    15    13    14 ar
    16    14    15 ar
    17    14    17 1
    18    15    16 ar
    19    17    21 1
    20    17    18 1
    21    18    19 2
    22    19    20 1
    23    20    21 2

@<TRIPOS>MOLECULE
ZINC04945284_replica-1.pdb
 23 24 0 0 0
SMALL
GASTEIGER

@<TRIPOS>ATOM
       1  C1          7.9450   32.8440   56.5370  C.3       1 <0>        -0.1456
       2  C2          6.6900   32.1380   57.0530  C.3       1 <0>        -0.0780
       3  C3          5.4720   32.7370   56.3970  C.2       1 <0>         0.1960
       4  C4          5.6160   33.5640   55.3200  C.2       1 <0>        -0.2920
       5  C5          4.4650   34.1110   54.7260  C.2       1 <0>         0.5303
       6  O1          4.5560   34.8540   53.7620  O.2       1 <0>        -0.5319
       7  N1          3.2570   33.7970   55.2400  N.am      1 <0>        -0.6147
       8  C6          3.1760   32.9660   56.3160  C.2       1 <0>         0.3733
       9  N2          4.2600   32.4530   56.8660  N.2       1 <0>        -0.5374
      10  S1          1.5950   32.5630   56.9820  S.3       1 <0>         0.0134
      11  C7          1.8320   32.6780   58.7760  C.3       1 <0>        -0.1037
      12  C8          1.9240   34.1490   59.1860  C.3       1 <0>         0.0751
      13  O2          3.0370   34.3310   60.0630  O.3       1 <0>        -0.3068
      14  C9          4.1870   34.8010   59.5110  C.ar      1 <0>         0.0907
      15  C10         4.1340   35.7160   58.4690  C.ar      1 <0>        -0.1667
      16  C11         5.3030   36.1930   57.9090  C.ar      1 <0>        -0.1713
      17  C12         6.5300   35.7570   58.3870  C.ar      1 <0>         0.1006
      18  C13         6.5830   34.8440   59.4290  C.ar      1 <0>        -0.1127
      19  C14         5.4140   34.3700   59.9920  C.ar      1 <0>        -0.1061
      20  O3          7.6810   36.2270   57.8350  O.3       1 <0>        -0.3101
      21  C15         7.5500   37.1310   56.7350  C.3       1 <0>         0.0772
      22  C16         8.3990   38.3760   56.9960  C.3       1 <0>        -0.1820
      23  C17         8.0290   36.4460   55.4530  C.3       1 <0>        -0.1501
@<TRIPOS>BOND
     1     1     2 1
     2     2     3 1
     3     3     9 1
     4     3     4 2
     5     4     5 1
     6     5     6 2
     7     5     7 am
     8     7     8 1
     9     8     9 2
    10     8    10 1
    11    10    11 1
    12    11    12 1
    13    12    13 1
    14    13    14 1
    15    14    19 ar
    16    14    15 ar
    17    15    16 ar
    18    16    17 ar
    19    17    18 ar
    20    17    20 1
    21    18    19 ar
    22    20    21 1
    23    21    22 1
    24    21    23 1

@<TRIPOS>MOLECULE
ZINC04392189_replica-1.pdb
 23 24 0 0 0
SMALL
GASTEIGER

@<TRIPOS>ATOM
       1  C1         -0.3730   26.6320   51.6360  C.3       1 <0>        -0.1239
       2  C2         -0.3400   25.7200   52.8650  C.3       1 <0>        -0.1229
       3  C3          0.6860   26.2540   53.8680  C.3       1 <0>        -0.1241
       4  C4          0.0200   26.4230   55.2360  C.3       1 <0>        -0.1230
       5  C5          0.2500   27.8480   55.7430  C.3       1 <0>        -0.1218
       6  C6         -1.0940   28.4810   56.1110  C.3       1 <0>        -0.1301
       7  C7         -1.2440   29.8190   55.3850  C.3       1 <0>         0.1416
       8  C8         -2.5680   29.8360   54.6170  C.3       1 <0>        -0.1322
       9  C9         -2.3030   30.1960   53.1530  C.3       1 <0>        -0.1150
      10  C10        -2.9270   29.1330   52.2460  C.3       1 <0>        -0.1234
      11  C11        -1.8670   28.6020   51.2790  C.3       1 <0>        -0.1234
      12  C12        -1.8130   27.0750   51.3700  C.3       1 <0>        -0.1226
      13  N1         -1.2330   30.9100   56.3630  N.am      1 <0>        -0.7279
      14  C13        -0.1090   31.6250   56.5620  C.2       1 <0>         0.5103
      15  O1          0.8940   31.3650   55.9320  O.2       1 <0>        -0.5312
      16  C14        -0.0960   32.7430   57.5730  C.3       1 <0>        -0.1303
      17  C15         0.9210   32.4260   58.6710  C.3       1 <0>        -0.0807
      18  C16         0.5190   31.1300   59.3920  C.3       1 <0>        -0.1260
      19  C17         1.3430   30.9730   60.6940  C.3       1 <0>        -0.5749
      20  S1          1.7090   32.7150   61.1520  S.o2      1 <0>         2.3674
      21  O2          3.1150   32.9190   61.1140  O.2       1 <0>        -0.9359
      22  O3          0.9860   33.0450   62.3310  O.2       1 <0>        -0.9398
      23  C18         0.9400   33.5770   59.7170  C.3       1 <0>        -0.5775
@<TRIPOS>BOND
     1     1    12 1
     2     1     2 1
     3     2     3 1
     4     3     4 1
     5     4     5 1
     6     5     6 1
     7     6     7 1
     8     7     8 1
     9     7    13 1
    10     8     9 1
    11     9    10 1
    12    10    11 1
    13    11    12 1
    14    13    14 am
    15    14    15 2
    16    14    16 1
    17    16    17 1
    18    17    23 1
    19    17    18 1
    20    18    19 1
    21    19    20 1
    22    20    21 2
    23    20    22 2
    24    20    23 1

@<TRIPOS>MOLECULE
ZINC21507941_replica-1.pdb
 20 22 0 0 0
SMALL
GASTEIGER

@<TRIPOS>ATOM
       1  C1         12.2670   30.0950   64.2200  C.3       1 <0>        -0.1560
       2  C2         13.1280   31.0890   63.4390  C.3       1 <0>        -0.1259
       3  C3         12.2770   32.2940   63.0360  C.3       1 <0>        -0.1144
       4  C4         13.0730   33.5810   63.2630  C.3       1 <0>        -0.1015
       5  C5         14.5070   33.3880   62.7650  C.3       1 <0>        -0.1504
       6  C6         12.4170   34.7300   62.4950  C.3       1 <0>         0.1303
       7  N1         11.1420   34.2760   61.9350  N.pl3     1 <0>        -0.7525
       8  C7         10.4930   35.0430   60.9660  C.ar      1 <0>         0.2346
       9  C8         10.2270   36.3870   61.2060  C.ar      1 <0>        -0.2026
      10  C9          9.5870   37.1470   60.2520  C.ar      1 <0>        -0.0415
      11  C10         9.2020   36.5690   59.0400  C.ar      1 <0>        -0.1266
      12  C11         9.4690   35.2230   58.8060  C.ar      1 <0>        -0.0386
      13  C12        10.1150   34.4660   59.7590  C.ar      1 <0>        -0.1848
      14  C13         8.9440   34.8870   57.4320  C.3       1 <0>        -0.0452
      15  C14         8.3460   36.1630   56.8900  C.ar      1 <0>        -0.0996
      16  C15         8.5100   37.1470   57.8610  C.ar      1 <0>        -0.0384
      17  C16         8.0400   38.4380   57.6120  C.ar      1 <0>        -0.1069
      18  C17         7.4210   38.7260   56.4140  C.ar      1 <0>        -0.1171
      19  C18         7.2620   37.7410   55.4560  C.ar      1 <0>        -0.1226
      20  C19         7.7260   36.4600   55.6960  C.ar      1 <0>        -0.0988
@<TRIPOS>BOND
     1     1     2 1
     2     2     3 1
     3     3     4 1
     4     4     5 1
     5     4     6 1
     6     6     7 1
     7     7     8 1
     8     8    13 ar
     9     8     9 ar
    10     9    10 ar
    11    10    11 ar
    12    11    16 1
    13    11    12 ar
    14    12    13 ar
    15    12    14 1
    16    14    15 1
    17    15    20 ar
    18    15    16 ar
    19    16    17 ar
    20    17    18 ar
    21    18    19 ar
    22    19    20 ar

@<TRIPOS>MOLECULE
ZINC45629132_replica-1.pdb
 19 20 0 0 0
SMALL
GASTEIGER

@<TRIPOS>ATOM
       1  C1          8.8710   37.0570   61.9570  C.3       1 <0>        -0.1773
       2  C2         10.0920   36.7410   61.0910  C.3       1 <0>         0.0910
       3  C3         10.8160   35.5480   61.6600  C.ar      1 <0>        -0.2172
       4  C4         11.8850   35.7350   62.5180  C.ar      1 <0>        -0.0670
       5  C5         12.5510   34.6440   63.0420  C.ar      1 <0>        -0.1909
       6  C6         12.1460   33.3590   62.7070  C.ar      1 <0>         0.2442
       7  C7         11.0720   33.1750   61.8460  C.ar      1 <0>        -0.1926
       8  C8         10.4070   34.2700   61.3290  C.ar      1 <0>        -0.0335
       9  N1         12.8180   32.2530   63.2330  N.pl3     1 <0>        -0.6247
      10  C9         12.0770   31.0280   63.5450  C.3       1 <0>         0.0827
      11  C10        14.2610   32.3170   63.4740  C.3       1 <0>         0.0820
      12  N2          9.6580   36.4410   59.7200  N.4       1 <0>        -0.5086
      13  C11         8.7150   37.4750   59.2690  C.3       1 <0>        -0.0096
      14  C12         8.0720   37.0370   57.9520  C.3       1 <0>        -0.1154
      15  C13         8.2880   38.1220   56.8880  C.3       1 <0>        -0.1113
      16  C14         7.4870   37.7430   55.6400  C.3       1 <0>        -0.0979
      17  C15         7.7640   36.3170   55.2620  C.2       1 <0>        -0.1402
      18  C16         8.2990   35.4460   56.0560  C.2       1 <0>        -0.1703
      19  C17         8.7240   35.7410   57.4660  C.3       1 <0>        -0.0978
@<TRIPOS>BOND
     1     1     2 1
     2     2     3 1
     3     2    12 1
     4     3     8 ar
     5     3     4 ar
     6     4     5 ar
     7     5     6 ar
     8     6     7 ar
     9     6     9 1
    10     7     8 ar
    11     9    10 1
    12     9    11 1
    13    12    13 1
    14    13    14 1
    15    14    19 1
    16    14    15 1
    17    15    16 1
    18    16    17 1
    19    17    18 2
    20    18    19 1

@<TRIPOS>MOLECULE
ZINC20593596_replica-1.pdb
 19 20 0 0 0
SMALL
GASTEIGER

@<TRIPOS>ATOM
       1  C1         11.4890   34.5520   61.3870  C.3       1 <0>        -0.1219
       2  C2         10.5390   35.3840   60.5650  C.ar      1 <0>        -0.0501
       3  C3         10.1520   36.6340   61.0120  C.ar      1 <0>        -0.1438
       4  C4          9.2800   37.3990   60.2590  C.ar      1 <0>        -0.0713
       5  C5          8.8010   36.9200   59.0540  C.ar      1 <0>        -0.1025
       6  C6          9.1840   35.6640   58.6070  C.ar      1 <0>         0.1206
       7  C7         10.0590   34.8970   59.3650  C.ar      1 <0>        -0.2084
       8  O1          8.7100   35.1890   57.4260  O.3       1 <0>        -0.3031
       9  C8          8.0230   33.9360   57.4600  C.3       1 <0>         0.0477
      10  C9          6.7270   34.0860   58.2580  C.3       1 <0>        -0.1468
      11  C10         5.5830   34.4530   57.3100  C.3       1 <0>         0.0458
      12  C11         4.7600   35.5890   57.9190  C.3       1 <0>        -0.1406
      13  C12         3.6290   35.9680   56.9580  C.3       1 <0>        -0.1402
      14  C13         4.2310   36.3660   55.6070  C.3       1 <0>        -0.1496
      15  C14         5.0690   35.2070   55.0640  C.3       1 <0>        -0.0037
      16  N1          6.1370   34.8850   56.0200  N.4       1 <0>        -0.5405
      17  C15         7.8560   37.7580   58.2320  C.3       1 <0>        -0.0505
      18  C16         7.0370   38.6600   59.1560  C.3       1 <0>        -0.1476
      19  C17         8.6580   38.6210   57.2560  C.3       1 <0>        -0.1465
@<TRIPOS>BOND
     1     1     2 1
     2     2     7 ar
     3     2     3 ar
     4     3     4 ar
     5     4     5 ar
     6     5     6 ar
     7     5    17 1
     8     6     7 ar
     9     6     8 1
    10     8     9 1
    11     9    10 1
    12    10    11 1
    13    11    16 1
    14    11    12 1
    15    12    13 1
    16    13    14 1
    17    14    15 1
    18    15    16 1
    19    17    18 1
    20    17    19 1

@<TRIPOS>MOLECULE
ZINC60392876_replica-1.pdb
 18 19 0 0 0
SMALL
GASTEIGER

@<TRIPOS>ATOM
       1  C1         17.4580   34.5670   64.7890  C.3       1 <0>        -0.1651
       2  C2         16.0380   34.0000   64.8360  C.3       1 <0>         0.1174
       3  N1         15.6930   33.4370   63.5290  N.pl3     1 <0>        -0.6762
       4  C3         14.3640   33.2980   63.1630  C.2       1 <0>         0.3862
       5  N2         13.5630   34.1710   62.5810  N.2       1 <0>        -0.5747
       6  C4         12.2980   33.8640   62.3000  C.2       1 <0>         0.1501
       7  C5         11.8250   32.6240   62.6200  C.2       1 <0>        -0.2447
       8  S1         13.2820   31.8880   63.3470  S.3       1 <0>        -0.0187
       9  C6         11.4130   34.8590   61.6460  C.ar      1 <0>        -0.0663
      10  C7         10.8140   34.5620   60.4220  C.ar      1 <0>        -0.0603
      11  C8          9.9910   35.4890   59.8170  C.ar      1 <0>        -0.2126
      12  C9          9.7600   36.7150   60.4240  C.ar      1 <0>         0.1402
      13  C10        10.3540   37.0140   61.6420  C.ar      1 <0>        -0.1577
      14  C11        11.1740   36.0890   62.2560  C.ar      1 <0>        -0.0428
      15  O1          8.9480   37.6270   59.8250  O.3       1 <0>        -0.3097
      16  C12         7.7870   37.1240   59.1600  C.3       1 <0>         0.0758
      17  C13         6.5330   37.5710   59.9150  C.3       1 <0>        -0.1820
      18  C14         7.7430   37.6670   57.7310  C.3       1 <0>        -0.1499
@<TRIPOS>BOND
     1     1     2 1
     2     2     3 1
     3     3     4 1
     4     4     8 1
     5     4     5 2
     6     5     6 1
     7     6     7 2
     8     6     9 1
     9     7     8 1
    10     9    14 ar
    11     9    10 ar
    12    10    11 ar
    13    11    12 ar
    14    12    13 ar
    15    12    15 1
    16    13    14 ar
    17    15    16 1
    18    16    17 1
    19    16    18 1

@<TRIPOS>MOLECULE
ZINC37089053_replica-1.pdb
 19 19 0 0 0
SMALL
GASTEIGER

@<TRIPOS>ATOM
       1  C1          7.9340   37.4320   57.4230  C.3       1 <0>        -0.1104
       2  C2          8.7630   36.7240   58.4630  C.ar      1 <0>        -0.1707
       3  C3          9.1720   35.4130   58.2470  C.ar      1 <0>         0.2568
       4  C4          9.9350   34.7580   59.2010  C.ar      1 <0>        -0.1673
       5  C5         10.2910   35.4190   60.3790  C.ar      1 <0>         0.0453
       6  C6          9.8760   36.7360   60.5880  C.ar      1 <0>        -0.1694
       7  C7          9.1190   37.3820   59.6270  C.ar      1 <0>         0.1473
       8  F1          8.7220   38.6570   59.8280  F         1 <0>        -0.1307
       9  C8         11.0790   34.7490   61.3700  C.1       1 <0>         0.2540
      10  N1         11.7030   34.2170   62.1540  N.1       1 <0>        -0.4073
      11  N2          8.8140   34.7550   57.0690  N.pl3     1 <0>        -0.7129
      12  C9          7.6910   33.8140   57.0680  C.3       1 <0>         0.1432
      13  C10         8.2180   32.3910   56.8690  C.3       1 <0>        -0.1735
      14  C11         6.7320   34.1650   55.9290  C.3       1 <0>        -0.1147
      15  C12         5.3940   34.6240   56.5120  C.3       1 <0>         0.1132
      16  C13         4.9590   35.9240   55.8310  C.3       1 <0>        -0.1804
      17  C14         4.3360   33.5450   56.2740  C.3       1 <0>        -0.1835
      18  O1          5.5380   34.8480   57.9160  O.3       1 <0>        -0.3727
      19  C15         4.6910   35.8780   58.4310  C.3       1 <0>         0.0262
@<TRIPOS>BOND
     1     1     2 1
     2     2     7 ar
     3     2     3 ar
     4     3     4 ar
     5     3    11 1
     6     4     5 ar
     7     5     6 ar
     8     5     9 1
     9     6     7 ar
    10     7     8 1
    11     9    10 3
    12    11    12 1
    13    12    13 1
    14    12    14 1
    15    14    15 1
    16    15    16 1
    17    15    17 1
    18    15    18 1
    19    18    19 1

@<TRIPOS>MOLECULE
ZINC37293981_replica-1.pdb
 19 20 0 0 0
SMALL
GASTEIGER

@<TRIPOS>ATOM
       1  C1         17.1840   34.5380   64.6140  C.3       1 <0>        -0.1542
       2  C2         15.7830   33.9490   64.7920  C.3       1 <0>        -0.1254
       3  C3         15.1410   33.7350   63.4200  C.3       1 <0>        -0.1192
       4  C4         14.1690   32.5560   63.4890  C.3       1 <0>        -0.1276
       5  C5         12.8890   32.9040   62.7270  C.3       1 <0>         0.1459
       6  C6         11.7330   32.0520   63.2550  C.3       1 <0>        -0.1710
       7  N1         12.5770   34.3220   62.9180  N.pl3     1 <0>        -0.7380
       8  C7         11.6980   34.9680   62.0450  C.ar      1 <0>         0.2285
       9  C8         11.3150   34.3470   60.8620  C.ar      1 <0>        -0.1998
      10  C9         10.4480   34.9830   59.9990  C.ar      1 <0>        -0.0375
      11  C10         9.9560   36.2490   60.3120  C.ar      1 <0>        -0.0801
      12  C11        10.3430   36.8690   61.4990  C.ar      1 <0>        -0.0549
      13  C12        11.2050   36.2280   62.3630  C.ar      1 <0>        -0.1966
      14  C13         9.0240   36.9350   59.3850  C.2       1 <0>         0.0449
      15  C14         8.5370   38.1930   59.5200  C.2       1 <0>        -0.0794
      16  O1          7.7320   38.4170   58.4640  O.3       1 <0>        -0.2016
      17  C15         7.7310   37.3160   57.7020  C.2       1 <0>         0.1945
      18  N2          8.5070   36.4240   58.2440  N.2       1 <0>        -0.4806
      19  C16         6.9580   37.1400   56.4210  C.3       1 <0>        -0.0584
@<TRIPOS>BOND
     1     1     2 1
     2     2     3 1
     3     3     4 1
     4     4     5 1
     5     5     6 1
     6     5     7 1
     7     7     8 1
     8     8    13 ar
     9     8     9 ar
    10     9    10 ar
    11    10    11 ar
    12    11    12 ar
    13    11    14 1
    14    12    13 ar
    15    14    18 1
    16    14    15 2
    17    15    16 1
    18    16    17 1
    19    17    18 2
    20    17    19 1

@<TRIPOS>MOLECULE
ZINC49497130_replica-1.pdb
 21 21 0 0 0
SMALL
GASTEIGER

@<TRIPOS>ATOM
       1  C1          9.9270   36.0680   59.9640  C.3       1 <0>        -0.1518
       2  C2          9.0960   37.3420   60.1350  C.3       1 <0>        -0.0932
       3  C3          7.8290   37.2430   59.2820  C.3       1 <0>        -0.1175
       4  C4          7.5850   38.5790   58.5770  C.3       1 <0>        -0.0984
       5  C5          8.6520   38.7910   57.5010  C.3       1 <0>        -0.1535
       6  C6          8.0020   36.1390   58.2370  C.3       1 <0>        -0.1023
       7  C7          6.6560   35.7730   57.6660  C.2       1 <0>         0.4963
       8  O1          6.1420   36.4810   56.8260  O.2       1 <0>        -0.4399
       9  N1          6.0260   34.6590   58.0880  N.am      1 <0>        -0.6224
      10  C8          4.7850   34.3220   57.5610  C.2       1 <0>         0.2614
      11  N2          3.5910   34.6760   57.9870  N.2       1 <0>        -0.5635
      12  C9          2.4980   34.2690   57.3710  C.2       1 <0>         0.0992
      13  C10         2.6620   33.4720   56.2860  C.2       1 <0>        -0.3044
      14  S1          4.4430   33.3650   56.2180  S.3       1 <0>         0.2244
      15  C11         1.1280   34.6700   57.8520  C.3       1 <0>         0.0053
      16  C12         0.5440   35.7260   56.9100  C.3       1 <0>        -0.1356
      17  C13         0.2140   33.4420   57.8700  C.3       1 <0>        -0.1246
      18  C14         1.2310   35.2490   59.2650  C.3       1 <0>        -0.1366
      19  C15         6.6520   36.9190   60.1660  C.2       1 <0>         0.5113
      20  O2          5.7000   37.6790   60.2160  O.co2     1 <0>        -0.6661
      21  O3          6.6530   35.8970   60.8320  O.co2     1 <0>        -0.7114
@<TRIPOS>BOND
     1     1     2 1
     2     2     3 1
     3     3     4 1
     4     3     6 1
     5     3    19 1
     6     4     5 1
     7     6     7 1
     8     7     8 2
     9     7     9 am
    10     9    10 1
    11    10    14 1
    12    10    11 2
    13    11    12 1
    14    12    13 2
    15    12    15 1
    16    13    14 1
    17    15    16 1
    18    15    17 1
    19    15    18 1
    20    19    20 2
    21    19    21 1

@<TRIPOS>MOLECULE
ZINC00696675_replica-1.pdb
 25 27 0 0 0
SMALL
GASTEIGER

@<TRIPOS>ATOM
       1  C1         -0.9390   25.3640   51.2980  C.3       1 <0>        -0.1479
       2  C2         -0.7230   26.8360   51.6580  C.3       1 <0>        -0.0830
       3  C3         -0.4120   26.9530   53.1280  C.ar      1 <0>        -0.0911
       4  C4          0.2870   25.9540   53.7680  C.ar      1 <0>        -0.0991
       5  C5          0.5840   26.0530   55.1200  C.ar      1 <0>        -0.1398
       6  C6          0.1770   27.1400   55.8430  C.ar      1 <0>        -0.0760
       7  C7         -0.5370   28.1610   55.2140  C.ar      1 <0>        -0.0920
       8  C8         -0.8360   28.0690   53.8420  C.ar      1 <0>         0.1029
       9  N1         -1.5380   29.2020   53.5030  N.pl3     1 <0>        -0.5896
      10  C9         -1.6930   30.0020   54.6020  C.2       1 <0>         0.0674
      11  C10        -1.1110   29.4300   55.6690  C.2       1 <0>        -0.1702
      12  C11        -1.0580   29.9880   57.0670  C.3       1 <0>         0.0926
      13  C12         0.3780   30.3980   57.4000  C.3       1 <0>        -0.1349
      14  C13         0.4100   31.8550   57.7800  C.2       1 <0>         0.5131
      15  O1          0.0690   32.6990   56.9780  O.2       1 <0>        -0.5255
      16  N2          0.8180   32.2220   59.0110  N.am      1 <0>        -0.7278
      17  C14         0.8490   33.6390   59.3810  C.3       1 <0>         0.1411
      18  C15         2.2940   34.1410   59.3590  C.3       1 <0>        -0.1642
      19  C16         0.2690   33.8130   60.7860  C.3       1 <0>        -0.1321
      20  C17         0.8410   32.7360   61.7110  C.3       1 <0>        -0.1530
      21  C18        -1.5190   28.9370   58.0440  C.2       1 <0>        -0.1081
      22  C19        -2.5270   28.0390   57.9200  C.2       1 <0>        -0.1390
      23  C20        -2.7730   27.1590   58.9570  C.2       1 <0>        -0.1481
      24  C21        -1.9980   27.2210   60.0680  C.2       1 <0>        -0.1800
      25  S1         -0.8760   28.5480   59.6640  S.3       1 <0>         0.0035
@<TRIPOS>BOND
     1     1     2 1
     2     2     3 1
     3     3     8 ar
     4     3     4 ar
     5     4     5 ar
     6     5     6 ar
     7     6     7 ar
     8     7    11 1
     9     7     8 ar
    10     8     9 1
    11     9    10 1
    12    10    11 2
    13    11    12 1
    14    12    13 1
    15    12    21 1
    16    13    14 1
    17    14    15 2
    18    14    16 am
    19    16    17 1
    20    17    18 1
    21    17    19 1
    22    19    20 1
    23    21    25 1
    24    21    22 2
    25    22    23 1
    26    23    24 2
    27    24    25 1

@<TRIPOS>MOLECULE
ZINC58011212_replica-1.pdb
 20 21 0 0 0
SMALL
GASTEIGER

@<TRIPOS>ATOM
       1  C1          6.5120   36.6990   57.4310  C.3       1 <0>        -0.1670
       2  C2          7.9820   36.8500   57.0350  C.3       1 <0>        -0.0615
       3  C3          8.1720   36.3840   55.5910  C.3       1 <0>        -0.1589
       4  C4          8.3930   38.3200   57.1550  C.3       1 <0>        -0.1401
       5  C5          8.8500   36.0000   57.9640  C.3       1 <0>        -0.1159
       6  C6          8.5980   36.4100   59.4160  C.3       1 <0>         0.1566
       7  C7          8.8360   37.9140   59.5690  C.3       1 <0>        -0.1902
       8  C8          7.1530   36.0810   59.7960  C.3       1 <0>        -0.1673
       9  N1          9.5140   35.6790   60.2950  N.pl3     1 <0>        -0.3894
      10  C9         10.5030   36.2550   61.0260  C.2       1 <0>        -0.0482
      11  C10        11.1570   35.2740   61.7280  C.ar      1 <0>        -0.1144
      12  C11        12.2760   35.2480   62.6640  C.ar      1 <0>        -0.1244
      13  C12        12.6750   34.0670   63.1850  C.ar      1 <0>        -0.0728
      14  C13        12.0060   32.8220   62.8260  C.ar      1 <0>        -0.1491
      15  C14        10.9430   32.8060   61.9430  C.ar      1 <0>        -0.0553
      16  C15        10.4870   34.0060   61.3730  C.ar      1 <0>        -0.1260
      17  C16         9.4820   34.3470   60.4890  C.2       1 <0>        -0.0233
      18  C17        12.4720   31.5580   63.4140  C.2       1 <0>         0.5204
      19  O1         11.6650   30.6820   63.7000  O.co2     1 <0>        -0.6946
      20  O2         13.6650   31.3810   63.6190  O.co2     1 <0>        -0.6948
@<TRIPOS>BOND
     1     1     2 1
     2     2     3 1
     3     2     4 1
     4     2     5 1
     5     5     6 1
     6     6     7 1
     7     6     8 1
     8     6     9 1
     9     9    17 1
    10     9    10 1
    11    10    11 2
    12    11    16 ar
    13    11    12 ar
    14    12    13 ar
    15    13    14 ar
    16    14    15 ar
    17    14    18 1
    18    15    16 ar
    19    16    17 2
    20    18    19 2
    21    18    20 1

@<TRIPOS>MOLECULE
ZINC36589290_replica-1.pdb
 24 23 0 0 0
SMALL
GASTEIGER

@<TRIPOS>ATOM
       1  C1         10.1710   35.1750   59.7460  C.3       1 <0>        -0.1535
       2  C2          9.3770   33.9060   60.0620  C.3       1 <0>        -0.1250
       3  C3          7.9260   34.2770   60.3740  C.3       1 <0>        -0.1181
       4  C4          6.9950   33.1850   59.8470  C.3       1 <0>        -0.1155
       5  C5          5.5980   33.7670   59.6260  C.3       1 <0>        -0.1655
       6  C6          5.2440   33.6970   58.1390  C.3       1 <0>         0.1249
       7  C7          3.7640   33.9140   57.9630  C.2       1 <0>         0.5098
       8  O1          3.2820   33.9420   56.8510  O.2       1 <0>        -0.5192
       9  N1          2.9740   34.0780   59.0440  N.am      1 <0>        -0.7239
      10  C8          1.5340   34.2890   58.8730  C.3       1 <0>         0.1697
      11  C9          1.2980   35.5740   58.0770  C.3       1 <0>        -0.1642
      12  C10         0.9320   33.1040   58.1170  C.3       1 <0>        -0.1567
      13  C11         0.8700   34.4100   60.2460  C.3       1 <0>        -0.1634
      14  N2          5.9790   34.7370   57.4140  N.am      1 <0>        -0.5777
      15  C12         5.8930   36.0230   57.8100  C.2       1 <0>         0.5584
      16  O2          5.1240   36.3360   58.6980  O.2       1 <0>        -0.5416
      17  C13         6.7280   37.0480   57.1660  C.2       1 <0>        -0.2503
      18  C14         7.5390   37.8040   57.9020  C.2       1 <0>        -0.0325
      19  C15         7.4770   37.7320   59.4060  C.3       1 <0>        -0.1256
      20  C16         8.5190   38.7320   57.2320  C.3       1 <0>        -0.1293
      21  C17         6.8080   34.3800   56.2610  C.3       1 <0>         0.1761
      22  C18         8.2800   34.6430   56.5900  C.3       1 <0>        -0.1683
      23  C19         6.6150   32.8980   55.9340  C.3       1 <0>        -0.1808
      24  C20         6.3960   35.2260   55.0550  C.3       1 <0>        -0.1787
@<TRIPOS>BOND
     1     1     2 1
     2     2     3 1
     3     3     4 1
     4     4     5 1
     5     5     6 1
     6     6     7 1
     7     6    14 1
     8     7     8 2
     9     7     9 am
    10     9    10 1
    11    10    11 1
    12    10    12 1
    13    10    13 1
    14    14    15 am
    15    14    21 1
    16    15    16 2
    17    15    17 1
    18    17    18 2
    19    18    19 1
    20    18    20 1
    21    21    22 1
    22    21    23 1
    23    21    24 1

@<TRIPOS>MOLECULE
ZINC03199897_replica-1.pdb
 25 26 0 0 0
SMALL
GASTEIGER

@<TRIPOS>ATOM
       1  C1          4.8610   36.1950   59.2510  C.3       1 <0>        -0.1546
       2  C2          3.7640   35.2610   58.7360  C.3       1 <0>        -0.1256
       3  C3          2.8130   36.0430   57.8280  C.3       1 <0>        -0.1216
       4  C4          2.9130   35.5050   56.4000  C.3       1 <0>        -0.1204
       5  C5          3.9670   36.3030   55.6280  C.3       1 <0>        -0.1132
       6  C6          5.2070   35.4330   55.4110  C.3       1 <0>        -0.1039
       7  C7          5.0440   34.6250   54.1210  C.3       1 <0>        -0.1510
       8  C8          6.4440   36.3260   55.3000  C.3       1 <0>         0.1225
       9  N1          7.2540   36.1900   56.5130  N.am      1 <0>        -0.7259
      10  C9          7.7520   37.2880   57.1170  C.2       1 <0>         0.5489
      11  O1          7.5270   38.3920   56.6540  O.2       1 <0>        -0.5464
      12  C10         8.5350   37.1570   58.2880  C.2       1 <0>        -0.2135
      13  C11         9.0300   35.9420   58.6390  C.2       1 <0>         0.0170
      14  C12         9.8120   35.8100   59.8100  C.2       1 <0>        -0.0079
      15  C13         9.9730   36.7720   60.7900  C.2       1 <0>        -0.1497
      16  C14        10.8240   36.2270   61.7540  C.2       1 <0>        -0.1911
      17  C15        11.1510   34.9580   61.3310  C.2       1 <0>         0.0493
      18  O2         10.5330   34.7250   60.1600  O.3       1 <0>        -0.1567
      19  C16        12.0320   34.0130   62.0440  C.ar      1 <0>        -0.0350
      20  C17        11.5110   32.8290   62.5710  C.ar      1 <0>        -0.0639
      21  C18        12.3400   31.9480   63.2320  C.ar      1 <0>        -0.1488
      22  C19        13.6870   32.2400   63.3830  C.ar      1 <0>         0.1103
      23  C20        14.2090   33.4150   62.8660  C.ar      1 <0>        -0.1500
      24  C21        13.3910   34.3020   62.1990  C.ar      1 <0>        -0.0698
      25  F1         14.4930   31.3760   64.0370  F         1 <0>        -0.1338
@<TRIPOS>BOND
     1     1     2 1
     2     2     3 1
     3     3     4 1
     4     4     5 1
     5     5     6 1
     6     6     7 1
     7     6     8 1
     8     8     9 1
     9     9    10 am
    10    10    11 2
    11    10    12 1
    12    12    13 2
    13    13    14 1
    14    14    18 1
    15    14    15 2
    16    15    16 1
    17    16    17 2
    18    17    18 1
    19    17    19 1
    20    19    24 ar
    21    19    20 ar
    22    20    21 ar
    23    21    22 ar
    24    22    23 ar
    25    22    25 1
    26    23    24 ar

@<TRIPOS>MOLECULE
ZINC51597844_replica-1.pdb
 17 17 0 0 0
SMALL
GASTEIGER

@<TRIPOS>ATOM
       1  C1         -0.4720   24.7750   51.4540  C.3       1 <0>        -0.1254
       2  C2         -0.7350   26.1300   52.0580  C.ar      1 <0>        -0.0017
       3  C3         -1.4700   27.0670   51.3510  C.ar      1 <0>        -0.1721
       4  C4         -1.7170   28.3100   51.8920  C.ar      1 <0>        -0.0414
       5  C5         -1.2240   28.6270   53.1610  C.ar      1 <0>        -0.1695
       6  C6         -0.4820   27.6760   53.8730  C.ar      1 <0>         0.2112
       7  C7         -0.2480   26.4280   53.3150  C.ar      1 <0>        -0.2278
       8  O1          0.0020   27.9720   55.1060  O.3       1 <0>        -0.2185
       9  C8         -0.6320   27.3390   56.2210  C.3       1 <0>         0.0525
      10  C9         -1.5880   28.3270   56.8920  C.3       1 <0>        -0.1766
      11  C10         0.4330   26.8950   57.2270  C.3       1 <0>        -0.1023
      12  C11        -0.1750   25.8800   58.1970  C.3       1 <0>        -0.0981
      13  C12        -0.1220   24.4850   57.5710  C.3       1 <0>        -0.1454
      14  C13         0.6210   25.8840   59.5030  C.3       1 <0>        -0.1498
      15  C14        -1.4840   29.9540   53.7470  C.2       1 <0>         0.3876
      16  S1         -3.0940   30.4920   53.9680  S.2       1 <0>        -0.5147
      17  N1         -0.4540   30.7430   54.1110  N.pl3     1 <0>        -0.7762
@<TRIPOS>BOND
     1     1     2 1
     2     2     7 ar
     3     2     3 ar
     4     3     4 ar
     5     4     5 ar
     6     5     6 ar
     7     5    15 1
     8     6     7 ar
     9     6     8 1
    10     8     9 1
    11     9    10 1
    12     9    11 1
    13    11    12 1
    14    12    13 1
    15    12    14 1
    16    15    16 2
    17    15    17 1

@<TRIPOS>MOLECULE
ZINC36958893_replica-1.pdb
 18 18 0 0 0
SMALL
GASTEIGER

@<TRIPOS>ATOM
       1  C1          5.3880   35.6210   58.0110  C.3       1 <0>        -0.1543
       2  C2          5.7300   36.2310   56.6490  C.3       1 <0>        -0.1204
       3  C3          6.8150   35.3910   55.9740  C.3       1 <0>        -0.0978
       4  C4          7.7400   36.3050   55.1680  C.3       1 <0>        -0.1492
       5  C5          7.6290   34.6550   57.0400  C.3       1 <0>         0.1496
       6  C6          7.8970   33.2210   56.5790  C.3       1 <0>        -0.1738
       7  N1          8.9030   35.3470   57.2480  N.pl3     1 <0>        -0.7344
       8  C7          9.2590   35.7880   58.5270  C.ar      1 <0>         0.1839
       9  C8          9.9990   34.9670   59.3610  C.ar      1 <0>        -0.1132
      10  C9         10.3520   35.4110   60.6370  C.ar      1 <0>        -0.0888
      11  C10         9.9580   36.6820   61.0640  C.ar      1 <0>        -0.0929
      12  C11         9.2220   37.4930   60.2260  C.ar      1 <0>        -0.1167
      13  C12         8.8750   37.0550   58.9590  C.ar      1 <0>         0.0543
      14  F1          8.1590   37.8570   58.1410  F         1 <0>        -0.1358
      15  C13        11.1410   34.5410   61.5320  C.2       1 <0>         0.5091
      16  O1         12.0670   35.0030   62.1670  O.2       1 <0>        -0.5008
      17  O2         10.8330   33.2340   61.6430  O.3       1 <0>        -0.3475
      18  C14        11.3640   32.5360   62.7710  C.3       1 <0>         0.0339
@<TRIPOS>BOND
     1     1     2 1
     2     2     3 1
     3     3     4 1
     4     3     5 1
     5     5     6 1
     6     5     7 1
     7     7     8 1
     8     8    13 ar
     9     8     9 ar
    10     9    10 ar
    11    10    11 ar
    12    10    15 1
    13    11    12 ar
    14    12    13 ar
    15    13    14 1
    16    15    16 2
    17    15    17 1
    18    17    18 1

@<TRIPOS>MOLECULE
ZINC48488753_replica-1.pdb
 18 18 0 0 0
SMALL
GASTEIGER

@<TRIPOS>ATOM
       1  C1         14.4660   32.2810   63.7690  C.2       1 <0>        -0.1576
       2  C2         13.4460   31.4610   63.7320  C.2       1 <0>        -0.1835
       3  C3         12.1720   31.8750   63.0420  C.3       1 <0>         0.1641
       4  N1         12.3010   33.2540   62.5640  N.am      1 <0>        -0.7366
       5  C4         11.2990   33.8210   61.8630  C.2       1 <0>         0.7033
       6  O1         10.2880   33.1880   61.6270  O.2       1 <0>        -0.5694
       7  N2         11.4180   35.0890   61.4220  N.am      1 <0>        -0.6864
       8  C5         10.4200   35.6460   60.6110  C.ar      1 <0>         0.1764
       9  C6         10.1010   35.0550   59.3960  C.ar      1 <0>        -0.1275
      10  C7          9.1180   35.6040   58.5970  C.ar      1 <0>        -0.0610
      11  C8          8.4460   36.7480   59.0110  C.ar      1 <0>        -0.1237
      12  C9          8.7650   37.3390   60.2260  C.ar      1 <0>        -0.1001
      13  C10         9.7450   36.7870   61.0270  C.ar      1 <0>        -0.0966
      14  S1          7.1910   37.4490   57.9920  S.3       1 <0>        -0.0255
      15  C11         8.0920   38.0580   56.5400  C.3       1 <0>         0.4520
      16  F1          7.2450   38.8600   55.7680  F         1 <0>        -0.1631
      17  F2          9.1960   38.8100   56.9570  F         1 <0>        -0.1449
      18  F3          8.5310   36.9720   55.7760  F         1 <0>        -0.1621
@<TRIPOS>BOND
     1     1     2 2
     2     2     3 1
     3     3     4 1
     4     4     5 am
     5     5     6 2
     6     5     7 am
     7     7     8 1
     8     8    13 ar
     9     8     9 ar
    10     9    10 ar
    11    10    11 ar
    12    11    12 ar
    13    11    14 1
    14    12    13 ar
    15    14    15 1
    16    15    16 1
    17    15    17 1
    18    15    18 1

@<TRIPOS>MOLECULE
ZINC47414096_replica-1.pdb
 20 20 0 0 0
SMALL
GASTEIGER

@<TRIPOS>ATOM
       1  C1         13.5770   34.1900   62.2210  C.3       1 <0>        -0.1541
       2  C2         12.2970   35.0140   62.3740  C.3       1 <0>         0.0495
       3  O1         11.2610   34.4390   61.5740  O.3       1 <0>        -0.3084
       4  C3         10.5060   35.2930   60.8360  C.ar      1 <0>         0.1900
       5  C4         10.1140   36.5120   61.3690  C.ar      1 <0>        -0.2307
       6  C5          9.3460   37.3790   60.6150  C.ar      1 <0>         0.0247
       7  C6          8.9680   37.0330   59.3320  C.ar      1 <0>        -0.7198
       8  C7          9.3580   35.8180   58.7980  C.ar      1 <0>         0.0169
       9  C8         10.1310   34.9500   59.5450  C.ar      1 <0>        -0.1714
      10  S1          7.9880   38.1400   58.3730  S.o2      1 <0>         2.7008
      11  O2          7.1660   38.8520   59.2880  O.2       1 <0>        -0.9510
      12  O3          8.8770   38.7950   57.4780  O.2       1 <0>        -0.9527
      13  N1          6.9740   37.2180   57.4440  N.pl3     1 <0>        -1.1155
      14  C9          7.1340   37.1960   55.9880  C.3       1 <0>         0.1339
      15  C10         6.3060   36.0490   55.4020  C.3       1 <0>        -0.1116
      16  S2          5.1870   35.4000   56.6740  S.3       1 <0>        -0.1466
      17  C11         3.5530   36.0060   56.1710  C.3       1 <0>         0.4681
      18  F1          2.8410   36.4210   57.3010  F         1 <0>        -0.1670
      19  F2          3.7070   37.0870   55.2950  F         1 <0>        -0.1451
      20  F3          2.8530   34.9810   55.5280  F         1 <0>        -0.1659
@<TRIPOS>BOND
     1     1     2 1
     2     2     3 1
     3     3     4 1
     4     4     9 ar
     5     4     5 ar
     6     5     6 ar
     7     6     7 ar
     8     7     8 ar
     9     7    10 1
    10     8     9 ar
    11    10    11 2
    12    10    12 2
    13    10    13 1
    14    13    14 1
    15    14    15 1
    16    15    16 1
    17    16    17 1
    18    17    18 1
    19    17    19 1
    20    17    20 1

@<TRIPOS>MOLECULE
ZINC61839525_replica-1.pdb
 18 19 0 0 0
SMALL
GASTEIGER

@<TRIPOS>ATOM
       1  C1         14.6770   33.9770   62.0000  C.3       1 <0>        -0.1477
       2  C2         14.0590   33.5890   63.3450  C.3       1 <0>        -0.0650
       3  C3         13.7470   32.0900   63.3490  C.3       1 <0>        -0.1477
       4  C4         15.0440   33.9080   64.4700  C.3       1 <0>        -0.1429
       5  C5         12.7670   34.3800   63.5580  C.3       1 <0>        -0.1212
       6  C6         11.9470   34.3780   62.2660  C.3       1 <0>         0.1154
       7  N1         11.3240   35.6900   62.0810  N.pl3     1 <0>        -0.7406
       8  C7         10.5110   35.9250   60.9720  C.ar      1 <0>         0.2406
       9  C8         10.4120   34.9680   59.9680  C.ar      1 <0>        -0.2017
      10  C9          9.6110   35.1990   58.8710  C.ar      1 <0>        -0.0149
      11  C10         8.8970   36.3950   58.7690  C.ar      1 <0>        -0.0875
      12  C11         8.9980   37.3530   59.7780  C.ar      1 <0>        -0.0367
      13  C12         9.7980   37.1150   60.8750  C.ar      1 <0>        -0.1965
      14  C13         8.0360   36.6440   57.5930  C.2       1 <0>         0.1799
      15  N2          8.1610   37.5530   56.6360  N.2       1 <0>        -0.5135
      16  C14         7.2920   37.6330   55.6560  C.2       1 <0>         0.0332
      17  C15         6.2400   36.7730   55.6110  C.2       1 <0>        -0.2113
      18  S1          6.5490   35.7980   57.0770  S.3       1 <0>        -0.0113
@<TRIPOS>BOND
     1     1     2 1
     2     2     3 1
     3     2     4 1
     4     2     5 1
     5     5     6 1
     6     6     7 1
     7     7     8 1
     8     8    13 ar
     9     8     9 ar
    10     9    10 ar
    11    10    11 ar
    12    11    12 ar
    13    11    14 1
    14    12    13 ar
    15    14    18 1
    16    14    15 2
    17    15    16 1
    18    16    17 2
    19    17    18 1

@<TRIPOS>MOLECULE
ZINC20560526_replica-1.pdb
 19 19 0 0 0
SMALL
GASTEIGER

@<TRIPOS>ATOM
       1  C1         -2.7590   27.0440   58.3120  C.3       1 <0>        -0.1556
       2  C2         -3.0930   27.9570   57.1300  C.3       1 <0>        -0.1198
       3  C3         -1.8800   28.8280   56.8000  C.3       1 <0>        -0.0932
       4  C4         -1.2480   29.3350   58.0990  C.3       1 <0>        -0.1513
       5  C5         -2.3250   30.0210   55.9500  C.3       1 <0>        -0.1235
       6  C6         -1.6260   29.9680   54.5910  C.3       1 <0>         0.1488
       7  C7         -0.7900   31.2350   54.3990  C.3       1 <0>        -0.1403
       8  C8          0.3960   31.2160   55.3660  C.3       1 <0>        -0.1610
       9  N1         -0.7520   28.7940   54.5370  N.pl3     1 <0>        -0.7425
      10  C9         -0.8500   27.8990   53.4690  C.ar      1 <0>         0.2771
      11  C10        -1.5260   28.2670   52.3120  C.ar      1 <0>        -0.2052
      12  C11        -1.6210   27.3800   51.2580  C.ar      1 <0>        -0.0432
      13  C12        -1.0430   26.1270   51.3520  C.ar      1 <0>        -0.1845
      14  C13        -0.3690   25.7580   52.5010  C.ar      1 <0>        -0.0271
      15  C14        -0.2660   26.6420   53.5580  C.ar      1 <0>        -0.2722
      16  C15         0.4740   26.2410   54.8080  C.3       1 <0>         0.5121
      17  F1          1.0150   24.9620   54.6390  F         1 <0>        -0.1771
      18  F2          1.5040   27.1550   55.0540  F         1 <0>        -0.1805
      19  F3         -0.4110   26.2330   55.8910  F         1 <0>        -0.1804
@<TRIPOS>BOND
     1     1     2 1
     2     2     3 1
     3     3     4 1
     4     3     5 1
     5     5     6 1
     6     6     7 1
     7     6     9 1
     8     7     8 1
     9     9    10 1
    10    10    15 ar
    11    10    11 ar
    12    11    12 ar
    13    12    13 ar
    14    13    14 ar
    15    14    15 ar
    16    15    16 1
    17    16    17 1
    18    16    18 1
    19    16    19 1

@<TRIPOS>MOLECULE
ZINC48439319_replica-1.pdb
 20 21 0 0 0
SMALL
GASTEIGER

@<TRIPOS>ATOM
       1  C1         12.1170   29.3840   64.4920  C.3       1 <0>        -0.1540
       2  C2         11.9280   30.7460   63.8210  C.3       1 <0>        -0.1256
       3  C3         13.2600   31.2120   63.2300  C.3       1 <0>        -0.1286
       4  C4         13.3690   32.7330   63.3560  C.3       1 <0>         0.1408
       5  C5         14.8200   33.1620   63.1230  C.3       1 <0>        -0.1656
       6  N1         12.5060   33.3690   62.3570  N.am      1 <0>        -0.7234
       7  C6         12.0090   34.6020   62.5820  C.2       1 <0>         0.5858
       8  O1         12.2770   35.1870   63.6150  O.2       1 <0>        -0.5187
       9  C7         11.1430   35.2400   61.5790  C.2       1 <0>         0.0073
      10  C8         10.6050   36.4830   61.6800  C.2       1 <0>        -0.0989
      11  C9          9.8400   36.7170   60.5130  C.ar      1 <0>        -0.1250
      12  C10         9.0720   37.8010   60.0670  C.ar      1 <0>        -0.0560
      13  C11         8.4320   37.7310   58.8640  C.ar      1 <0>        -0.1410
      14  C12         8.5340   36.5930   58.0740  C.ar      1 <0>        -0.0393
      15  C13         9.2820   35.5150   58.4910  C.ar      1 <0>        -0.1355
      16  C14         9.9450   35.5620   59.7140  C.ar      1 <0>         0.1198
      17  N2         10.7520   34.6730   60.3820  N.pl3     1 <0>        -0.5803
      18  C15         7.8180   36.5370   56.7490  C.3       1 <0>        -0.0570
      19  C16         6.4420   35.8940   56.9400  C.3       1 <0>        -0.1452
      20  C17         7.6460   37.9550   56.2030  C.3       1 <0>        -0.1452
@<TRIPOS>BOND
     1     1     2 1
     2     2     3 1
     3     3     4 1
     4     4     5 1
     5     4     6 1
     6     6     7 am
     7     7     8 2
     8     7     9 1
     9     9    17 1
    10     9    10 2
    11    10    11 1
    12    11    16 ar
    13    11    12 ar
    14    12    13 ar
    15    13    14 ar
    16    14    15 ar
    17    14    18 1
    18    15    16 ar
    19    16    17 1
    20    18    19 1
    21    18    20 1

@<TRIPOS>MOLECULE
ZINC03418745_replica-1.pdb
 25 29 0 0 0
SMALL
GASTEIGER

@<TRIPOS>ATOM
       1  C1          6.9860   30.0980   57.4610  C.3       1 <0>        -0.0841
       2  C2          5.9310   31.1050   57.8410  C.ar      1 <0>         0.3473
       3  N1          5.9780   32.3170   57.3160  N.ar      1 <0>        -0.5480
       4  C3          5.0830   33.2470   57.6090  C.ar      1 <0>         0.4019
       5  C4          4.0350   32.9320   58.5180  C.ar      1 <0>        -0.1564
       6  C5          2.9400   33.7970   58.9870  C.2       1 <0>        -0.0923
       7  C6          2.0690   33.2580   59.8530  C.2       1 <0>        -0.1713
       8  S1          2.6350   31.5890   60.0990  S.3       1 <0>         0.1475
       9  C7          4.0460   31.6220   59.0290  C.ar      1 <0>         0.1205
      10  N2          4.9760   30.7530   58.6790  N.ar      1 <0>        -0.4797
      11  C8          0.9960   34.2310   60.2630  C.3       1 <0>        -0.0366
      12  C9          1.0580   35.3460   59.1960  C.3       1 <0>        -0.1189
      13  C10         2.5210   35.2470   58.7240  C.3       1 <0>        -0.0573
      14  N3          5.1650   34.5050   57.0390  N.pl3     1 <0>        -0.4798
      15  C11         4.5840   34.5110   55.6900  C.3       1 <0>         0.0233
      16  C12         6.5530   34.9840   57.0180  C.3       1 <0>         0.1354
      17  C13         6.9230   35.3930   55.5920  C.3       1 <0>        -0.1485
      18  C14         8.2890   36.0870   55.6280  C.3       1 <0>        -0.1163
      19  C15         8.1220   37.4410   56.3160  C.3       1 <0>        -0.0834
      20  C16         7.4130   37.2800   57.6350  C.ar      1 <0>        -0.0667
      21  C17         6.6900   36.1540   57.9560  C.ar      1 <0>        -0.0772
      22  C18         6.0540   36.0730   59.1890  C.ar      1 <0>        -0.0979
      23  C19         6.1440   37.1090   60.0940  C.ar      1 <0>        -0.1291
      24  C20         6.8740   38.2380   59.7730  C.ar      1 <0>        -0.1134
      25  C21         7.5050   38.3230   58.5490  C.ar      1 <0>        -0.1261
@<TRIPOS>BOND
     1     1     2 1
     2     2    10 ar
     3     2     3 ar
     4     3     4 ar
     5     4     5 ar
     6     4    14 1
     7     5     9 ar
     8     5     6 1
     9     6    13 1
    10     6     7 2
    11     7     8 1
    12     7    11 1
    13     8     9 1
    14     9    10 ar
    15    11    12 1
    16    12    13 1
    17    14    15 1
    18    14    16 1
    19    16    21 1
    20    16    17 1
    21    17    18 1
    22    18    19 1
    23    19    20 1
    24    20    25 ar
    25    20    21 ar
    26    21    22 ar
    27    22    23 ar
    28    23    24 ar
    29    24    25 ar

@<TRIPOS>MOLECULE
ZINC32620363_replica-1.pdb
 24 27 0 0 0
SMALL
GASTEIGER

@<TRIPOS>ATOM
       1  C1          9.1060   36.8430   60.7030  C.ar      1 <0>        -0.0886
       2  C2         10.1330   36.7610   61.6190  C.ar      1 <0>        -0.1516
       3  C3         11.0030   35.6820   61.5920  C.ar      1 <0>         0.1364
       4  C4         10.8450   34.6790   60.6490  C.ar      1 <0>        -0.1506
       5  C5          9.8190   34.7490   59.7310  C.ar      1 <0>        -0.0185
       6  C6          8.9390   35.8330   59.7520  C.ar      1 <0>        -0.0884
       7  C7          7.8380   35.9130   58.7710  C.2       1 <0>         0.4362
       8  N1          8.1030   36.2390   57.5240  N.2       1 <0>        -0.4851
       9  C8          7.1190   36.3190   56.6180  C.2       1 <0>         0.3045
      10  S1          7.4770   36.7430   54.9990  S.2       1 <0>        -0.5471
      11  C9          5.7750   36.0510   57.0040  C.2       1 <0>        -0.1542
      12  C10         5.5230   35.7110   58.2790  C.2       1 <0>         0.1861
      13  N2          6.5650   35.6470   59.1690  N.pl3     1 <0>        -0.4736
      14  C11         6.3040   35.2850   60.5640  C.3       1 <0>         0.1236
      15  C12         6.0970   33.7960   60.6670  C.2       1 <0>        -0.2179
      16  C13         6.8380   32.7940   59.9990  C.2       1 <0>        -0.1998
      17  C14         6.3230   31.6100   60.3770  C.2       1 <0>        -0.0231
      18  O1          5.3090   31.8410   61.2260  O.3       1 <0>        -0.1638
      19  C15         5.1660   33.1640   61.4050  C.2       1 <0>        -0.0164
      20  C16         4.1420   35.3940   58.7850  C.3       1 <0>        -0.0914
      21  C17         3.0810   35.9280   57.8230  C.3       1 <0>        -0.1207
      22  C18         3.4290   35.4520   56.4080  C.3       1 <0>        -0.1266
      23  C19         4.7000   36.1710   55.9590  C.3       1 <0>        -0.0630
      24  F1         12.0110   35.6090   62.4900  F         1 <0>        -0.1264
@<TRIPOS>BOND
     1     1     6 ar
     2     1     2 ar
     3     2     3 ar
     4     3     4 ar
     5     3    24 1
     6     4     5 ar
     7     5     6 ar
     8     6     7 1
     9     7    13 1
    10     7     8 2
    11     8     9 1
    12     9    10 2
    13     9    11 1
    14    11    23 1
    15    11    12 2
    16    12    13 1
    17    12    20 1
    18    13    14 1
    19    14    15 1
    20    15    19 2
    21    15    16 1
    22    16    17 2
    23    17    18 1
    24    18    19 1
    25    20    21 1
    26    21    22 1
    27    22    23 1

@<TRIPOS>MOLECULE
ZINC00477681_replica-1.pdb
 22 25 0 0 0
SMALL
GASTEIGER

@<TRIPOS>ATOM
       1  C1          7.0710   38.1450   59.6590  C.3       1 <0>        -0.1198
       2  C2          8.0550   37.0050   59.5920  C.ar      1 <0>        -0.0498
       3  C3          9.2750   37.1060   60.2340  C.ar      1 <0>        -0.1129
       4  C4         10.1780   36.0610   60.1730  C.ar      1 <0>        -0.0913
       5  C5          9.8640   34.9120   59.4710  C.ar      1 <0>        -0.1157
       6  C6          8.6440   34.8020   58.8330  C.ar      1 <0>        -0.0826
       7  C7          7.7370   35.8520   58.8870  C.ar      1 <0>         0.0840
       8  N1          6.5010   35.7470   58.2360  N.am      1 <0>        -0.4670
       9  C8          5.4400   35.2600   58.9080  C.2       1 <0>         0.5596
      10  O1          5.5500   34.9130   60.0710  O.2       1 <0>        -0.5037
      11  C9          4.1830   35.1560   58.2340  C.2       1 <0>        -0.2403
      12  C10         2.9060   34.6570   58.7720  C.2       1 <0>        -0.0688
      13  C11         1.8540   34.6580   57.9390  C.2       1 <0>        -0.1988
      14  S1          2.4800   35.3100   56.4070  S.3       1 <0>         0.1851
      15  C12         4.1620   35.5800   56.8980  C.2       1 <0>         0.1132
      16  N2          5.2450   36.0530   56.2910  N.2       1 <0>        -0.4948
      17  C13         6.3940   36.1390   56.9320  C.2       1 <0>         0.3763
      18  S2          7.8110   36.7680   56.0950  S.3       1 <0>         0.0333
      19  C14         7.3250   38.5020   55.9140  C.3       1 <0>        -0.1502
      20  C15         0.6060   34.1310   58.5960  C.3       1 <0>        -0.0318
      21  C16         0.9100   34.1960   60.1120  C.3       1 <0>        -0.1168
      22  C17         2.4480   34.1020   60.1240  C.3       1 <0>        -0.0632
@<TRIPOS>BOND
     1     1     2 1
     2     2     7 ar
     3     2     3 ar
     4     3     4 ar
     5     4     5 ar
     6     5     6 ar
     7     6     7 ar
     8     7     8 1
     9     8    17 1
    10     8     9 am
    11     9    10 2
    12     9    11 1
    13    11    15 2
    14    11    12 1
    15    12    22 1
    16    12    13 2
    17    13    14 1
    18    13    20 1
    19    14    15 1
    20    15    16 1
    21    16    17 2
    22    17    18 1
    23    18    19 1
    24    20    21 1
    25    21    22 1

@<TRIPOS>MOLECULE
ZINC00846131_replica-1.pdb
 28 32 0 0 0
SMALL
GASTEIGER

@<TRIPOS>ATOM
       1  C1          2.4510   36.0890   58.4550  C.ar      1 <0>        -0.1133
       2  C2          3.3780   35.4130   59.2260  C.ar      1 <0>        -0.1025
       3  C3          4.3930   34.6990   58.6200  C.ar      1 <0>        -0.1158
       4  C4          4.4880   34.6710   57.2340  C.ar      1 <0>        -0.1119
       5  C5          3.5580   35.3560   56.4620  C.ar      1 <0>        -0.0915
       6  C6          2.5420   36.0630   57.0740  C.ar      1 <0>        -0.1030
       7  S1          5.7860   33.7670   56.4570  S.3       1 <0>         0.0296
       8  C7          7.1830   34.6520   57.0660  C.2       1 <0>        -0.0063
       9  C8          7.6100   35.8550   56.4890  C.2       1 <0>        -0.1394
      10  C9          8.8230   36.5620   57.0260  C.3       1 <0>        -0.0782
      11  C10         8.9460   36.4420   58.5440  C.3       1 <0>        -0.0668
      12  C11         8.8120   34.9740   58.9360  C.2       1 <0>        -0.0086
      13  C12         7.9670   34.1770   58.1930  C.2       1 <0>        -0.1942
      14  S2          8.0980   32.5770   58.9270  S.3       1 <0>         0.2334
      15  C13         9.2640   32.9900   60.2040  C.2       1 <0>         0.1065
      16  C14         9.4970   34.3690   60.0010  C.2       1 <0>        -0.2482
      17  C15        10.4490   34.9880   60.9530  C.2       1 <0>         0.5582
      18  O1         10.7180   36.1730   60.8850  O.2       1 <0>        -0.5095
      19  N1         11.0070   34.2080   61.8960  N.am      1 <0>        -0.5289
      20  C16        10.7050   32.8810   61.9890  C.2       1 <0>         0.4238
      21  N2          9.8630   32.3120   61.1740  N.2       1 <0>        -0.4932
      22  C17        11.3810   32.0740   63.0740  C.3       1 <0>        -0.0752
      23  C18        12.8430   31.8500   62.6910  C.3       1 <0>        -0.1184
      24  C19        13.7160   32.9950   63.1750  C.3       1 <0>        -0.1265
      25  C20        13.3740   34.3060   62.4870  C.3       1 <0>        -0.1381
      26  C21        11.9670   34.7700   62.8540  C.3       1 <0>         0.0853
      27  C22         6.9080   36.4000   55.4200  C.2       1 <0>         0.3585
      28  O2          6.3610   37.4790   55.5390  O.2       1 <0>        -0.4460
@<TRIPOS>BOND
     1     1     6 ar
     2     1     2 ar
     3     2     3 ar
     4     3     4 ar
     5     4     5 ar
     6     4     7 1
     7     5     6 ar
     8     7     8 1
     9     8    13 1
    10     8     9 2
    11     9    10 1
    12     9    27 1
    13    10    11 1
    14    11    12 1
    15    12    16 1
    16    12    13 2
    17    13    14 1
    18    14    15 1
    19    15    21 1
    20    15    16 2
    21    16    17 1
    22    17    18 2
    23    17    19 am
    24    19    26 1
    25    19    20 1
    26    20    21 2
    27    20    22 1
    28    22    23 1
    29    23    24 1
    30    24    25 1
    31    25    26 1
    32    27    28 2

@<TRIPOS>MOLECULE
ZINC37067735_replica-1.pdb
 17 17 0 0 0
SMALL
GASTEIGER

@<TRIPOS>ATOM
       1  C1         12.8480   31.0910   63.3280  C.3       1 <0>        -0.1202
       2  S1         14.2700   32.1300   63.7630  S.3       1 <0>        -0.2636
       3  C2         14.1220   33.5630   62.6600  C.3       1 <0>        -0.0835
       4  C3         12.8350   34.3250   62.9850  C.3       1 <0>        -0.1154
       5  C4         11.9430   34.3710   61.7440  C.3       1 <0>         0.1276
       6  N1         11.1800   35.6210   61.7370  N.pl3     1 <0>        -0.7438
       7  C5         10.3270   35.9160   60.6650  C.ar      1 <0>         0.2292
       8  C6         10.1930   35.0140   59.6170  C.ar      1 <0>        -0.1801
       9  C7          9.3520   35.3040   58.5610  C.ar      1 <0>        -0.0304
      10  C8          8.6390   36.4970   58.5470  C.ar      1 <0>        -0.1660
      11  C9          8.7740   37.3980   59.5970  C.ar      1 <0>        -0.0686
      12  C10         9.6110   37.1060   60.6550  C.ar      1 <0>        -0.1723
      13  S2          7.5670   36.8670   57.2000  S.3       1 <0>        -0.0334
      14  C11         7.8830   38.6190   56.8550  C.3       1 <0>         0.4526
      15  F1          7.3340   39.4010   57.8770  F         1 <0>        -0.1647
      16  F2          9.2630   38.8400   56.7870  F         1 <0>        -0.1464
      17  F3          7.2940   38.9670   55.6350  F         1 <0>        -0.1646
@<TRIPOS>BOND
     1     1     2 1
     2     2     3 1
     3     3     4 1
     4     4     5 1
     5     5     6 1
     6     6     7 1
     7     7    12 ar
     8     7     8 ar
     9     8     9 ar
    10     9    10 ar
    11    10    11 ar
    12    10    13 1
    13    11    12 ar
    14    13    14 1
    15    14    15 1
    16    14    16 1
    17    14    17 1

@<TRIPOS>MOLECULE
ZINC35233229_replica-1.pdb
 19 19 0 0 0
SMALL
GASTEIGER

@<TRIPOS>ATOM
       1  C1         11.4260   33.0920   62.6420  C.3       1 <0>        -0.1681
       2  C2         12.1340   34.1060   61.7410  C.3       1 <0>         0.1439
       3  C3         13.5840   34.2720   62.2010  C.3       1 <0>         0.0501
       4  O1         13.7910   33.5250   63.4020  O.3       1 <0>        -0.3886
       5  C4         15.1040   33.6600   63.9500  C.3       1 <0>         0.0306
       6  N1         11.4450   35.3960   61.8230  N.pl3     1 <0>        -0.7208
       7  C5         10.5040   35.7490   60.8520  C.ar      1 <0>         0.2847
       8  C6         10.3560   34.9710   59.7120  C.ar      1 <0>        -0.2184
       9  C7          9.4240   35.3210   58.7550  C.ar      1 <0>         0.0390
      10  C8          8.6400   36.4460   58.9310  C.ar      1 <0>        -0.7147
      11  C9          8.7840   37.2230   60.0660  C.ar      1 <0>         0.0383
      12  C10         9.7100   36.8750   61.0300  C.ar      1 <0>        -0.2121
      13  S1          7.4530   36.8900   57.7070  S.o2      1 <0>         2.4911
      14  O2          7.7000   36.0050   56.6240  O.2       1 <0>        -0.8659
      15  O3          6.2050   36.8720   58.3870  O.2       1 <0>        -0.8661
      16  C11         7.8810   38.5890   57.2370  C.3       1 <0>        -0.0239
      17  F1          7.4420   39.4720   58.2290  F         1 <0>        -0.1586
      18  F2          9.2690   38.6980   57.0970  F         1 <0>        -0.1616
      19  F3          7.2630   38.9070   56.0230  F         1 <0>        -0.1588
@<TRIPOS>BOND
     1     1     2 1
     2     2     3 1
     3     2     6 1
     4     3     4 1
     5     4     5 1
     6     6     7 1
     7     7    12 ar
     8     7     8 ar
     9     8     9 ar
    10     9    10 ar
    11    10    11 ar
    12    10    13 1
    13    11    12 ar
    14    13    14 2
    15    13    15 2
    16    13    16 1
    17    16    17 1
    18    16    18 1
    19    16    19 1

@<TRIPOS>MOLECULE
ZINC23138350_replica-1.pdb
 26 28 0 0 0
SMALL
GASTEIGER

@<TRIPOS>ATOM
       1  C1         13.9320   33.7150   62.6190  C.ar      1 <0>        -0.1316
       2  C2         13.7110   32.4990   63.2390  C.ar      1 <0>        -0.0940
       3  C3         12.4550   31.9250   63.2080  C.ar      1 <0>        -0.1569
       4  C4         11.4170   32.5690   62.5540  C.ar      1 <0>         0.1131
       5  C5         11.6400   33.7870   61.9330  C.ar      1 <0>        -0.1002
       6  C6         12.8980   34.3590   61.9670  C.ar      1 <0>        -0.0753
       7  C7         10.5120   34.4880   61.2230  C.3       1 <0>        -0.0635
       8  S1         10.5070   36.2400   61.6790  S.3       1 <0>        -0.0374
       9  C8          9.1170   36.7950   60.7500  C.ar      1 <0>         0.3390
      10  N1          7.8620   36.4530   61.1540  N.ar      1 <0>        -0.6348
      11  C9          6.7920   36.8840   60.4520  C.ar      1 <0>         0.4969
      12  O1          5.6610   36.5900   60.8020  O.3       1 <0>        -0.6228
      13  C10         7.0070   37.6730   59.3090  C.ar      1 <0>        -0.3569
      14  C11         8.2860   37.9810   58.9500  C.ar      1 <0>         0.1950
      15  N2          9.3090   37.5370   59.6770  N.ar      1 <0>        -0.6169
      16  C12         8.5430   38.8250   57.7280  C.3       1 <0>        -0.0816
      17  C13         7.8870   38.1870   56.5300  C.2       1 <0>         0.5244
      18  O2          7.0610   38.8040   55.8910  O.2       1 <0>        -0.5213
      19  N3          8.2190   36.9310   56.1700  N.am      1 <0>        -0.7473
      20  C14         7.5810   36.3120   55.0050  C.3       1 <0>         0.2073
      21  C15         6.4770   35.3960   55.4660  C.2       1 <0>        -0.1559
      22  C16         6.1260   35.0500   56.7300  C.2       1 <0>        -0.1412
      23  C17         5.0630   34.1860   56.9180  C.2       1 <0>        -0.1591
      24  C18         4.4100   33.7030   55.8340  C.2       1 <0>        -0.1732
      25  S2          5.2950   34.4790   54.4920  S.3       1 <0>         0.0476
      26  F1         10.1860   32.0120   62.5270  F         1 <0>        -0.1315
@<TRIPOS>BOND
     1     1     6 ar
     2     1     2 ar
     3     2     3 ar
     4     3     4 ar
     5     4     5 ar
     6     4    26 1
     7     5     6 ar
     8     5     7 1
     9     7     8 1
    10     8     9 1
    11     9    15 ar
    12     9    10 ar
    13    10    11 ar
    14    11    12 1
    15    11    13 ar
    16    13    14 ar
    17    14    15 ar
    18    14    16 1
    19    16    17 1
    20    17    18 2
    21    17    19 am
    22    19    20 1
    23    20    21 1
    24    21    25 1
    25    21    22 2
    26    22    23 1
    27    23    24 2
    28    24    25 1

@<TRIPOS>MOLECULE
ZINC17077060_replica-1.pdb
 26 27 0 0 0
SMALL
GASTEIGER

@<TRIPOS>ATOM
       1  C1         12.9930   31.9150   63.0660  C.3       1 <0>        -0.1565
       2  C2         11.8220   32.8930   62.9430  C.3       1 <0>        -0.1172
       3  C3         12.3440   34.2590   62.4930  C.3       1 <0>        -0.0573
       4  C4         12.3790   35.2110   63.6900  C.3       1 <0>        -0.1505
       5  C5         13.7560   34.1040   61.9240  C.3       1 <0>        -0.1463
       6  C6         11.4200   34.8280   61.4150  C.3       1 <0>        -0.0703
       7  C7         10.8030   36.1400   61.9090  C.3       1 <0>        -0.1164
       8  C8         10.0790   36.8400   60.7570  C.3       1 <0>        -0.0598
       9  C9          9.1120   35.8530   60.1140  C.2       1 <0>        -0.0588
      10  C10         9.2450   34.5220   60.3070  C.2       1 <0>        -0.2167
      11  S1          7.9210   33.7970   59.3820  S.3       1 <0>         0.2588
      12  C11         7.2010   35.2390   58.7470  C.2       1 <0>         0.1053
      13  C12         8.0000   36.2470   59.2660  C.2       1 <0>        -0.1485
      14  C13         7.7400   37.6240   58.9750  C.1       1 <0>         0.2747
      15  N1          7.5340   38.7170   58.7450  N.1       1 <0>        -0.4359
      16  N2          6.0930   35.3570   57.9200  N.am      1 <0>        -0.6273
      17  C14         4.8710   35.5520   58.4530  C.2       1 <0>         0.5093
      18  O1          4.7380   35.6230   59.6560  O.2       1 <0>        -0.4787
      19  C15         3.6680   35.6800   57.5540  C.3       1 <0>        -0.1327
      20  C16         3.7190   34.5970   56.4750  C.3       1 <0>        -0.0570
      21  C17         2.4410   33.7570   56.5350  C.3       1 <0>        -0.1520
      22  C18         3.8340   35.2530   55.0980  C.3       1 <0>        -0.1554
      23  C19         4.9830   34.6390   54.3430  C.2       1 <0>         0.4607
      24  O2          4.9630   34.6030   53.1350  O.co2     1 <0>        -0.6323
      25  C20        10.2900   33.8290   61.1260  C.3       1 <0>        -0.0326
      26  O3          6.0310   34.1320   55.0120  O.co2     1 <0>        -0.7779
@<TRIPOS>BOND
     1     1     2 1
     2     2     3 1
     3     3     4 1
     4     3     5 1
     5     3     6 1
     6     6    25 1
     7     6     7 1
     8     7     8 1
     9     8     9 1
    10     9    13 1
    11     9    10 2
    12    10    11 1
    13    10    25 1
    14    11    12 1
    15    12    13 2
    16    12    16 1
    17    13    14 1
    18    14    15 3
    19    16    17 am
    20    17    18 2
    21    17    19 1
    22    19    20 1
    23    20    21 1
    24    20    22 1
    25    22    23 1
    26    23    24 2
    27    23    26 1

@<TRIPOS>MOLECULE
ZINC13389742_replica-1.pdb
 25 27 0 0 0
SMALL
GASTEIGER

@<TRIPOS>ATOM
       1  C1         -1.0180   25.5880   51.2290  C.ar      1 <0>        -0.1224
       2  C2         -1.6250   26.8170   50.9730  C.ar      1 <0>        -0.1137
       3  C3         -1.5620   27.8310   51.8780  C.ar      1 <0>        -0.1067
       4  C4         -0.8770   27.6410   53.0910  C.ar      1 <0>        -0.0316
       5  C5         -0.7910   28.6660   54.0460  C.ar      1 <0>        -0.0895
       6  C6         -0.1090   28.4420   55.2220  C.ar      1 <0>        -0.0956
       7  C7          0.5020   27.2060   55.4690  C.ar      1 <0>        -0.1294
       8  C8          0.4290   26.1970   54.5620  C.ar      1 <0>        -0.0845
       9  C9         -0.2590   26.3910   53.3500  C.ar      1 <0>        -0.0612
      10  C10        -0.3460   25.3680   52.3920  C.ar      1 <0>        -0.1013
      11  S1          0.0010   29.7240   56.4250  S.3       1 <0>        -0.0233
      12  C11         0.5260   31.1760   55.4740  C.3       1 <0>        -0.1529
      13  C12         1.5010   31.9860   56.2890  C.2       1 <0>         0.5318
      14  O1          2.0290   31.4960   57.2650  O.2       1 <0>        -0.5120
      15  N1          1.7870   33.2540   55.9340  N.am      1 <0>        -0.7189
      16  C13         2.6520   34.0760   56.7840  C.3       1 <0>         0.2456
      17  C14         1.9080   35.3520   57.1840  C.3       1 <0>        -0.1654
      18  C15         0.9390   35.0410   58.2950  C.2       1 <0>         0.4688
      19  O2         -0.0140   34.3280   58.0850  O.co2     1 <0>        -0.6309
      20  C16         3.9020   34.4400   56.0250  C.2       1 <0>        -0.1196
      21  C17         4.1080   34.4740   54.6850  C.2       1 <0>        -0.1237
      22  C18         5.3520   34.8410   54.2080  C.2       1 <0>        -0.1440
      23  C19         6.3290   35.1560   55.0920  C.2       1 <0>        -0.1851
      24  S2          5.4960   34.9370   56.6570  S.3       1 <0>        -0.0069
      25  O3          1.1340   35.5570   59.5200  O.co2     1 <0>        -0.7701
@<TRIPOS>BOND
     1     1    10 ar
     2     1     2 ar
     3     2     3 ar
     4     3     4 ar
     5     4     9 ar
     6     4     5 ar
     7     5     6 ar
     8     6     7 ar
     9     6    11 1
    10     7     8 ar
    11     8     9 ar
    12     9    10 ar
    13    11    12 1
    14    12    13 1
    15    13    14 2
    16    13    15 am
    17    15    16 1
    18    16    17 1
    19    16    20 1
    20    17    18 1
    21    18    19 2
    22    18    25 1
    23    20    24 1
    24    20    21 2
    25    21    22 1
    26    22    23 2
    27    23    24 1

@<TRIPOS>MOLECULE
ZINC57768695_replica-1.pdb
 20 21 0 0 0
SMALL
GASTEIGER

@<TRIPOS>ATOM
       1  C1          0.9320   33.0650   58.9970  C.3       1 <0>        -0.1541
       2  C2          0.2390   33.3840   57.6710  C.3       1 <0>        -0.1092
       3  C3          0.7320   32.4160   56.5930  C.3       1 <0>        -0.1074
       4  C4          2.2500   32.2610   56.7010  C.3       1 <0>        -0.1123
       5  C5          2.9340   33.3900   55.9270  C.3       1 <0>        -0.1599
       6  C6          0.0760   31.0730   56.7860  C.2       1 <0>         0.5213
       7  O1         -1.0970   31.0090   57.0890  O.2       1 <0>        -0.5346
       8  N1          0.7910   29.9430   56.6210  N.am      1 <0>        -0.7269
       9  C7          0.1830   28.6420   56.9080  C.3       1 <0>         0.1835
      10  C8          1.0820   27.8600   57.8690  C.3       1 <0>        -0.1573
      11  C9          0.0240   27.8670   55.6260  C.ar      1 <0>        -0.0939
      12  C10         0.5980   26.6160   55.4960  C.ar      1 <0>        -0.1165
      13  C11         0.4510   25.9130   54.3180  C.ar      1 <0>        -0.1153
      14  C12        -0.2710   26.4520   53.2600  C.ar      1 <0>        -0.0739
      15  C13        -0.8470   27.6960   53.3920  C.ar      1 <0>        -0.0700
      16  C14        -0.6990   28.4010   54.5800  C.ar      1 <0>        -0.1075
      17  C15        -1.6560   28.3340   52.2930  C.3       1 <0>        -0.0831
      18  C16        -1.3730   27.6570   50.9540  C.3       1 <0>        -0.1208
      19  C17        -1.5350   26.1430   51.1340  C.3       1 <0>        -0.1210
      20  C18        -0.3850   25.6340   52.0000  C.3       1 <0>        -0.0827
@<TRIPOS>BOND
     1     1     2 1
     2     2     3 1
     3     3     4 1
     4     3     6 1
     5     4     5 1
     6     6     7 2
     7     6     8 am
     8     8     9 1
     9     9    10 1
    10     9    11 1
    11    11    16 ar
    12    11    12 ar
    13    12    13 ar
    14    13    14 ar
    15    14    20 1
    16    14    15 ar
    17    15    16 ar
    18    15    17 1
    19    17    18 1
    20    18    19 1
    21    19    20 1

@<TRIPOS>MOLECULE
ZINC51597309_replica-1.pdb
 18 18 0 0 0
SMALL
GASTEIGER

@<TRIPOS>ATOM
       1  C1         -1.3150   27.3530   51.0850  C.3       1 <0>        -0.1214
       2  C2         -0.8750   27.2800   52.5240  C.ar      1 <0>        -0.0471
       3  C3         -0.0800   26.2280   52.9490  C.ar      1 <0>        -0.1317
       4  C4          0.3290   26.1510   54.2630  C.ar      1 <0>        -0.0772
       5  C5         -0.0610   27.1370   55.1730  C.ar      1 <0>        -0.1360
       6  C6         -0.8660   28.2010   54.7390  C.ar      1 <0>         0.2502
       7  C7         -1.2640   28.2650   53.4100  C.ar      1 <0>        -0.1340
       8  N1         -1.2600   29.1880   55.6340  N.pl3     1 <0>        -0.6622
       9  C8         -2.5680   29.1030   56.2900  C.3       1 <0>         0.1280
      10  C9         -0.3670   30.3130   55.9240  C.3       1 <0>         0.1725
      11  C10        -0.4520   31.3360   54.7880  C.3       1 <0>        -0.1698
      12  C11        -0.7900   30.9740   57.2380  C.3       1 <0>        -0.1255
      13  C12         0.3010   30.7620   58.2900  C.3       1 <0>        -0.0951
      14  C13         0.6760   32.1080   58.9130  C.3       1 <0>        -0.1458
      15  C14        -0.2170   29.8220   59.3780  C.3       1 <0>        -0.1477
      16  C15         0.3720   27.0600   56.5780  C.2       1 <0>         0.3894
      17  S1         -0.5630   26.1860   57.7160  S.2       1 <0>        -0.5154
      18  N2          1.5050   27.6760   56.9700  N.pl3     1 <0>        -0.7689
@<TRIPOS>BOND
     1     1     2 1
     2     2     7 ar
     3     2     3 ar
     4     3     4 ar
     5     4     5 ar
     6     5     6 ar
     7     5    16 1
     8     6     7 ar
     9     6     8 1
    10     8     9 1
    11     8    10 1
    12    10    11 1
    13    10    12 1
    14    12    13 1
    15    13    14 1
    16    13    15 1
    17    16    17 2
    18    16    18 1

@<TRIPOS>MOLECULE
ZINC22229816_replica-1.pdb
 24 25 0 0 0
SMALL
GASTEIGER

@<TRIPOS>ATOM
       1  C1          2.3790   32.9880   59.9030  C.3       1 <0>        -0.1098
       2  C2          2.4940   32.9960   58.4010  C.2       1 <0>         0.1939
       3  C3          1.5520   32.3660   57.6410  C.2       1 <0>        -0.2636
       4  C4          1.6800   32.3860   56.2410  C.2       1 <0>         0.5331
       5  O1          0.8540   31.8340   55.5320  O.2       1 <0>        -0.5272
       6  N1          2.7350   33.0300   55.6960  N.am      1 <0>        -0.6155
       7  C5          3.6450   33.6410   56.5050  C.2       1 <0>         0.3681
       8  N2          3.5130   33.6220   57.8170  N.2       1 <0>        -0.5397
       9  S1          5.0180   34.4790   55.7840  S.3       1 <0>        -0.0103
      10  C6          4.5540   34.6660   54.0420  C.3       1 <0>        -0.1309
      11  C7          0.3910   31.6590   58.2920  C.3       1 <0>        -0.0348
      12  C8          0.7410   30.1830   58.4970  C.3       1 <0>        -0.1336
      13  C9         -0.0930   29.3360   57.5710  C.2       1 <0>         0.5148
      14  O2         -1.2580   29.1210   57.8290  O.2       1 <0>        -0.5357
      15  N3          0.4570   28.8170   56.4550  N.am      1 <0>        -0.7329
      16  C10        -0.3540   27.9940   55.5540  C.3       1 <0>         0.1272
      17  C11        -0.3840   28.6370   54.1650  C.3       1 <0>        -0.0628
      18  C12        -1.4900   29.6920   54.1160  C.3       1 <0>        -0.1456
      19  C13        -0.6540   27.5780   53.1280  C.ar      1 <0>        -0.0787
      20  C14        -0.1470   26.3030   53.2930  C.ar      1 <0>        -0.1124
      21  C15        -0.3950   25.3300   52.3420  C.ar      1 <0>        -0.1174
      22  C16        -1.1510   25.6340   51.2250  C.ar      1 <0>        -0.1210
      23  C17        -1.6590   26.9090   51.0600  C.ar      1 <0>        -0.1181
      24  C18        -1.4150   27.8800   52.0130  C.ar      1 <0>        -0.1140
@<TRIPOS>BOND
     1     1     2 1
     2     2     8 1
     3     2     3 2
     4     3     4 1
     5     3    11 1
     6     4     5 2
     7     4     6 am
     8     6     7 1
     9     7     8 2
    10     7     9 1
    11     9    10 1
    12    11    12 1
    13    12    13 1
    14    13    14 2
    15    13    15 am
    16    15    16 1
    17    16    17 1
    18    17    18 1
    19    17    19 1
    20    19    24 ar
    21    19    20 ar
    22    20    21 ar
    23    21    22 ar
    24    22    23 ar
    25    23    24 ar

@<TRIPOS>MOLECULE
ZINC36992575_replica-1.pdb
 20 21 0 0 0
SMALL
GASTEIGER

@<TRIPOS>ATOM
       1  C1          8.5950   33.1020   58.6480  C.3       1 <0>        -0.1425
       2  C2          8.6920   34.5760   59.0490  C.3       1 <0>         0.0881
       3  C3          7.3470   35.2620   58.8010  C.3       1 <0>        -0.0423
       4  C4          7.5560   36.4850   57.9460  C.2       1 <0>        -0.1482
       5  C5          8.4290   37.5080   58.1180  C.2       1 <0>        -0.1552
       6  C6          8.4460   38.5360   57.1950  C.2       1 <0>        -0.1556
       7  C7          7.5910   38.4910   56.1450  C.2       1 <0>        -0.1708
       8  S1          6.7250   36.9580   56.4390  S.3       1 <0>         0.0282
       9  N1          9.0380   34.6730   60.4730  N.3       1 <0>        -0.6799
      10  C8         10.3820   35.2360   60.6510  C.3       1 <0>         0.1151
      11  C9         10.2810   36.5860   61.3660  C.3       1 <0>        -0.1809
      12  C10        11.2160   34.2910   61.4780  C.ar      1 <0>        -0.0143
      13  C11        10.6900   33.0800   61.8860  C.ar      1 <0>        -0.0992
      14  C12        11.4550   32.2140   62.6440  C.ar      1 <0>        -0.0528
      15  C13        12.7470   32.5590   62.9940  C.ar      1 <0>        -0.0536
      16  C14        13.2740   33.7700   62.5860  C.ar      1 <0>        -0.0520
      17  C15        12.5100   34.6340   61.8250  C.ar      1 <0>        -0.1149
      18  N2         13.5660   31.6310   63.8070  N.pl3     1 <0>         0.0335
      19  O1         13.1920   30.4960   63.9900  O.2       1 <0>        -0.1590
      20  O2         14.6080   32.0100   64.2900  O.3       1 <0>        -0.1600
@<TRIPOS>BOND
     1     1     2 1
     2     2     3 1
     3     2     9 1
     4     3     4 1
     5     4     8 1
     6     4     5 2
     7     5     6 1
     8     6     7 2
     9     7     8 1
    10     9    10 1
    11    10    11 1
    12    10    12 1
    13    12    17 ar
    14    12    13 ar
    15    13    14 ar
    16    14    15 ar
    17    15    16 ar
    18    15    18 1
    19    16    17 ar
    20    18    19 2
    21    18    20 1

@<TRIPOS>MOLECULE
ZINC36924837_replica-1.pdb
 18 19 0 0 0
SMALL
GASTEIGER

@<TRIPOS>ATOM
       1  C1         10.6420   34.5540   60.1300  C.ar      1 <0>        -0.0776
       2  C2          9.8030   35.5120   59.5960  C.ar      1 <0>        -0.0821
       3  C3          9.5920   36.7050   60.2750  C.ar      1 <0>        -0.0940
       4  C4         10.2270   36.9300   61.4910  C.ar      1 <0>        -0.1217
       5  C5         11.0640   35.9680   62.0200  C.ar      1 <0>        -0.0665
       6  C6         11.2720   34.7820   61.3400  C.ar      1 <0>        -0.0972
       7  C7         12.1870   33.7340   61.9200  C.3       1 <0>         0.2352
       8  C8         11.3840   32.6920   62.5800  C.1       1 <0>         0.2151
       9  N1         10.7640   31.8890   63.0900  N.1       1 <0>        -0.4099
      10  N2         13.0840   34.3560   62.9020  N.3       1 <0>        -0.6482
      11  C9         14.4030   33.7090   62.8970  C.3       1 <0>         0.0044
      12  C10        14.5870   32.4750   63.7820  C.3       1 <0>        -0.1658
      13  C11        15.2410   33.8010   64.1730  C.3       1 <0>        -0.1854
      14  S1          8.5220   37.9310   59.5980  S.3       1 <0>        -0.0190
      15  C12         6.8590   37.2600   59.8670  C.3       1 <0>         0.4515
      16  F1          6.8520   36.4820   61.0300  F         1 <0>        -0.1620
      17  F2          5.9480   38.3130   60.0050  F         1 <0>        -0.1430
      18  F3          6.4930   36.4680   58.7740  F         1 <0>        -0.1618
@<TRIPOS>BOND
     1     1     6 ar
     2     1     2 ar
     3     2     3 ar
     4     3     4 ar
     5     3    14 1
     6     4     5 ar
     7     5     6 ar
     8     6     7 1
     9     7     8 1
    10     7    10 1
    11     8     9 3
    12    10    11 1
    13    11    13 1
    14    11    12 1
    15    12    13 1
    16    14    15 1
    17    15    16 1
    18    15    17 1
    19    15    18 1

@<TRIPOS>MOLECULE
ZINC42322921_replica-1.pdb
 20 21 0 0 0
SMALL
GASTEIGER

@<TRIPOS>ATOM
       1  C1          8.6290   38.9070   58.0740  C.3       1 <0>        -0.1524
       2  C2          8.5110   38.0720   56.7970  C.3       1 <0>        -0.1267
       3  C3          7.1540   37.3670   56.7720  C.3       1 <0>        -0.1208
       4  C4          7.3000   36.0000   56.1030  C.3       1 <0>         0.1780
       5  C5          5.9360   35.4450   55.7870  C.2       1 <0>        -0.1324
       6  C6          4.7250   36.0480   55.8860  C.2       1 <0>        -0.1689
       7  C7          3.5920   35.3370   55.5370  C.2       1 <0>        -0.1607
       8  C8          3.7240   34.0580   55.1070  C.2       1 <0>        -0.1979
       9  S1          5.4930   33.8240   55.1800  S.3       1 <0>         0.1251
      10  N1          8.0030   35.0830   57.0110  N.3       1 <0>        -0.6719
      11  C9          7.3240   35.0040   58.3100  C.3       1 <0>         0.0815
      12  C10         8.2460   35.5050   59.3910  C.ar      1 <0>        -0.0235
      13  C11         9.5990   35.2300   59.3290  C.ar      1 <0>        -0.1168
      14  C12        10.4450   35.6900   60.3210  C.ar      1 <0>        -0.0704
      15  C13         9.9370   36.4260   61.3750  C.ar      1 <0>        -0.1171
      16  C14         8.5850   36.7030   61.4380  C.ar      1 <0>        -0.0589
      17  C15         7.7400   36.2460   60.4430  C.ar      1 <0>        -0.0299
      18  N2          6.2910   36.5460   60.5070  N.pl3     1 <0>         0.0307
      19  O1          5.8790   37.6200   60.1320  O.2       1 <0>        -0.1931
      20  O2          5.5210   35.7190   60.9340  O.3       1 <0>        -0.1025
@<TRIPOS>BOND
     1     1     2 1
     2     2     3 1
     3     3     4 1
     4     4     5 1
     5     4    10 1
     6     5     9 1
     7     5     6 2
     8     6     7 1
     9     7     8 2
    10     8     9 1
    11    10    11 1
    12    11    12 1
    13    12    17 ar
    14    12    13 ar
    15    13    14 ar
    16    14    15 ar
    17    15    16 ar
    18    16    17 ar
    19    17    18 1
    20    18    19 2
    21    18    20 1

@<TRIPOS>MOLECULE
ZINC65778937_replica-1.pdb
 25 27 0 0 0
SMALL
GASTEIGER

@<TRIPOS>ATOM
       1  C1         12.3660   34.9400   62.9480  C.3       1 <0>        -0.1447
       2  C2         11.7970   34.2810   61.6900  C.3       1 <0>        -0.0588
       3  C3         11.0610   32.9950   62.0760  C.3       1 <0>        -0.1451
       4  C4         10.8350   35.2270   61.0190  C.ar      1 <0>        -0.0772
       5  C5         10.4830   36.4100   61.6400  C.ar      1 <0>        -0.1128
       6  C6          9.6000   37.2780   61.0230  C.ar      1 <0>        -0.1127
       7  C7          9.0720   36.9630   59.7860  C.ar      1 <0>        -0.0904
       8  C8          9.4250   35.7800   59.1640  C.ar      1 <0>        -0.1122
       9  C9         10.3110   34.9140   59.7790  C.ar      1 <0>        -0.1163
      10  C10         8.1100   37.9080   59.1140  C.3       1 <0>        -0.0645
      11  C11         8.6700   38.3250   57.7530  C.3       1 <0>        -0.1326
      12  C12         7.7020   37.9300   56.6690  C.2       1 <0>         0.5225
      13  O1          7.3180   38.7550   55.8680  O.2       1 <0>        -0.5272
      14  N1          7.2600   36.6580   56.5900  N.am      1 <0>        -0.7315
      15  C13         6.3180   36.2730   55.5360  C.3       1 <0>         0.2073
      16  C14         4.9380   36.1320   56.1230  C.2       1 <0>         0.2813
      17  N2          4.6370   35.4870   57.2130  N.2       1 <0>        -0.5141
      18  C15         3.3120   35.5620   57.4430  C.2       1 <0>         0.3404
      19  N3          2.7620   36.2680   56.4830  N.2       1 <0>        -0.3159
      20  O2          3.8140   36.6530   55.6130  O.3       1 <0>        -0.0886
      21  C16         2.5990   34.9550   58.5850  C.2       1 <0>        -0.1347
      22  C17         1.3340   35.2070   59.0460  C.2       1 <0>        -0.0870
      23  C18         0.8760   34.5080   60.1400  C.2       1 <0>        -0.1706
      24  C19         1.6890   33.5920   60.7280  C.2       1 <0>        -0.1514
      25  S1          3.1580   33.6940   59.7190  S.3       1 <0>         0.1413
@<TRIPOS>BOND
     1     1     2 1
     2     2     3 1
     3     2     4 1
     4     4     9 ar
     5     4     5 ar
     6     5     6 ar
     7     6     7 ar
     8     7     8 ar
     9     7    10 1
    10     8     9 ar
    11    10    11 1
    12    11    12 1
    13    12    13 2
    14    12    14 am
    15    14    15 1
    16    15    16 1
    17    16    20 1
    18    16    17 2
    19    17    18 1
    20    18    19 2
    21    18    21 1
    22    19    20 1
    23    21    25 1
    24    21    22 2
    25    22    23 1
    26    23    24 2
    27    24    25 1

@<TRIPOS>MOLECULE
ZINC13510404_replica-1.pdb
 21 21 0 0 0
SMALL
GASTEIGER

@<TRIPOS>ATOM
       1  C1         14.8910   33.0950   63.1860  C.3       1 <0>        -0.1183
       2  C2         13.5180   32.4780   63.2430  C.2       1 <0>        -0.1309
       3  C3         12.5010   33.0900   62.6880  C.2       1 <0>        -0.1702
       4  C4         12.7240   34.3470   61.8880  C.3       1 <0>        -0.0858
       5  C5         11.7510   35.4310   62.3560  C.3       1 <0>        -0.0763
       6  C6         10.7250   35.6840   61.2820  C.2       1 <0>        -0.1247
       7  C7         10.5730   34.8220   60.3070  C.2       1 <0>        -0.1568
       8  C8          9.6220   35.1230   59.1770  C.3       1 <0>        -0.0844
       9  C9          8.4810   34.1040   59.1870  C.3       1 <0>        -0.0737
      10  C10         9.0220   32.7350   59.6000  C.3       1 <0>        -0.1560
      11  C11         7.4070   34.5500   60.1800  C.3       1 <0>        -0.1591
      12  C12         7.8810   34.0100   57.8070  C.2       1 <0>         0.1908
      13  N1          7.4400   35.0730   57.2220  N.2       1 <0>        -0.4858
      14  C13         7.4320   36.2720   57.8900  C.ar      1 <0>         0.0967
      15  C14         6.4110   36.5640   58.7950  C.ar      1 <0>        -0.1253
      16  C15         6.4090   37.7700   59.4650  C.ar      1 <0>        -0.1058
      17  C16         7.4170   38.6910   59.2390  C.ar      1 <0>        -0.1351
      18  C17         8.4320   38.4090   58.3430  C.ar      1 <0>        -0.1044
      19  C18         8.4490   37.2030   57.6720  C.ar      1 <0>        -0.1399
      20  C19         9.8760   36.9270   61.3280  C.3       1 <0>        -0.1210
      21  C20        13.3130   31.1580   63.9390  C.3       1 <0>        -0.1193
@<TRIPOS>BOND
     1     1     2 1
     2     2     3 2
     3     2    21 1
     4     3     4 1
     5     4     5 1
     6     5     6 1
     7     6     7 2
     8     6    20 1
     9     7     8 1
    10     8     9 1
    11     9    10 1
    12     9    11 1
    13     9    12 1
    14    12    13 2
    15    13    14 1
    16    14    19 ar
    17    14    15 ar
    18    15    16 ar
    19    16    17 ar
    20    17    18 ar
    21    18    19 ar

@<TRIPOS>MOLECULE
ZINC63038448_replica-1.pdb
 19 19 0 0 0
SMALL
GASTEIGER

@<TRIPOS>ATOM
       1  C1          8.6290   38.7040   57.8390  C.3       1 <0>        -0.1561
       2  C2          8.6950   38.2910   59.3110  C.3       1 <0>        -0.1141
       3  C3          8.4250   36.7900   59.4330  C.3       1 <0>        -0.0938
       4  C4          9.5200   36.1480   60.2470  C.ar      1 <0>         0.0039
       5  C5         10.0570   36.8150   61.3320  C.ar      1 <0>        -0.1366
       6  C6         11.0590   36.2270   62.0790  C.ar      1 <0>        -0.0037
       7  C7         11.5250   34.9700   61.7400  C.ar      1 <0>        -0.6625
       8  C8         10.9880   34.3010   60.6570  C.ar      1 <0>        -0.0042
       9  C9          9.9810   34.8890   59.9120  C.ar      1 <0>        -0.1346
      10  S1         12.8050   34.2190   62.6920  S.o2      1 <0>         2.4878
      11  O1         13.9290   34.1820   61.8230  O.2       1 <0>        -0.8583
      12  O2         12.8470   34.9700   63.8970  O.2       1 <0>        -0.8580
      13  C10        12.2140   32.5370   63.0230  C.3       1 <0>        -0.0205
      14  F1         10.8530   32.5750   63.3460  F         1 <0>        -0.1573
      15  F2         12.4020   31.7450   61.8860  F         1 <0>        -0.1578
      16  F3         12.9320   31.9930   64.0940  F         1 <0>        -0.1570
      17  C11         7.0790   36.5670   60.1230  C.3       1 <0>         0.1100
      18  C12         6.0470   36.1040   59.0910  C.3       1 <0>        -0.1896
      19  O3          6.6410   37.7900   60.7170  O.3       1 <0>        -0.5555
@<TRIPOS>BOND
     1     1     2 1
     2     2     3 1
     3     3     4 1
     4     3    17 1
     5     4     9 ar
     6     4     5 ar
     7     5     6 ar
     8     6     7 ar
     9     7     8 ar
    10     7    10 1
    11     8     9 ar
    12    10    11 2
    13    10    12 2
    14    10    13 1
    15    13    14 1
    16    13    15 1
    17    13    16 1
    18    17    18 1
    19    17    19 1

@<TRIPOS>MOLECULE
ZINC37136702_replica-1.pdb
 19 20 0 0 0
SMALL
GASTEIGER

@<TRIPOS>ATOM
       1  C1         12.3210   29.9340   64.1160  C.3       1 <0>        -0.1546
       2  C2         13.2230   31.0580   63.6010  C.3       1 <0>        -0.1257
       3  C3         12.3580   32.1970   63.0590  C.3       1 <0>        -0.1131
       4  C4         13.1430   33.5090   63.1250  C.3       1 <0>        -0.1031
       5  C5         14.6400   33.2130   63.0170  C.3       1 <0>        -0.1503
       6  C6         12.7180   34.4170   61.9690  C.3       1 <0>         0.1276
       7  N1         11.3450   34.0940   61.5710  N.pl3     1 <0>        -0.7436
       8  C7         10.5840   35.0290   60.8640  C.ar      1 <0>         0.2200
       9  C8         10.3410   36.2850   61.4140  C.ar      1 <0>        -0.1602
      10  C9          9.5910   37.2160   60.7260  C.ar      1 <0>        -0.0441
      11  C10         9.0740   36.9020   59.4770  C.ar      1 <0>        -0.0474
      12  C11         9.3150   35.6390   58.9160  C.ar      1 <0>         0.0720
      13  C12        10.0790   34.7040   59.6170  C.ar      1 <0>        -0.1550
      14  N2          8.6910   35.6270   57.7070  N.2       1 <0>        -0.4897
      15  C13         8.1110   36.7750   57.5230  C.2       1 <0>         0.2622
      16  O1          8.3220   37.5770   58.5790  O.3       1 <0>        -0.2117
      17  C14         7.3160   37.1530   56.3000  C.3       1 <0>        -0.0050
      18  C15         7.4240   38.6610   56.0680  C.3       1 <0>        -0.1509
      19  C16         7.8700   36.4080   55.0830  C.3       1 <0>        -0.1508
@<TRIPOS>BOND
     1     1     2 1
     2     2     3 1
     3     3     4 1
     4     4     5 1
     5     4     6 1
     6     6     7 1
     7     7     8 1
     8     8    13 ar
     9     8     9 ar
    10     9    10 ar
    11    10    11 ar
    12    11    16 1
    13    11    12 ar
    14    12    13 ar
    15    12    14 1
    16    14    15 2
    17    15    16 1
    18    15    17 1
    19    17    18 1
    20    17    19 1

@<TRIPOS>MOLECULE
ZINC37073206_replica-1.pdb
 20 21 0 0 0
SMALL
GASTEIGER

@<TRIPOS>ATOM
       1  C1          0.5960   32.2290   58.6390  C.3       1 <0>        -0.1719
       2  C2          0.4240   32.8230   57.2390  C.3       1 <0>         0.1437
       3  C3          0.4490   34.3500   57.3260  C.3       1 <0>        -0.1282
       4  C4          1.0100   34.7760   58.6840  C.3       1 <0>        -0.1147
       5  C5          2.1890   35.7270   58.4720  C.3       1 <0>        -0.0976
       6  C6          3.4840   35.0430   58.9160  C.3       1 <0>        -0.1509
       7  C7          2.2880   36.0940   56.9900  C.3       1 <0>        -0.1494
       8  N1         -0.8570   32.3860   56.6770  N.pl3     1 <0>        -0.7218
       9  C8         -0.8980   31.3200   55.7760  C.ar      1 <0>         0.1182
      10  C9         -2.1130   30.8450   55.2870  C.ar      1 <0>         0.0755
      11  N2         -2.1120   29.8350   54.4350  N.ar      1 <0>        -0.4679
      12  C10        -0.9750   29.2750   54.0460  C.ar      1 <0>         0.2899
      13  N3          0.2000   29.6990   54.4920  N.ar      1 <0>        -0.4679
      14  C11         0.2770   30.7100   55.3410  C.ar      1 <0>         0.0789
      15  C12        -1.0180   28.1430   53.0890  C.ar      1 <0>        -0.0335
      16  C13        -1.7300   28.2610   51.8980  C.ar      1 <0>        -0.0803
      17  C14        -1.7660   27.2040   51.0110  C.ar      1 <0>        -0.1288
      18  C15        -1.0970   26.0290   51.3030  C.ar      1 <0>        -0.1070
      19  C16        -0.3890   25.9070   52.4840  C.ar      1 <0>        -0.1288
      20  C17        -0.3410   26.9590   53.3770  C.ar      1 <0>        -0.0803
@<TRIPOS>BOND
     1     1     2 1
     2     2     3 1
     3     2     8 1
     4     3     4 1
     5     4     5 1
     6     5     6 1
     7     5     7 1
     8     8     9 1
     9     9    14 ar
    10     9    10 ar
    11    10    11 ar
    12    11    12 ar
    13    12    13 ar
    14    12    15 1
    15    13    14 ar
    16    15    20 ar
    17    15    16 ar
    18    16    17 ar
    19    17    18 ar
    20    18    19 ar
    21    19    20 ar

@<TRIPOS>MOLECULE
ZINC03264990_replica-1.pdb
 21 23 0 0 0
SMALL
GASTEIGER

@<TRIPOS>ATOM
       1  C1         -2.9250   27.7410   57.4430  C.2       1 <0>        -0.1500
       2  C2         -2.0030   28.0110   58.3340  C.2       1 <0>        -0.1895
       3  C3         -1.2650   26.8900   59.0190  C.3       1 <0>         0.1456
       4  N1         -0.1010   26.5080   58.2150  N.pl3     1 <0>        -0.6581
       5  C4         -0.1180   25.3630   57.5050  C.2       1 <0>         0.5824
       6  S1         -0.5450   23.8910   58.2670  S.2       1 <0>        -0.6081
       7  N2          0.2010   25.3770   56.1960  N.pl3     1 <0>        -0.5371
       8  N3          0.8400   26.4940   55.6420  N.2       1 <0>        -0.2504
       9  C5          0.1830   27.2940   54.8420  C.2       1 <0>         0.2158
      10  C6         -0.3680   26.9510   53.5140  C.ar      1 <0>        -0.1228
      11  C7         -0.3590   25.7730   52.7700  C.ar      1 <0>        -0.0827
      12  C8         -0.9650   25.7370   51.5320  C.ar      1 <0>        -0.1061
      13  C9         -1.5840   26.8670   51.0220  C.ar      1 <0>        -0.0921
      14  C10        -1.6060   28.0410   51.7470  C.ar      1 <0>        -0.0893
      15  C11        -0.9950   28.0990   52.9980  C.ar      1 <0>        -0.0265
      16  C12        -0.8580   29.1940   53.9820  C.ar      1 <0>        -0.0344
      17  C13        -0.1480   28.7130   55.0950  C.ar      1 <0>        -0.0599
      18  C14         0.1130   29.5610   56.1700  C.ar      1 <0>        -0.0634
      19  C15        -0.3250   30.8680   56.1360  C.ar      1 <0>        -0.1143
      20  C16        -1.0250   31.3450   55.0400  C.ar      1 <0>        -0.0946
      21  C17        -1.2930   30.5190   53.9670  C.ar      1 <0>        -0.0913
@<TRIPOS>BOND
     1     1     2 2
     2     2     3 1
     3     3     4 1
     4     4     5 1
     5     5     6 2
     6     5     7 1
     7     7     8 1
     8     8     9 2
     9     9    17 1
    10     9    10 1
    11    10    15 ar
    12    10    11 ar
    13    11    12 ar
    14    12    13 ar
    15    13    14 ar
    16    14    15 ar
    17    15    16 1
    18    16    21 ar
    19    16    17 ar
    20    17    18 ar
    21    18    19 ar
    22    19    20 ar
    23    20    21 ar

@<TRIPOS>MOLECULE
ZINC00178777_replica-1.pdb
 20 21 0 0 0
SMALL
GASTEIGER

@<TRIPOS>ATOM
      1  C6        -0.0950   31.6910   56.8390 C.ar    0  <0>0        0.1881
      2  N2        -0.4010   31.9370   55.5720 N.ar    0  <0>0       -0.1253
      3  N3        -0.4970   31.0140   54.7180 N.ar    0  <0>0       -0.1396
      4  C7        -0.3100   29.7400   55.0380 C.ar    0  <0>0        0.1348
      5  S1         0.0610   29.9080   56.7820 S.2     0  <0>0       -0.0304
      6  N1         0.0580   32.5660   57.9080 N.am    0  <0>0       -0.2628
      7  C5         1.2810   33.0400   58.2190 C.2     0  <0>0        0.2266
      8  O1         2.2470   32.7030   57.5670 O.2     0  <0>0       -0.2747
      9  H10       -0.7140   32.8350   58.4290 H       0  <0>0        0.1568
     10  C2         1.4490   33.9880   59.3790 C.3     0  <0>0        0.0692
     11  C1         2.7740   33.6990   60.0850 C.3     0  <0>0        0.0091
     12  C3         1.4470   35.4280   58.8630 C.3     0  <0>0        0.0091
     13  C4         0.2940   33.7990   60.3640 C.3     0  <0>0        0.0091
     14  C8        -0.3820   28.5270   54.1960 C.ar    0  <0>0        0.0257
     15  C13       -1.0870   28.5500   52.9920 C.ar    0  <0>0        0.0026
     16  C12       -1.1500   27.4140   52.2120 C.ar    0  <0>0        0.0068
     17  C11       -0.5180   26.2530   52.6210 C.ar    0  <0>0        0.0346
     18  C10        0.1870   26.2250   53.8120 C.ar    0  <0>0        0.0068
     19 Br         -0.6100   24.7010   51.5460 Br      0  <0>0       -0.0490
     20  C9         0.2530   27.3520   54.6040 C.ar    0  <0>0        0.0026
@<TRIPOS>BOND
     1    19    17    1
     2    16    17   ar
     3    16    15   ar
     4    17    18   ar
     5    15    14   ar
     6    18    20   ar
     7    14    20   ar
     8    14     4    1
     9     3     4   ar
    10     3     2   ar
    11     4     5   ar
    12     2     1   ar
    13     5     1   ar
    14     1     6    1
    15     8     7    2
    16     6     7   am
    17     6     9    1
    18     7    10    1
    19    12    10    1
    20    10    11    1
    21    10    13    1


@<TRIPOS>MOLECULE
ZINC35451566_replica-1.pdb
 20 21 0 0 0
SMALL
GASTEIGER

@<TRIPOS>ATOM
       1  C1          8.6290   38.8370   57.1470  C.3       1 <0>        -0.1711
       2  C2          8.5090   37.3320   56.9020  C.3       1 <0>         0.1497
       3  C3          7.5180   37.0790   55.7640  C.3       1 <0>        -0.1237
       4  C4          7.3470   35.5720   55.5610  C.3       1 <0>        -0.0376
       5  C5          5.8830   35.2450   55.4360  C.2       1 <0>        -0.0131
       6  C6          4.8650   36.1060   55.6160  C.2       1 <0>        -0.2106
       7  C7          3.6710   35.3800   55.4010  C.2       1 <0>        -0.2133
       8  C8          4.0300   34.1180   55.1030  C.2       1 <0>        -0.0433
       9  O1          5.3700   34.0440   55.1200  O.3       1 <0>        -0.1770
      10  N1          8.0310   36.6750   58.1210  N.pl3     1 <0>        -0.7444
      11  C9          8.9360   36.3230   59.1270  C.ar      1 <0>         0.1911
      12  C10         9.1310   37.1660   60.2120  C.ar      1 <0>        -0.1593
      13  C11        10.0250   36.8170   61.2070  C.ar      1 <0>        -0.0942
      14  C12        10.7280   35.6250   61.1200  C.ar      1 <0>         0.0671
      15  C13        10.5340   34.7810   60.0360  C.ar      1 <0>        -0.1551
      16  C14         9.6360   35.1260   59.0440  C.ar      1 <0>        -0.1570
      17  O2         11.6070   35.2820   62.0990  O.3       1 <0>        -0.3126
      18  C15        11.9800   33.9050   62.1840  C.3       1 <0>         0.1619
      19  C16        13.3390   33.7980   62.7380  C.1       1 <0>         0.2072
      20  N2         14.3870   33.7150   63.1680  N.1       1 <0>        -0.3945
@<TRIPOS>BOND
     1     1     2 1
     2     2     3 1
     3     2    10 1
     4     3     4 1
     5     4     5 1
     6     5     9 1
     7     5     6 2
     8     6     7 1
     9     7     8 2
    10     8     9 1
    11    10    11 1
    12    11    16 ar
    13    11    12 ar
    14    12    13 ar
    15    13    14 ar
    16    14    15 ar
    17    14    17 1
    18    15    16 ar
    19    17    18 1
    20    18    19 1
    21    19    20 3

@<TRIPOS>MOLECULE
ZINC35233227_replica-1.pdb
 19 19 0 0 0
SMALL
GASTEIGER

@<TRIPOS>ATOM
       1  C1          8.5140   31.9180   58.4020  C.3       1 <0>        -0.1690
       2  C2          8.0080   33.1890   57.7170  C.3       1 <0>         0.1460
       3  C3          7.4640   32.8400   56.3310  C.3       1 <0>         0.0471
       4  O1          6.0740   33.1660   56.2690  O.3       1 <0>        -0.3872
       5  C4          5.6710   33.7570   55.0320  C.3       1 <0>         0.0296
       6  N1          9.1120   34.1440   57.5820  N.pl3     1 <0>        -0.7303
       7  C5          9.3370   35.0970   58.5780  C.ar      1 <0>         0.3166
       8  C6         10.1150   34.7780   59.6830  C.ar      1 <0>        -0.2123
       9  C7         10.3360   35.7230   60.6660  C.ar      1 <0>        -0.0033
      10  C8          9.7840   36.9850   60.5500  C.ar      1 <0>        -0.1908
      11  C9          9.0090   37.3060   59.4510  C.ar      1 <0>         0.0316
      12  C10         8.7880   36.3670   58.4620  C.ar      1 <0>        -0.7269
      13  S1          7.8070   36.7800   57.0580  S.o2      1 <0>         2.4821
      14  O2          8.5230   36.2550   55.9490  O.2       1 <0>        -0.8632
      15  O3          6.5050   36.3020   57.3710  O.2       1 <0>        -0.8629
      16  C11         7.8110   38.5930   57.0010  C.3       1 <0>        -0.0287
      17  F1          7.0670   39.0270   55.8990  F         1 <0>        -0.1483
      18  F2          7.2420   39.0970   58.1750  F         1 <0>        -0.1580
      19  F3          9.1280   39.0530   56.8870  F         1 <0>        -0.1528
@<TRIPOS>BOND
     1     1     2 1
     2     2     3 1
     3     2     6 1
     4     3     4 1
     5     4     5 1
     6     6     7 1
     7     7    12 ar
     8     7     8 ar
     9     8     9 ar
    10     9    10 ar
    11    10    11 ar
    12    11    12 ar
    13    12    13 1
    14    13    14 2
    15    13    15 2
    16    13    16 1
    17    16    17 1
    18    16    18 1
    19    16    19 1

@<TRIPOS>MOLECULE
ZINC37014563_replica-1.pdb
 21 22 0 0 0
SMALL
GASTEIGER

@<TRIPOS>ATOM
       1  C1          5.3010   36.2340   59.2560  C.3       1 <0>        -0.1527
       2  C2          5.4030   35.1560   58.1750  C.3       1 <0>        -0.1218
       3  C3          5.6890   35.8140   56.8230  C.3       1 <0>        -0.0893
       4  C4          4.3950   35.8920   56.0090  C.3       1 <0>        -0.1498
       5  C5          6.7220   34.9830   56.0600  C.3       1 <0>        -0.1255
       6  C6          7.6940   34.3410   57.0520  C.3       1 <0>         0.1403
       7  C7          8.1110   32.9620   56.5370  C.3       1 <0>        -0.1369
       8  C8          8.0340   31.9460   57.6790  C.3       1 <0>        -0.1525
       9  N1          8.8790   35.1890   57.1940  N.pl3     1 <0>        -0.7321
      10  C9          9.2580   35.6540   58.4560  C.ar      1 <0>         0.2236
      11  C10         9.9070   34.8070   59.3410  C.ar      1 <0>        -0.1435
      12  C11        10.2840   35.2750   60.5990  C.ar      1 <0>         0.0110
      13  C12        10.0060   36.5960   60.9590  C.ar      1 <0>        -0.1387
      14  C13         9.3590   37.4310   60.0710  C.ar      1 <0>        -0.0740
      15  C14         8.9900   36.9680   58.8220  C.ar      1 <0>        -0.1367
      16  C15         8.2910   37.8890   57.8560  C.3       1 <0>        -0.1092
      17  C16        10.9750   34.3780   61.5480  C.2       1 <0>         0.2164
      18  N2         11.9830   34.6950   62.3280  N.2       1 <0>        -0.2778
      19  N3         12.3270   33.6650   63.0170  N.2       1 <0>        -0.2880
      20  C17        11.5590   32.6580   62.7080  C.2       1 <0>         0.1438
      21  O1         10.6860   33.0810   61.7800  O.3       1 <0>        -0.2225
@<TRIPOS>BOND
     1     1     2 1
     2     2     3 1
     3     3     4 1
     4     3     5 1
     5     5     6 1
     6     6     7 1
     7     6     9 1
     8     7     8 1
     9     9    10 1
    10    10    15 ar
    11    10    11 ar
    12    11    12 ar
    13    12    13 ar
    14    12    17 1
    15    13    14 ar
    16    14    15 ar
    17    15    16 1
    18    17    21 1
    19    17    18 2
    20    18    19 1
    21    19    20 2
    22    20    21 1

@<TRIPOS>MOLECULE
ZINC67333433_replica-1.pdb
 25 28 0 0 0
SMALL
GASTEIGER

@<TRIPOS>ATOM
       1  C1          0.2440   33.1490   57.3950  C.3       1 <0>        -0.1405
       2  C2          1.4570   32.4890   57.9970  C.2       1 <0>         0.0120
       3  C3          2.4330   33.2650   58.6420  C.ar      1 <0>        -0.2216
       4  C4          2.4800   34.6670   58.8400  C.ar      1 <0>         0.2619
       5  N1          3.5000   35.1950   59.4790  N.ar      1 <0>        -0.5298
       6  C5          4.4960   34.4640   59.9500  C.ar      1 <0>         0.3621
       7  N2          4.5160   33.1530   59.8020  N.ar      1 <0>        -0.4895
       8  C6          3.5340   32.5430   59.1740  C.ar      1 <0>         0.1416
       9  S1          3.1580   30.8600   58.7580  S.3       1 <0>         0.1360
      10  C7          1.6060   31.1390   57.9230  C.2       1 <0>        -0.2220
      11  C8          0.7090   30.1520   57.3050  C.2       1 <0>         0.6152
      12  O1          0.0590   29.3990   58.0050  O.2       1 <0>        -0.5096
      13  N3          0.6050   30.0820   55.9630  N.am      1 <0>        -0.6951
      14  C9         -0.2890   29.0980   55.3480  C.3       1 <0>         0.0975
      15  C10        -1.7190   29.5430   55.0360  C.3       1 <0>        -0.1777
      16  C11        -0.7150   29.3400   53.8990  C.3       1 <0>        -0.1239
      17  C12        -0.8980   28.1330   53.0170  C.ar      1 <0>        -0.0243
      18  C13        -1.6110   28.2400   51.8360  C.ar      1 <0>        -0.1304
      19  C14        -1.7790   27.1330   51.0250  C.ar      1 <0>        -0.0843
      20  C15        -1.2340   25.9170   51.3940  C.ar      1 <0>        -0.1561
      21  C16        -0.5200   25.8080   52.5750  C.ar      1 <0>         0.1028
      22  C17        -0.3470   26.9200   53.3830  C.ar      1 <0>        -0.1461
      23  F1          0.0130   24.6200   52.9360  F         1 <0>        -0.1381
      24  C18         5.6320   35.1420   60.6730  C.3       1 <0>        -0.0875
      25  C19         1.3700   35.5450   58.3210  C.3       1 <0>        -0.1227
@<TRIPOS>BOND
     1     1     2 1
     2     2    10 2
     3     2     3 1
     4     3     8 ar
     5     3     4 ar
     6     4     5 ar
     7     4    25 1
     8     5     6 ar
     9     6     7 ar
    10     6    24 1
    11     7     8 ar
    12     8     9 1
    13     9    10 1
    14    10    11 1
    15    11    12 2
    16    11    13 am
    17    13    14 1
    18    14    16 1
    19    14    15 1
    20    15    16 1
    21    16    17 1
    22    17    22 ar
    23    17    18 ar
    24    18    19 ar
    25    19    20 ar
    26    20    21 ar
    27    21    22 ar
    28    21    23 1

@<TRIPOS>MOLECULE
ZINC36956259_replica-1.pdb
 17 18 0 0 0
SMALL
GASTEIGER

@<TRIPOS>ATOM
       1  C1         13.3260   31.3900   63.4010  C.3       1 <0>        -0.1549
       2  C2         12.3730   32.5430   63.0780  C.3       1 <0>        -0.1175
       3  C3         13.1140   33.8730   63.2240  C.3       1 <0>        -0.1036
       4  C4         14.5060   33.7520   62.5980  C.3       1 <0>        -0.1511
       5  C5         12.3290   34.9760   62.5120  C.3       1 <0>         0.1245
       6  N1         11.2520   34.3750   61.7200  N.pl3     1 <0>        -0.7358
       7  C6         10.5030   35.1680   60.8430  C.ar      1 <0>         0.2471
       8  C7         10.1830   36.4810   61.1780  C.ar      1 <0>        -0.1794
       9  C8          9.4500   37.2750   60.3350  C.ar      1 <0>        -0.0084
      10  C9          8.9920   36.7820   59.0910  C.ar      1 <0>         0.0198
      11  C10         9.3340   35.4460   58.7820  C.ar      1 <0>        -0.0874
      12  C11        10.0730   34.6550   59.6260  C.ar      1 <0>        -0.1545
      13  S1          8.5920   35.2250   57.1830  S.3       1 <0>         0.0321
      14  C12         7.8970   36.8650   57.0280  C.2       1 <0>         0.0998
      15  N2          8.2650   37.4330   58.1540  N.2       1 <0>        -0.4892
      16  S2          6.9590   37.5460   55.7020  S.3       1 <0>         0.0223
      17  C13         5.4270   36.5730   55.7030  C.3       1 <0>        -0.1440
@<TRIPOS>BOND
     1     1     2 1
     2     2     3 1
     3     3     4 1
     4     3     5 1
     5     5     6 1
     6     6     7 1
     7     7    12 ar
     8     7     8 ar
     9     8     9 ar
    10     9    10 ar
    11    10    15 1
    12    10    11 ar
    13    11    12 ar
    14    11    13 1
    15    13    14 1
    16    14    15 2
    17    14    16 1
    18    16    17 1

@<TRIPOS>MOLECULE
ZINC58867671_replica-1.pdb
 21 24 0 0 0
SMALL
GASTEIGER

@<TRIPOS>ATOM
       1  C1          0.7890   33.0110   59.9920  C.ar      1 <0>        -0.1718
       2  C2          0.7310   31.6730   59.6440  C.ar      1 <0>        -0.0827
       3  C3          0.3750   31.3060   58.3610  C.ar      1 <0>        -0.1551
       4  C4          0.0770   32.2800   57.4190  C.ar      1 <0>         0.1404
       5  C5          0.1360   33.6220   57.7700  C.ar      1 <0>        -0.2169
       6  C6          0.4920   33.9830   59.0550  C.ar      1 <0>        -0.0808
       7  O1         -0.2710   31.9210   56.1560  O.3       1 <0>        -0.2812
       8  C7         -1.4870   31.1850   56.0040  C.3       1 <0>         0.1442
       9  C8         -1.2270   29.9550   55.1730  C.2       1 <0>         0.3403
      10  N1         -0.5460   28.9600   55.7180  N.2       1 <0>        -0.6118
      11  C9         -0.2830   27.8180   55.0020  C.ar      1 <0>         0.2077
      12  C10         0.4230   26.7520   55.5250  C.ar      1 <0>        -0.2449
      13  C11         0.6600   25.6210   54.7510  C.ar      1 <0>        -0.0456
      14  C12         0.2090   25.5260   53.4660  C.ar      1 <0>        -0.2439
      15  C13        -0.5140   26.5890   52.8960  C.ar      1 <0>         0.0377
      16  C14        -0.7580   27.7390   53.6740  C.ar      1 <0>        -0.1673
      17  C15        -1.4800   28.8260   53.1360  C.ar      1 <0>         0.2167
      18  C16        -1.9430   28.7450   51.8360  C.ar      1 <0>        -0.2516
      19  C17        -1.6990   27.6060   51.0770  C.ar      1 <0>        -0.0438
      20  C18        -1.0020   26.5450   51.5790  C.ar      1 <0>        -0.2458
      21  N2         -1.6950   29.9220   53.9350  N.2       1 <0>        -0.6412
@<TRIPOS>BOND
     1     1     6 ar
     2     1     2 ar
     3     2     3 ar
     4     3     4 ar
     5     4     5 ar
     6     4     7 1
     7     5     6 ar
     8     7     8 1
     9     8     9 1
    10     9    21 1
    11     9    10 2
    12    10    11 1
    13    11    16 ar
    14    11    12 ar
    15    12    13 ar
    16    13    14 ar
    17    14    15 ar
    18    15    20 ar
    19    15    16 ar
    20    16    17 ar
    21    17    18 ar
    22    17    21 1
    23    18    19 ar
    24    19    20 ar

@<TRIPOS>MOLECULE
ZINC39751858_replica-1.pdb
 21 23 0 0 0
SMALL
GASTEIGER

@<TRIPOS>ATOM
       1  C1         12.5720   30.4860   63.9770  C.3       1 <0>        -0.1262
       2  C2         13.0870   31.8100   63.4740  C.2       1 <0>         0.0637
       3  C3         12.3060   32.6310   62.7590  C.2       1 <0>        -0.3197
       4  C4         12.8910   33.9130   62.3050  C.2       1 <0>         0.2810
       5  N1         12.1810   34.7580   61.6030  N.2       1 <0>        -0.5320
       6  C5         10.9150   34.4950   61.2740  C.2       1 <0>         0.4901
       7  N2         10.2930   33.3840   61.6250  N.2       1 <0>        -0.6057
       8  C6         10.8810   32.4260   62.3430  C.2       1 <0>         0.5533
       9  O1         10.2770   31.4120   62.6500  O.2       1 <0>        -0.4487
      10  C7         10.1720   35.4980   60.4770  C.ar      1 <0>        -0.0719
      11  C8          9.9710   36.7840   60.9790  C.ar      1 <0>        -0.0249
      12  C9          9.2760   37.7120   60.2300  C.ar      1 <0>        -0.1324
      13  C10         8.7820   37.3700   58.9850  C.ar      1 <0>        -0.0378
      14  C11         8.9770   36.0960   58.4820  C.ar      1 <0>        -0.1979
      15  C12         9.6750   35.1600   59.2170  C.ar      1 <0>        -0.0026
      16  C13         8.4340   35.7320   57.1240  C.3       1 <0>         0.5112
      17  F1          8.7150   36.7610   56.2180  F         1 <0>        -0.1755
      18  F2          9.0330   34.5470   56.6840  F         1 <0>        -0.1733
      19  F3          7.0490   35.5520   57.2090  F         1 <0>        -0.1733
      20  S1         14.5540   33.8940   62.9250  S.3       1 <0>         0.0189
      21  C14        14.5010   32.2590   63.7660  C.3       1 <0>        -0.1027
@<TRIPOS>BOND
     1     1     2 1
     2     2    21 1
     3     2     3 2
     4     3     8 1
     5     3     4 1
     6     4     5 2
     7     4    20 1
     8     5     6 1
     9     6     7 2
    10     6    10 1
    11     7     8 1
    12     8     9 2
    13    10    15 ar
    14    10    11 ar
    15    11    12 ar
    16    12    13 ar
    17    13    14 ar
    18    14    15 ar
    19    14    16 1
    20    16    17 1
    21    16    18 1
    22    16    19 1
    23    20    21 1

@<TRIPOS>MOLECULE
ZINC11615873_replica-1.pdb
 22 24 0 0 0
SMALL
GASTEIGER

@<TRIPOS>ATOM
       1  C1         12.9610   32.2890   63.1390  C.3       1 <0>        -0.1459
       2  C2         13.8430   33.5390   63.1150  C.3       1 <0>        -0.0624
       3  C3         15.0490   33.2950   62.2070  C.3       1 <0>        -0.1455
       4  C4         14.3270   33.8490   64.5330  C.3       1 <0>        -0.1492
       5  C5         13.0340   34.7240   62.5820  C.3       1 <0>        -0.0778
       6  C6         12.2830   35.3910   63.7390  C.3       1 <0>        -0.1176
       7  C7         11.6730   36.7120   63.2590  C.3       1 <0>        -0.0419
       8  C8         10.9080   36.4530   61.9810  C.2       1 <0>         0.0345
       9  C9         11.0690   35.3490   61.2310  C.2       1 <0>        -0.1694
      10  C10        10.1580   35.4760   60.0950  C.ar      1 <0>        -0.1107
      11  C11         9.8560   34.6830   58.9870  C.ar      1 <0>        -0.0504
      12  C12         8.9130   35.1170   58.0730  C.ar      1 <0>         0.1004
      13  C13         8.2730   36.3410   58.2570  C.ar      1 <0>        -0.0953
      14  C14         8.5620   37.1260   59.3510  C.ar      1 <0>        -0.0971
      15  C15         9.5050   36.7070   60.2800  C.ar      1 <0>         0.0597
      16  O1          9.9860   37.2500   61.4200  O.3       1 <0>        -0.1880
      17  N1          8.6070   34.3280   56.9600  N.pl3     1 <0>        -1.0612
      18  S1          7.5680   33.0470   57.1130  S.o2      1 <0>         2.6080
      19  O2          6.6790   33.4250   58.1560  O.2       1 <0>        -0.9481
      20  O3          8.4110   31.9120   57.2550  O.2       1 <0>        -0.9536
      21  C16         6.6810   32.9730   55.5330  C.3       1 <0>        -0.6699
      22  C17        12.0230   34.2260   61.5420  C.3       1 <0>        -0.0495
@<TRIPOS>BOND
     1     1     2 1
     2     2     3 1
     3     2     4 1
     4     2     5 1
     5     5    22 1
     6     5     6 1
     7     6     7 1
     8     7     8 1
     9     8    16 1
    10     8     9 2
    11     9    10 1
    12     9    22 1
    13    10    15 ar
    14    10    11 ar
    15    11    12 ar
    16    12    13 ar
    17    12    17 1
    18    13    14 ar
    19    14    15 ar
    20    15    16 1
    21    17    18 1
    22    18    19 2
    23    18    20 2
    24    18    21 1

@<TRIPOS>MOLECULE
ZINC13416688_replica-1.pdb
 26 28 0 0 0
SMALL
GASTEIGER

@<TRIPOS>ATOM
       1  C1         -0.9150   26.6840   51.4910  C.ar      1 <0>        -0.1138
       2  C2         -0.2860   26.3950   52.6870  C.ar      1 <0>        -0.1154
       3  C3         -0.3910   27.2690   53.7520  C.ar      1 <0>        -0.0989
       4  C4         -1.1260   28.4320   53.6220  C.ar      1 <0>        -0.0924
       5  C5         -1.7590   28.7190   52.4270  C.ar      1 <0>        -0.1073
       6  C6         -1.6500   27.8470   51.3600  C.ar      1 <0>        -0.1142
       7  C7         -1.2410   29.3860   54.7840  C.3       1 <0>         0.2773
       8  C8         -1.6350   28.6230   56.0220  C.2       1 <0>        -0.1502
       9  C9         -2.8740   28.3770   56.5150  C.2       1 <0>        -0.1414
      10  C10        -2.9980   27.6410   57.6790  C.2       1 <0>        -0.1543
      11  C11        -1.8780   27.1970   58.2980  C.2       1 <0>        -0.1740
      12  S1         -0.5920   27.8110   57.2210  S.3       1 <0>         0.0445
      13  N1          0.0490   30.0430   55.0040  N.am      1 <0>        -0.7214
      14  C12         0.1070   31.1970   55.6990  C.2       1 <0>         0.5448
      15  O1         -0.9090   31.6900   56.1420  O.2       1 <0>        -0.5056
      16  C13         1.4340   31.8730   55.9270  C.3       1 <0>        -0.1811
      17  S2          1.8860   31.7410   57.6760  S.3       1 <0>         0.1240
      18  C14         2.1490   33.4420   58.0520  C.2       1 <0>         0.0341
      19  N2          3.2700   34.0520   58.3890  N.2       1 <0>        -0.4369
      20  C15         3.2930   35.3490   58.6370  C.2       1 <0>         0.1197
      21  C16         2.1340   36.0440   58.5490  C.2       1 <0>        -0.2202
      22  S3          1.0000   34.7430   58.0830  S.3       1 <0>        -0.0055
      23  C17         4.5790   36.0380   59.0140  C.3       1 <0>        -0.1011
      24  C18         5.5780   35.8840   57.8980  C.2       1 <0>         0.4682
      25  O2          6.6640   35.4020   58.1210  O.co2     1 <0>        -0.6197
      26  O3          5.2640   36.2810   56.6550  O.co2     1 <0>        -0.7750
@<TRIPOS>BOND
     1     1     6 ar
     2     1     2 ar
     3     2     3 ar
     4     3     4 ar
     5     4     5 ar
     6     4     7 1
     7     5     6 ar
     8     7     8 1
     9     7    13 1
    10     8    12 1
    11     8     9 2
    12     9    10 1
    13    10    11 2
    14    11    12 1
    15    13    14 am
    16    14    15 2
    17    14    16 1
    18    16    17 1
    19    17    18 1
    20    18    22 1
    21    18    19 2
    22    19    20 1
    23    20    21 2
    24    20    23 1
    25    21    22 1
    26    23    24 1
    27    24    25 2
    28    24    26 1

@<TRIPOS>MOLECULE
ZINC62104708_replica-1.pdb
 21 20 0 0 0
SMALL
GASTEIGER

@<TRIPOS>ATOM
       1  C1          9.8230   36.8560   61.1080  C.3       1 <0>        -0.1526
       2  C2         10.5720   35.5630   60.7760  C.3       1 <0>        -0.1220
       3  C3         10.0470   34.9950   59.4560  C.3       1 <0>        -0.1348
       4  C4          9.1990   36.0540   58.7470  C.3       1 <0>         0.1141
       5  N1          8.0560   35.4080   58.0960  N.am      1 <0>        -0.6112
       6  C5          8.1690   34.0260   57.6220  C.3       1 <0>         0.0656
       7  C6          6.9020   36.0840   57.9340  C.2       1 <0>         0.5144
       8  O1          6.8310   37.2490   58.2610  O.2       1 <0>        -0.5267
       9  C7          5.6990   35.3910   57.3470  C.3       1 <0>         0.1501
      10  C8          5.3000   36.0810   56.0420  C.3       1 <0>        -0.0995
      11  C9          3.7740   36.1220   55.9320  C.3       1 <0>        -0.1499
      12  C10         5.8750   35.3050   54.8560  C.3       1 <0>        -0.1146
      13  C11         5.4230   33.8450   54.9360  C.3       1 <0>        -0.1478
      14  N2          4.5850   35.4600   58.2970  N.am      1 <0>        -0.6944
      15  C12         4.2930   34.3950   59.0710  C.2       1 <0>         0.6542
      16  O2          4.9530   33.3790   58.9820  O.2       1 <0>        -0.5550
      17  O3          3.2690   34.4590   59.9420  O.3       1 <0>        -0.3568
      18  C13         1.9550   34.2640   59.4160  C.3       1 <0>         0.1361
      19  C14         1.4220   35.5910   58.8700  C.3       1 <0>        -0.1856
      20  C15         2.0050   33.2310   58.2880  C.3       1 <0>        -0.1418
      21  C16         1.0300   33.7620   60.5270  C.3       1 <0>        -0.1862
@<TRIPOS>BOND
     1     1     2 1
     2     2     3 1
     3     3     4 1
     4     4     5 1
     5     5     6 1
     6     5     7 am
     7     7     8 2
     8     7     9 1
     9     9    10 1
    10     9    14 1
    11    10    11 1
    12    10    12 1
    13    12    13 1
    14    14    15 am
    15    15    16 2
    16    15    17 1
    17    17    18 1
    18    18    19 1
    19    18    20 1
    20    18    21 1

@<TRIPOS>MOLECULE
ZINC37103532_replica-1.pdb
 18 19 0 0 0
SMALL
GASTEIGER

@<TRIPOS>ATOM
       1  C1         11.2020   36.7810   62.6320  C.3       1 <0>        -0.1725
       2  C2         10.3860   35.9690   61.6250  C.3       1 <0>         0.1514
       3  C3          9.7970   36.9080   60.5690  C.3       1 <0>        -0.1143
       4  C4          8.4870   36.3210   60.0390  C.3       1 <0>         0.1128
       5  C5          7.3140   37.1780   60.5190  C.3       1 <0>        -0.1819
       6  C6          8.5180   36.3080   58.5090  C.3       1 <0>        -0.1795
       7  O1          8.3320   34.9860   60.5240  O.3       1 <0>        -0.3677
       8  C7          8.0010   34.0350   59.5110  C.3       1 <0>         0.0270
       9  N1         11.2540   34.9850   60.9740  N.pl3     1 <0>        -0.7226
      10  C8         11.9600   34.0550   61.7460  C.ar      1 <0>         0.2095
      11  C9         13.3230   34.2150   61.9580  C.ar      1 <0>        -0.1730
      12  C10        14.0200   33.3020   62.7210  C.ar      1 <0>        -0.0866
      13  C11        13.3640   32.2110   63.2850  C.ar      1 <0>         0.0361
      14  C12        12.0010   32.0540   63.0610  C.ar      1 <0>        -0.1228
      15  C13        11.3000   32.9690   62.3080  C.ar      1 <0>        -0.1492
      16  C14        11.5780   30.7830   63.7700  C.3       1 <0>        -0.1122
      17  C15        12.9390   30.1000   64.0460  C.3       1 <0>         0.0530
      18  O2         13.8520   31.2100   64.0710  O.3       1 <0>        -0.3102
@<TRIPOS>BOND
     1     1     2 1
     2     2     3 1
     3     2     9 1
     4     3     4 1
     5     4     5 1
     6     4     6 1
     7     4     7 1
     8     7     8 1
     9     9    10 1
    10    10    15 ar
    11    10    11 ar
    12    11    12 ar
    13    12    13 ar
    14    13    18 1
    15    13    14 ar
    16    14    15 ar
    17    14    16 1
    18    16    17 1
    19    17    18 1

@<TRIPOS>MOLECULE
ZINC35586741_replica-1.pdb
 19 20 0 0 0
SMALL
GASTEIGER

@<TRIPOS>ATOM
       1  C1          7.2170   37.9120   55.6730  C.3       1 <0>        -0.1555
       2  C2          7.6010   36.5050   55.2120  C.3       1 <0>        -0.1504
       3  C3          8.6450   35.9220   56.1660  C.3       1 <0>        -0.0123
       4  N1          8.4230   36.4520   57.5180  N.4       1 <0>        -0.5093
       5  C4          8.2030   35.3380   58.4500  C.3       1 <0>         0.0939
       6  C5          9.1650   35.4510   59.6040  C.ar      1 <0>        -0.1682
       7  C6          9.5280   36.6960   60.0860  C.ar      1 <0>        -0.0857
       8  C7         10.4050   36.8040   61.1450  C.ar      1 <0>        -0.1293
       9  C8         10.9350   35.6600   61.7380  C.ar      1 <0>         0.1413
      10  C9         10.5670   34.4160   61.2400  C.ar      1 <0>        -0.1600
      11  C10         9.6840   34.3100   60.1890  C.ar      1 <0>        -0.0366
      12  C11        11.3090   33.3750   62.0570  C.3       1 <0>        -0.1124
      13  C12        12.3910   34.2300   62.7590  C.3       1 <0>         0.0749
      14  O1         11.7940   35.5380   62.7850  O.3       1 <0>        -0.2902
      15  C13        13.6880   34.2370   61.9470  C.3       1 <0>        -0.1733
      16  C14         6.7670   35.3910   58.9760  C.3       1 <0>        -0.0766
      17  C15         6.7060   34.7340   60.3570  C.3       1 <0>        -0.1645
      18  C16         6.3170   36.8490   59.0850  C.3       1 <0>        -0.1446
      19  C17         5.8430   34.6430   58.0140  C.3       1 <0>        -0.1732
@<TRIPOS>BOND
     1     1     2 1
     2     2     3 1
     3     3     4 1
     4     4     5 1
     5     5     6 1
     6     5    16 1
     7     6    11 ar
     8     6     7 ar
     9     7     8 ar
    10     8     9 ar
    11     9    14 1
    12     9    10 ar
    13    10    11 ar
    14    10    12 1
    15    12    13 1
    16    13    14 1
    17    13    15 1
    18    16    17 1
    19    16    18 1
    20    16    19 1

@<TRIPOS>MOLECULE
ZINC13302310_replica-1.pdb
 23 25 0 0 0
SMALL
GASTEIGER

@<TRIPOS>ATOM
       1  C1         13.0180   31.8030   63.0330  C.3       1 <0>        -0.1433
       2  C2         13.1670   33.3180   63.1790  C.3       1 <0>        -0.0550
       3  C3         14.5040   33.7600   62.5800  C.3       1 <0>        -0.1435
       4  C4         12.0410   34.0060   62.4530  C.ar      1 <0>        -0.0983
       5  C5         11.9960   35.3870   62.3870  C.ar      1 <0>        -0.0903
       6  C6         10.9610   36.0300   61.7310  C.ar      1 <0>        -0.1286
       7  C7          9.9480   35.2990   61.1310  C.ar      1 <0>        -0.0162
       8  C8         10.0140   33.9100   61.1770  C.ar      1 <0>        -0.1602
       9  C9         11.0500   33.2600   61.8490  C.ar      1 <0>        -0.0638
      10  C10         8.9650   33.1270   60.4970  C.2       1 <0>         0.3989
      11  O1          8.7160   31.9840   60.7820  O.2       1 <0>        -0.4466
      12  C11         8.2100   33.8700   59.4040  C.3       1 <0>        -0.1483
      13  C12         7.6640   35.1530   60.0460  C.3       1 <0>        -0.0279
      14  C13         8.8120   36.0530   60.4700  C.3       1 <0>        -0.0136
      15  C14         9.4140   36.8010   59.2790  C.3       1 <0>        -0.0999
      16  C15         8.3410   37.5450   58.4920  C.3       1 <0>        -0.1172
      17  C16         7.3120   36.5440   57.9720  C.3       1 <0>        -0.0919
      18  C17         6.6440   35.8150   59.1340  C.3       1 <0>        -0.0935
      19  C18         5.7430   36.7890   59.9030  C.3       1 <0>        -0.1220
      20  C19         5.7120   34.7720   58.5430  C.2       1 <0>         0.4709
      21  O2          5.7110   34.5660   57.3530  O.co2     1 <0>        -0.6389
      22  C20         8.3310   37.0760   61.5140  C.3       1 <0>        -0.1497
      23  O3          4.8870   34.0780   59.3450  O.co2     1 <0>        -0.7635
@<TRIPOS>BOND
     1     1     2 1
     2     2     3 1
     3     2     4 1
     4     4     9 ar
     5     4     5 ar
     6     5     6 ar
     7     6     7 ar
     8     7    14 1
     9     7     8 ar
    10     8     9 ar
    11     8    10 1
    12    10    11 2
    13    10    12 1
    14    12    13 1
    15    13    18 1
    16    13    14 1
    17    14    15 1
    18    14    22 1
    19    15    16 1
    20    16    17 1
    21    17    18 1
    22    18    19 1
    23    18    20 1
    24    20    21 2
    25    20    23 1

@<TRIPOS>MOLECULE
ZINC32473494_replica-1.pdb
 19 20 0 0 0
SMALL
GASTEIGER

@<TRIPOS>ATOM
       1  C1         14.0900   32.0160   63.7960  C.3       1 <0>        -0.1300
       2  C2         13.2830   30.7660   63.4390  C.3       1 <0>        -0.1448
       3  C3         12.3080   30.2290   64.4900  C.3       1 <0>        -0.1730
       4  C4         11.7750   30.9300   63.2380  C.3       1 <0>        -0.1625
       5  C5         11.1890   32.3340   63.4100  C.3       1 <0>         0.1475
       6  N1         11.0870   32.9840   62.1010  N.pl3     1 <0>        -1.1147
       7  S1         11.7490   34.4840   61.8680  S.o2      1 <0>         2.6949
       8  O1         11.7430   35.1310   63.1330  O.2       1 <0>        -0.9575
       9  O2         12.9390   34.2900   61.1170  O.2       1 <0>        -0.9556
      10  C6         10.6420   35.3870   60.8360  C.ar      1 <0>        -0.6826
      11  C7         10.2380   34.8550   59.6260  C.ar      1 <0>        -0.0192
      12  C8          9.3690   35.5620   58.8150  C.ar      1 <0>        -0.1368
      13  C9          8.9060   36.8020   59.2150  C.ar      1 <0>        -0.0114
      14  C10         9.3110   37.3340   60.4250  C.ar      1 <0>        -0.1427
      15  C11        10.1760   36.6240   61.2380  C.ar      1 <0>        -0.0149
      16  C12         7.9610   37.5740   58.3320  C.3       1 <0>        -0.0390
      17  C13         7.3840   38.7560   59.1140  C.3       1 <0>        -0.1399
      18  C14         8.7150   38.0930   57.1060  C.3       1 <0>        -0.1480
      19  C15         6.8220   36.6580   57.8800  C.3       1 <0>        -0.1410
@<TRIPOS>BOND
     1     1     2 1
     2     2     4 1
     3     2     3 1
     4     3     4 1
     5     4     5 1
     6     5     6 1
     7     6     7 1
     8     7     8 2
     9     7     9 2
    10     7    10 1
    11    10    15 ar
    12    10    11 ar
    13    11    12 ar
    14    12    13 ar
    15    13    14 ar
    16    13    16 1
    17    14    15 ar
    18    16    17 1
    19    16    18 1
    20    16    19 1

@<TRIPOS>MOLECULE
ZINC13980937_replica-1.pdb
 24 24 0 0 0
SMALL
GASTEIGER

@<TRIPOS>ATOM
       1  C1          0.7180   25.4960   54.6930  C.3       1 <0>        -0.1173
       2  C2         -0.0520   26.6490   54.1040  C.ar      1 <0>        -0.0421
       3  C3         -0.4950   26.5870   52.7950  C.ar      1 <0>        -0.1571
       4  C4         -1.2030   27.6420   52.2510  C.ar      1 <0>        -0.0403
       5  C5         -1.4690   28.7630   53.0140  C.ar      1 <0>        -0.1535
       6  C6         -1.0260   28.8280   54.3270  C.ar      1 <0>         0.1352
       7  C7         -0.3110   27.7700   54.8690  C.ar      1 <0>        -0.2186
       8  O1         -1.2870   29.9290   55.0790  O.3       1 <0>        -0.2884
       9  C8         -0.6620   31.1510   54.6790  C.3       1 <0>         0.0501
      10  C9          0.0880   31.7370   55.8480  C.2       1 <0>         0.5316
      11  O2          0.6110   31.0050   56.6610  O.2       1 <0>        -0.4746
      12  N1          0.1780   33.0750   55.9890  N.am      1 <0>        -0.5851
      13  N2          0.8750   33.6200   57.0740  N.2       1 <0>        -0.2286
      14  C10         1.8590   34.4430   56.8680  C.2       1 <0>         0.1029
      15  C11         2.5890   35.0140   58.0050  C.2       1 <0>        -0.1327
      16  C12         3.7740   35.5890   57.8150  C.2       1 <0>        -0.0691
      17  C13         4.3660   35.6530   56.4300  C.3       1 <0>        -0.1328
      18  C14         4.5240   36.1760   58.9830  C.3       1 <0>        -0.0831
      19  C15         6.0230   35.9260   58.8030  C.3       1 <0>        -0.0890
      20  C16         6.7430   37.2470   58.7100  C.2       1 <0>        -0.1720
      21  C17         7.7870   37.3690   57.9280  C.2       1 <0>        -0.1277
      22  C18         8.3480   36.1590   57.2250  C.3       1 <0>        -0.1240
      23  C19         8.4280   38.7190   57.7320  C.3       1 <0>        -0.1199
      24  C20        -1.6840   27.5710   50.8250  C.3       1 <0>        -0.1173
@<TRIPOS>BOND
     1     1     2 1
     2     2     7 ar
     3     2     3 ar
     4     3     4 ar
     5     4     5 ar
     6     4    24 1
     7     5     6 ar
     8     6     7 ar
     9     6     8 1
    10     8     9 1
    11     9    10 1
    12    10    11 2
    13    10    12 am
    14    12    13 1
    15    13    14 2
    16    14    15 1
    17    15    16 2
    18    16    17 1
    19    16    18 1
    20    18    19 1
    21    19    20 1
    22    20    21 2
    23    21    22 1
    24    21    23 1

@<TRIPOS>MOLECULE
ZINC36703499_replica-1.pdb
 21 22 0 0 0
SMALL
GASTEIGER

@<TRIPOS>ATOM
       1  C1         12.2040   32.4250   63.0420  C.3       1 <0>        -0.1647
       2  C2         12.4490   33.9080   62.7530  C.3       1 <0>         0.1407
       3  C3         13.9140   34.1170   62.3670  C.3       1 <0>        -0.1294
       4  C4         14.7900   33.1270   63.1380  C.3       1 <0>        -0.1151
       5  C5         15.4420   33.8390   64.3250  C.3       1 <0>        -0.0982
       6  C6         15.6840   32.8340   65.4530  C.3       1 <0>        -0.1500
       7  C7         16.7760   34.4450   63.8870  C.3       1 <0>        -0.1492
       8  N1         11.5860   34.3390   61.6500  N.am      1 <0>        -0.7198
       9  C8         11.1200   35.6030   61.6150  C.2       1 <0>         0.5477
      10  O1         11.4130   36.3860   62.4990  O.2       1 <0>        -0.5434
      11  C9         10.2590   36.0330   60.5130  C.2       1 <0>        -0.2121
      12  C10         9.9390   35.1660   59.5280  C.2       1 <0>        -0.0118
      13  C11         9.0750   35.5980   58.4200  C.ar      1 <0>        -0.0679
      14  C12         8.8330   36.9600   58.2090  C.ar      1 <0>        -0.0883
      15  C13         8.0230   37.3630   57.1690  C.ar      1 <0>        -0.1024
      16  C14         7.4450   36.4200   56.3290  C.ar      1 <0>         0.0454
      17  C15         7.6810   35.0600   56.5340  C.ar      1 <0>         0.0301
      18  C16         8.4950   34.6500   57.5710  C.ar      1 <0>        -0.0760
      19  O2          7.0040   34.3530   55.5830  O.3       1 <0>        -0.3065
      20  C17         6.0280   35.2650   55.0470  C.3       1 <0>         0.2125
      21  O3          6.6220   36.5610   55.2500  O.3       1 <0>        -0.3061
@<TRIPOS>BOND
     1     1     2 1
     2     2     3 1
     3     2     8 1
     4     3     4 1
     5     4     5 1
     6     5     6 1
     7     5     7 1
     8     8     9 am
     9     9    10 2
    10     9    11 1
    11    11    12 2
    12    12    13 1
    13    13    18 ar
    14    13    14 ar
    15    14    15 ar
    16    15    16 ar
    17    16    21 1
    18    16    17 ar
    19    17    18 ar
    20    17    19 1
    21    19    20 1
    22    20    21 1

@<TRIPOS>MOLECULE
ZINC50831262_replica-1.pdb
 20 21 0 0 0
SMALL
GASTEIGER

@<TRIPOS>ATOM
       1  C1          6.0990   34.9530   60.5850  C.3       1 <0>        -0.1510
       2  C2          4.6610   34.5480   60.2570  C.3       1 <0>        -0.1355
       3  C3          4.1710   35.3420   59.0440  C.3       1 <0>         0.1090
       4  N1          5.2950   35.5860   58.1360  N.pl3     1 <0>        -0.6675
       5  C4          5.3670   34.9120   56.9190  C.2       1 <0>         0.1140
       6  C5          6.4060   34.2030   56.3890  C.2       1 <0>        -0.1062
       7  N2          6.2000   33.6620   55.2090  N.2       1 <0>        -0.1816
       8  N3          5.0590   33.8270   54.6320  N.2       1 <0>        -0.2416
       9  S1          4.1930   34.7550   55.7260  S.3       1 <0>         0.2697
      10  C6          7.7170   34.0490   57.1160  C.3       1 <0>         0.1540
      11  O1          8.3860   35.3110   57.1650  O.3       1 <0>        -0.3075
      12  C7          8.9740   35.6530   58.3420  C.ar      1 <0>         0.1305
      13  C8          9.8080   34.7520   58.9890  C.ar      1 <0>        -0.2080
      14  C9         10.4040   35.1020   60.1850  C.ar      1 <0>        -0.0838
      15  C10        10.1710   36.3480   60.7360  C.ar      1 <0>        -0.1540
      16  C11         9.3400   37.2470   60.0940  C.ar      1 <0>        -0.0780
      17  C12         8.7460   36.9040   58.8940  C.ar      1 <0>        -0.1040
      18  C13         7.8440   37.8860   58.1910  C.3       1 <0>        -0.0523
      19  C14         7.1210   38.7480   59.2290  C.3       1 <0>        -0.1433
      20  C15         8.6830   38.7830   57.2780  C.3       1 <0>        -0.1417
@<TRIPOS>BOND
     1     1     2 1
     2     2     3 1
     3     3     4 1
     4     4     5 1
     5     5     9 1
     6     5     6 2
     7     6     7 1
     8     6    10 1
     9     7     8 2
    10     8     9 1
    11    10    11 1
    12    11    12 1
    13    12    17 ar
    14    12    13 ar
    15    13    14 ar
    16    14    15 ar
    17    15    16 ar
    18    16    17 ar
    19    17    18 1
    20    18    19 1
    21    18    20 1

@<TRIPOS>MOLECULE
ZINC52098453_replica-1.pdb
 20 21 0 0 0
SMALL
GASTEIGER

@<TRIPOS>ATOM
       1  C1          6.5590   33.3710   59.1450  C.3       1 <0>        -0.1476
       2  C2          5.5600   34.4580   59.5480  C.3       1 <0>        -0.0790
       3  C3          6.0950   35.2130   60.7670  C.3       1 <0>        -0.1513
       4  C4          5.3710   35.4350   58.3860  C.3       1 <0>         0.1758
       5  C5          3.9030   35.5550   58.0650  C.2       1 <0>        -0.1423
       6  C6          2.8360   35.4350   58.8920  C.2       1 <0>        -0.1565
       7  C7          1.5650   35.5870   58.3720  C.2       1 <0>        -0.1587
       8  C8          1.4220   35.8530   57.0510  C.2       1 <0>        -0.1873
       9  S1          3.1190   35.9020   56.4990  S.3       1 <0>         0.0764
      10  N1          5.8990   36.7530   58.7640  N.3       1 <0>        -0.6707
      11  C9          6.8330   37.2560   57.7490  C.3       1 <0>         0.0339
      12  C10         7.9710   38.0150   58.4340  C.3       1 <0>         0.1830
      13  C11         8.7890   38.7660   57.3800  C.3       1 <0>        -0.1395
      14  C12         8.8620   37.0400   59.1590  C.ar      1 <0>        -0.1190
      15  C13         9.1980   35.8380   58.5650  C.ar      1 <0>        -0.1154
      16  C14        10.0140   34.9420   59.2310  C.ar      1 <0>        -0.1205
      17  C15        10.4940   35.2500   60.4900  C.ar      1 <0>        -0.1179
      18  C16        10.1590   36.4520   61.0830  C.ar      1 <0>        -0.1200
      19  C17         9.3470   37.3490   60.4160  C.ar      1 <0>        -0.1009
      20  O1          7.4260   38.9500   59.3680  O.3       1 <0>        -0.5381
@<TRIPOS>BOND
     1     1     2 1
     2     2     3 1
     3     2     4 1
     4     4     5 1
     5     4    10 1
     6     5     9 1
     7     5     6 2
     8     6     7 1
     9     7     8 2
    10     8     9 1
    11    10    11 1
    12    11    12 1
    13    12    13 1
    14    12    14 1
    15    12    20 1
    16    14    19 ar
    17    14    15 ar
    18    15    16 ar
    19    16    17 ar
    20    17    18 ar
    21    18    19 ar

@<TRIPOS>MOLECULE
ZINC36991083_replica-1.pdb
 20 21 0 0 0
SMALL
GASTEIGER

@<TRIPOS>ATOM
       1  C1          7.4710   37.8660   55.9360  C.3       1 <0>        -0.1551
       2  C2          8.1610   38.7730   56.9580  C.3       1 <0>        -0.1202
       3  C3          8.5820   37.9460   58.1730  C.3       1 <0>        -0.0905
       4  C4          7.6470   38.2500   59.3470  C.3       1 <0>        -0.1513
       5  C5          8.5000   36.4570   57.8300  C.3       1 <0>        -0.1256
       6  C6          8.4960   35.6350   59.1200  C.3       1 <0>         0.1449
       7  C7          7.4420   34.5310   59.0180  C.3       1 <0>        -0.1399
       8  C8          8.0680   33.2830   58.3940  C.3       1 <0>        -0.1518
       9  N1          9.8160   35.0320   59.3180  N.pl3     1 <0>        -0.7308
      10  C9         10.5150   35.2570   60.5070  C.ar      1 <0>         0.2521
      11  C10        10.3980   36.4760   61.1630  C.ar      1 <0>        -0.1987
      12  C11        11.0890   36.6990   62.3390  C.ar      1 <0>        -0.0430
      13  C12        11.8980   35.7090   62.8660  C.ar      1 <0>        -0.1894
      14  C13        12.0200   34.4890   62.2140  C.ar      1 <0>         0.1772
      15  C14        11.3240   34.2600   61.0370  C.ar      1 <0>        -0.2121
      16  N2         12.8420   33.4870   62.7490  N.pl3     1 <0>        -0.4291
      17  C15        14.1500   33.6030   63.1120  C.2       1 <0>         0.1599
      18  N3         14.5330   32.4380   63.5600  N.2       1 <0>        -0.2905
      19  N4         13.5550   31.6050   63.5020  N.2       1 <0>        -0.2909
      20  C16        12.4960   32.1960   63.0200  C.2       1 <0>         0.1623
@<TRIPOS>BOND
     1     1     2 1
     2     2     3 1
     3     3     4 1
     4     3     5 1
     5     5     6 1
     6     6     7 1
     7     6     9 1
     8     7     8 1
     9     9    10 1
    10    10    15 ar
    11    10    11 ar
    12    11    12 ar
    13    12    13 ar
    14    13    14 ar
    15    14    15 ar
    16    14    16 1
    17    16    20 1
    18    16    17 1
    19    17    18 2
    20    18    19 1
    21    19    20 2

@<TRIPOS>MOLECULE
ZINC37124062_replica-1.pdb
 19 20 0 0 0
SMALL
GASTEIGER

@<TRIPOS>ATOM
       1  C1         11.9460   36.2910   63.3190  C.3       1 <0>        -0.1709
       2  C2         12.0050   35.3870   62.0860  C.3       1 <0>         0.1481
       3  C3         12.9060   34.1850   62.3770  C.3       1 <0>        -0.1290
       4  C4         12.0560   33.0250   62.9000  C.3       1 <0>        -0.1130
       5  C5         12.9210   31.7680   63.0100  C.3       1 <0>        -0.0983
       6  C6         14.2260   32.1080   63.7350  C.3       1 <0>        -0.1499
       7  C7         12.1660   30.6960   63.7960  C.3       1 <0>        -0.1490
       8  N1         10.6560   34.9180   61.7590  N.pl3     1 <0>        -0.7400
       9  C8         10.0420   35.3260   60.5690  C.ar      1 <0>         0.2061
      10  C9          9.9770   34.4550   59.4890  C.ar      1 <0>        -0.1704
      11  C10         9.3720   34.8560   58.3150  C.ar      1 <0>        -0.0982
      12  C11         8.8290   36.1300   58.2140  C.ar      1 <0>         0.0942
      13  C12         8.8930   37.0000   59.2950  C.ar      1 <0>        -0.0706
      14  C13         9.4940   36.5980   60.4700  C.ar      1 <0>        -0.1632
      15  C14         8.3020   38.3800   59.1820  C.3       1 <0>        -0.0790
      16  C15         8.4730   38.8950   57.7520  C.3       1 <0>        -0.1377
      17  C16         8.0190   37.8470   56.7720  C.2       1 <0>         0.5189
      18  O1          7.4730   38.1840   55.7440  O.2       1 <0>        -0.5347
      19  N2          8.2150   36.5390   57.0240  N.am      1 <0>        -0.6607
@<TRIPOS>BOND
     1     1     2 1
     2     2     3 1
     3     2     8 1
     4     3     4 1
     5     4     5 1
     6     5     6 1
     7     5     7 1
     8     8     9 1
     9     9    14 ar
    10     9    10 ar
    11    10    11 ar
    12    11    12 ar
    13    12    19 1
    14    12    13 ar
    15    13    14 ar
    16    13    15 1
    17    15    16 1
    18    16    17 1
    19    17    18 2
    20    17    19 am

@<TRIPOS>MOLECULE
ZINC02941572_replica-1.pdb
 27 29 0 0 0
SMALL
GASTEIGER

@<TRIPOS>ATOM
       1  C1          0.5520   22.5450   55.7720  C.3       1 <0>        -0.1534
       2  C2          0.5910   24.0740   55.7310  C.3       1 <0>        -0.1209
       3  C3         -0.0290   24.6330   57.0140  C.3       1 <0>        -0.1343
       4  C4          0.0790   26.1590   57.0080  C.3       1 <0>         0.1228
       5  N1          0.6190   26.6050   55.7210  N.pl3     1 <0>        -0.6937
       6  C5         -0.0540   27.5550   54.9840  C.ar      1 <0>         0.4878
       7  C6         -0.4970   27.2740   53.6660  C.ar      1 <0>        -0.2041
       8  C7         -0.2770   26.0330   53.0600  C.ar      1 <0>        -0.0644
       9  C8         -0.7250   25.8160   51.7900  C.ar      1 <0>        -0.1391
      10  C9         -1.3990   26.8130   51.0900  C.ar      1 <0>        -0.0692
      11  C10        -1.6290   28.0330   51.6530  C.ar      1 <0>        -0.1153
      12  C11        -1.1820   28.2890   52.9570  C.ar      1 <0>         0.2027
      13  N2         -1.3850   29.4720   53.5550  N.ar      1 <0>        -0.5672
      14  C12        -0.9520   29.6820   54.7850  C.ar      1 <0>         0.3373
      15  N3         -0.3030   28.7550   55.4870  N.ar      1 <0>        -0.5765
      16  S1         -1.2430   31.2530   55.5260  S.3       1 <0>         0.0906
      17  C13         0.1970   31.3550   56.6190  C.3       1 <0>        -0.1524
      18  C14         0.3110   32.7540   57.1690  C.2       1 <0>         0.5316
      19  O1          0.1370   32.9570   58.3510  O.2       1 <0>        -0.5224
      20  N4          0.6080   33.7790   56.3450  N.am      1 <0>        -0.7201
      21  C15         0.7200   35.1380   56.8790  C.3       1 <0>         0.1621
      22  C16         2.1650   35.4420   57.1810  C.ar      1 <0>        -0.1128
      23  C17         3.0960   35.4590   56.1590  C.ar      1 <0>        -0.0998
      24  C18         4.4200   35.7440   56.4360  C.ar      1 <0>        -0.1215
      25  C19         4.8160   36.0000   57.7360  C.ar      1 <0>        -0.1102
      26  C20         3.8860   35.9780   58.7580  C.ar      1 <0>        -0.1215
      27  C21         2.5600   35.6990   58.4810  C.ar      1 <0>        -0.0999
@<TRIPOS>BOND
     1     1     2 1
     2     2     3 1
     3     3     4 1
     4     4     5 1
     5     5     6 1
     6     6    15 ar
     7     6     7 ar
     8     7    12 ar
     9     7     8 ar
    10     8     9 ar
    11     9    10 ar
    12    10    11 ar
    13    11    12 ar
    14    12    13 ar
    15    13    14 ar
    16    14    15 ar
    17    14    16 1
    18    16    17 1
    19    17    18 1
    20    18    19 2
    21    18    20 am
    22    20    21 1
    23    21    22 1
    24    22    27 ar
    25    22    23 ar
    26    23    24 ar
    27    24    25 ar
    28    25    26 ar
    29    26    27 ar

@<TRIPOS>MOLECULE
ZINC13301985_replica-1.pdb
 23 25 0 0 0
SMALL
GASTEIGER

@<TRIPOS>ATOM
       1  C1          3.5150   33.6300   60.3750  C.3       1 <0>        -0.1643
       2  C2          3.5930   33.4940   58.8530  C.3       1 <0>         0.0816
       3  N1          2.3490   32.9050   58.3500  N.am      1 <0>        -0.5209
       4  C3          2.2510   31.5930   58.2290  C.2       1 <0>         0.5430
       5  O1          3.1810   30.8650   58.5300  O.2       1 <0>        -0.4901
       6  C4          1.0290   31.0530   57.7390  C.2       1 <0>        -0.3152
       7  C5          0.6760   29.7400   57.5230  C.2       1 <0>         0.1070
       8  C6         -0.6020   29.4290   57.0270  C.2       1 <0>        -0.2766
       9  C7         -0.7380   28.9220   55.7790  C.2       1 <0>         0.2551
      10  C8         -1.4540   29.5710   54.6140  C.3       1 <0>        -0.0045
      11  C9         -1.2970   28.5810   53.4840  C.ar      1 <0>        -0.1306
      12  C10        -1.7230   28.5870   52.1730  C.ar      1 <0>        -0.0617
      13  C11        -1.4280   27.5190   51.3460  C.ar      1 <0>        -0.1346
      14  C12        -0.7070   26.4460   51.8380  C.ar      1 <0>        -0.0826
      15  C13        -0.2800   26.4350   53.1490  C.ar      1 <0>        -0.1362
      16  C14        -0.5730   27.5090   53.9890  C.ar      1 <0>         0.1321
      17  N2         -0.2500   27.7280   55.3270  N.pl3     1 <0>        -0.5206
      18  C15         0.5150   26.7890   56.1510  C.3       1 <0>         0.0602
      19  C16        -2.9340   29.7800   54.9430  C.3       1 <0>        -0.1318
      20  C17        -0.7920   30.9030   54.2540  C.3       1 <0>        -0.1313
      21  S1          0.0740   32.5440   57.4870  S.3       1 <0>         0.0614
      22  C18         1.3170   33.7130   58.0190  C.2       1 <0>         0.2861
      23  S2          1.2230   35.4210   58.0920  S.2       1 <0>        -0.3704
@<TRIPOS>BOND
     1     1     2 1
     2     2     3 1
     3     3    22 1
     4     3     4 am
     5     4     5 2
     6     4     6 1
     7     6     7 2
     8     6    21 1
     9     7     8 1
    10     8     9 2
    11     9    17 1
    12     9    10 1
    13    10    11 1
    14    10    19 1
    15    10    20 1
    16    11    16 ar
    17    11    12 ar
    18    12    13 ar
    19    13    14 ar
    20    14    15 ar
    21    15    16 ar
    22    16    17 1
    23    17    18 1
    24    21    22 1
    25    22    23 2

@<TRIPOS>MOLECULE
ZINC65509384_replica-1.pdb
 25 28 0 0 0
SMALL
GASTEIGER

@<TRIPOS>ATOM
       1  C1         13.1760   32.5300   63.2960  C.ar      1 <0>        -0.1182
       2  C2         13.5980   33.8350   63.0490  C.ar      1 <0>        -0.1165
       3  C3         12.8350   34.6900   62.3150  C.ar      1 <0>        -0.1071
       4  C4         11.6030   34.2540   61.7980  C.ar      1 <0>        -0.0477
       5  C5         10.7880   35.1080   61.0340  C.ar      1 <0>        -0.0957
       6  C6          9.6020   34.6510   60.5490  C.ar      1 <0>        -0.0618
       7  C7          9.1810   33.3460   60.7970  C.ar      1 <0>        -0.1078
       8  C8          9.9430   32.4910   61.5310  C.ar      1 <0>        -0.1043
       9  C9         11.1740   32.9270   62.0490  C.ar      1 <0>        -0.0542
      10  C10        11.9890   32.0720   62.8120  C.ar      1 <0>        -0.1066
      11  C11         8.7310   35.5700   59.7320  C.3       1 <0>        -0.0417
      12  C12         7.4190   35.8260   60.4780  C.3       1 <0>        -0.1272
      13  C13         6.5510   36.7870   59.6610  C.3       1 <0>         0.1204
      14  N1          6.3790   36.2370   58.3090  N.pl3     1 <0>        -0.6030
      15  C14         7.5750   35.8710   57.5390  C.3       1 <0>         0.0920
      16  C15         8.4320   34.9200   58.3790  C.3       1 <0>         0.1013
      17  O1          9.6590   34.6540   57.6970  O.3       1 <0>        -0.5549
      18  C16         5.1100   36.0660   57.7710  C.ar      1 <0>         0.4150
      19  C17         4.9130   36.2360   56.4010  C.ar      1 <0>        -0.2098
      20  C18         3.6460   36.0630   55.8720  C.ar      1 <0>        -0.0292
      21  C19         2.6090   35.7260   56.7290  C.ar      1 <0>        -0.1769
      22  C20         2.8730   35.5710   58.0870  C.ar      1 <0>         0.2417
      23  N2          4.1030   35.7390   58.5620  N.ar      1 <0>        -0.5178
      24  C21         1.8100   35.2230   58.9810  C.1       1 <0>         0.2640
      25  N3          0.9660   34.9470   59.6900  N.1       1 <0>        -0.3853
@<TRIPOS>BOND
     1     1    10 ar
     2     1     2 ar
     3     2     3 ar
     4     3     4 ar
     5     4     9 ar
     6     4     5 ar
     7     5     6 ar
     8     6     7 ar
     9     6    11 1
    10     7     8 ar
    11     8     9 ar
    12     9    10 ar
    13    11    16 1
    14    11    12 1
    15    12    13 1
    16    13    14 1
    17    14    15 1
    18    14    18 1
    19    15    16 1
    20    16    17 1
    21    18    23 ar
    22    18    19 ar
    23    19    20 ar
    24    20    21 ar
    25    21    22 ar
    26    22    23 ar
    27    22    24 1
    28    24    25 3

@<TRIPOS>MOLECULE
ZINC39564109_replica-1.pdb
 19 20 0 0 0
SMALL
GASTEIGER

@<TRIPOS>ATOM
       1  C1         13.1020   31.4830   63.2160  C.3       1 <0>        -0.1549
       2  C2         14.2780   32.4550   63.3360  C.3       1 <0>        -0.1252
       3  C3         13.9120   33.7830   62.6690  C.3       1 <0>        -0.1192
       4  C4         12.7120   34.4020   63.3890  C.3       1 <0>        -0.1408
       5  C5         12.0420   35.4280   62.4740  C.3       1 <0>         0.1078
       6  N1         11.3860   34.7370   61.3610  N.pl3     1 <0>        -0.7284
       7  C6         10.4970   35.4210   60.5480  C.2       1 <0>         0.2517
       8  C7         10.0310   36.7430   60.9580  C.2       1 <0>        -0.1121
       9  C8          9.1670   37.4450   60.2000  C.2       1 <0>        -0.0501
      10  C9          8.6850   36.8680   58.9350  C.2       1 <0>         0.1204
      11  N2          7.8670   37.3160   58.0280  N.2       1 <0>        -0.4347
      12  C10         7.7640   36.2950   56.9790  C.3       1 <0>         0.1524
      13  N3          8.6330   35.1870   57.3940  N.2       1 <0>        -0.4750
      14  C11         9.1740   35.5200   58.5380  C.2       1 <0>         0.1822
      15  C12        10.0870   34.8470   59.3880  C.2       1 <0>        -0.2399
      16  C13         6.3180   35.8100   56.8560  C.3       1 <0>        -0.0270
      17  C14         5.5820   36.0670   58.1720  C.3       1 <0>        -0.1405
      18  C15         5.6210   36.5680   55.7240  C.3       1 <0>        -0.1388
      19  C16         6.3070   34.3110   56.5490  C.3       1 <0>        -0.1454
@<TRIPOS>BOND
     1     1     2 1
     2     2     3 1
     3     3     4 1
     4     4     5 1
     5     5     6 1
     6     6     7 2
     7     7    15 1
     8     7     8 1
     9     8     9 2
    10     9    10 1
    11    10    14 1
    12    10    11 2
    13    11    12 1
    14    12    13 1
    15    12    16 1
    16    13    14 1
    17    14    15 2
    18    16    17 1
    19    16    18 1
    20    16    19 1

@<TRIPOS>MOLECULE
ZINC27469731_replica-1.pdb
 19 20 0 0 0
SMALL
GASTEIGER

@<TRIPOS>ATOM
       1  C1          6.9630   37.0250   57.4220  C.3       1 <0>        -0.1414
       2  C2          7.9820   37.8240   58.2370  C.3       1 <0>        -0.0326
       3  C3          7.2450   38.7670   59.1900  C.3       1 <0>        -0.1476
       4  C4          8.8640   38.6410   57.2920  C.3       1 <0>        -0.1414
       5  C5          8.8420   36.8760   59.0340  C.ar      1 <0>        -0.0552
       6  C6          9.3280   37.2630   60.2710  C.ar      1 <0>        -0.1184
       7  C7         10.1150   36.4030   61.0060  C.ar      1 <0>        -0.0905
       8  C8         10.4220   35.1360   60.4980  C.ar      1 <0>        -0.0838
       9  C9          9.9320   34.7550   59.2450  C.ar      1 <0>        -0.0974
      10  C10         9.1420   35.6260   58.5240  C.ar      1 <0>        -0.1245
      11  C11        11.2630   34.2110   61.2760  C.2       1 <0>        -0.0167
      12  C12        12.2230   34.6940   62.0890  C.2       1 <0>        -0.2202
      13  C13        13.0600   33.7730   62.8610  C.2       1 <0>         0.5473
      14  O1         14.0780   34.1770   63.3910  O.2       1 <0>        -0.5501
      15  N1         12.7050   32.4790   62.9830  N.am      1 <0>        -0.7371
      16  C14        13.5420   31.5580   63.7540  C.3       1 <0>         0.1269
      17  C15        12.9590   30.1460   63.6710  C.3       1 <0>        -0.2635
      18  C16        11.4970   29.9610   64.0800  C.3       1 <0>        -0.1235
      19  C17        12.6150   29.4460   64.9870  C.3       1 <0>        -0.1181
@<TRIPOS>BOND
     1     1     2 1
     2     2     3 1
     3     2     4 1
     4     2     5 1
     5     5    10 ar
     6     5     6 ar
     7     6     7 ar
     8     7     8 ar
     9     8     9 ar
    10     8    11 1
    11     9    10 ar
    12    11    12 2
    13    12    13 1
    14    13    14 2
    15    13    15 am
    16    15    16 1
    17    16    17 1
    18    17    19 1
    19    17    18 1
    20    18    19 1

@<TRIPOS>MOLECULE
ZINC08992544_replica-1.pdb
 27 29 0 0 0
SMALL
GASTEIGER

@<TRIPOS>ATOM
       1  C1          4.1940   32.1080   59.1880  C.3       1 <0>        -0.1508
       2  C2          3.9270   33.5080   59.7440  C.3       1 <0>        -0.1255
       3  C3          2.5160   33.5630   60.3310  C.3       1 <0>        -0.1785
       4  C4          4.9470   33.8250   60.8390  C.3       1 <0>        -0.0078
       5  C5          6.2130   35.8880   60.7780  C.3       1 <0>         0.0516
       6  C6          6.9950   36.7360   59.8080  C.ar      1 <0>        -0.2083
       7  C7          8.0690   37.4890   60.2550  C.ar      1 <0>         0.1983
       8  C8          8.8030   38.2720   59.3680  C.ar      1 <0>        -0.1746
       9  C9          8.4630   38.3140   58.0440  C.ar      1 <0>         0.0379
      10  C10         7.3810   37.5650   57.5820  C.ar      1 <0>        -0.2603
      11  C11         6.6380   36.7670   58.4670  C.ar      1 <0>         0.1774
      12  O1          5.6550   36.1510   57.7770  O.3       1 <0>        -0.2076
      13  C12         5.6870   36.4840   56.4650  C.2       1 <0>        -0.0817
      14  C13         4.8300   36.0300   55.5060  C.2       1 <0>         0.0808
      15  C14         3.7970   35.1300   55.8510  C.2       1 <0>        -0.1987
      16  C15         3.6980   33.7650   55.5920  C.2       1 <0>        -0.0799
      17  C16         2.5730   33.1260   56.0450  C.2       1 <0>        -0.1741
      18  C17         1.6270   33.8400   56.7120  C.2       1 <0>        -0.1795
      19  S1          2.2820   35.4440   56.7380  S.3       1 <0>         0.1405
      20  C18         6.7640   37.3870   56.2560  C.2       1 <0>         0.4124
      21  O2          7.1040   37.9030   55.2050  O.2       1 <0>        -0.4058
      22  O3          8.4120   37.4590   61.5690  O.3       1 <0>        -0.4807
      23  C19         7.3420   33.7660   60.4910  C.3       1 <0>        -0.0082
      24  C20         7.9700   33.3790   59.1500  C.3       1 <0>        -0.1362
      25  C21         9.2800   34.1480   58.9600  C.3       1 <0>        -0.1666
      26  C22         8.2540   31.8760   59.1350  C.3       1 <0>        -0.1504
      27  N1          6.0990   34.5210   60.2280  N.4       1 <0>        -0.3990
@<TRIPOS>BOND
     1     1     2 1
     2     2     3 1
     3     2     4 1
     4     4    27 1
     5     5     6 1
     6     5    27 1
     7     6    11 ar
     8     6     7 ar
     9     7     8 ar
    10     7    22 1
    11     8     9 ar
    12     9    10 ar
    13    10    20 1
    14    10    11 ar
    15    11    12 1
    16    12    13 1
    17    13    14 2
    18    13    20 1
    19    14    15 1
    20    15    19 1
    21    15    16 2
    22    16    17 1
    23    17    18 2
    24    18    19 1
    25    20    21 2
    26    23    24 1
    27    23    27 1
    28    24    25 1
    29    24    26 1

@<TRIPOS>MOLECULE
ZINC13278343_replica-1.pdb
 24 26 0 0 0
SMALL
GASTEIGER

@<TRIPOS>ATOM
       1  C1          8.9120   37.5370   59.3990  C.ar      1 <0>        -0.1404
       2  C2          8.5800   36.9350   58.1970  C.ar      1 <0>        -0.1005
       3  C3          8.9490   35.6260   57.9470  C.ar      1 <0>        -0.1114
       4  C4          9.6460   34.9090   58.8970  C.ar      1 <0>        -0.0603
       5  C5          9.9890   35.5110   60.1090  C.ar      1 <0>        -0.1141
       6  C6          9.6120   36.8340   60.3550  C.ar      1 <0>        -0.0635
       7  C7         10.7390   34.7510   61.1290  C.2       1 <0>         0.4887
       8  O1         11.6830   35.2620   61.6970  O.co2     1 <0>        -0.6287
       9  C8          8.5830   34.9790   56.6360  C.3       1 <0>        -0.0551
      10  S1          7.7490   36.1920   55.5760  S.3       1 <0>         0.0491
      11  C9          6.0900   35.6070   55.4810  C.2       1 <0>         0.0543
      12  N1          5.6170   34.5290   54.8840  N.2       1 <0>        -0.2816
      13  N2          4.2690   34.2560   54.9330  N.2       1 <0>        -0.3684
      14  C10         3.4570   35.0720   55.5760  C.2       1 <0>         0.3440
      15  S2          4.5970   36.3170   56.1590  S.3       1 <0>        -0.0183
      16  N3          2.0800   34.9890   55.7490  N.pl3     1 <0>        -0.6756
      17  C11         1.5270   34.1980   56.8520  C.3       1 <0>         0.1370
      18  C12         1.4210   35.0730   58.1030  C.3       1 <0>        -0.0458
      19  C13         1.1900   34.1990   59.3080  C.2       1 <0>        -0.1436
      20  C14         0.4840   34.4660   60.4340  C.2       1 <0>        -0.1507
      21  C15         0.4070   33.5030   61.4220  C.2       1 <0>        -0.1579
      22  C16         1.0380   32.3180   61.2360  C.2       1 <0>        -0.1714
      23  S3          1.7750   32.5420   59.6250  S.3       1 <0>         0.0420
      24  O2         10.3760   33.4880   61.4290  O.co2     1 <0>        -0.7530
@<TRIPOS>BOND
     1     1     6 ar
     2     1     2 ar
     3     2     3 ar
     4     3     4 ar
     5     3     9 1
     6     4     5 ar
     7     5     6 ar
     8     5     7 1
     9     7     8 2
    10     7    24 1
    11     9    10 1
    12    10    11 1
    13    11    15 1
    14    11    12 2
    15    12    13 1
    16    13    14 2
    17    14    15 1
    18    14    16 1
    19    16    17 1
    20    17    18 1
    21    18    19 1
    22    19    23 1
    23    19    20 2
    24    20    21 1
    25    21    22 2
    26    22    23 1

@<TRIPOS>MOLECULE
ZINC50268148_replica-1.pdb
 18 19 0 0 0
SMALL
GASTEIGER

@<TRIPOS>ATOM
       1  C1          5.8010   37.4610   59.9750  C.3       1 <0>        -0.1554
       2  C2          6.8500   38.4430   59.4480  C.3       1 <0>        -0.1159
       3  C3          7.7380   37.7380   58.4200  C.3       1 <0>        -0.0454
       4  C4          8.4690   38.7840   57.5770  C.3       1 <0>        -0.1454
       5  C5          8.7450   36.8740   59.1350  C.ar      1 <0>        -0.1343
       6  C6          9.0820   35.6360   58.6190  C.ar      1 <0>        -0.0653
       7  C7         10.0040   34.8420   59.2710  C.ar      1 <0>        -0.1922
       8  C8         10.5950   35.2890   60.4470  C.ar      1 <0>         0.2125
       9  C9         10.2540   36.5330   60.9620  C.ar      1 <0>        -0.1968
      10  C10         9.3350   37.3250   60.3020  C.ar      1 <0>        -0.0691
      11  N1         11.5280   34.4880   61.1090  N.pl3     1 <0>        -0.7462
      12  C11        12.0480   34.8980   62.4160  C.3       1 <0>         0.1351
      13  C12        12.4390   33.6570   63.2220  C.3       1 <0>         0.0782
      14  C13        13.8730   33.2390   62.8660  C.3       1 <0>        -0.1528
      15  C14        14.2450   32.0290   63.7300  C.3       1 <0>        -0.0823
      16  C15        13.1230   31.0260   63.6980  C.2       1 <0>        -0.2807
      17  C16        11.9150   31.3370   63.3100  C.2       1 <0>         0.0529
      18  O1         11.5620   32.5750   62.8980  O.3       1 <0>        -0.3180
@<TRIPOS>BOND
     1     1     2 1
     2     2     3 1
     3     3     4 1
     4     3     5 1
     5     5    10 ar
     6     5     6 ar
     7     6     7 ar
     8     7     8 ar
     9     8     9 ar
    10     8    11 1
    11     9    10 ar
    12    11    12 1
    13    12    13 1
    14    13    18 1
    15    13    14 1
    16    14    15 1
    17    15    16 1
    18    16    17 2
    19    17    18 1

@<TRIPOS>MOLECULE
ZINC34651900_replica-1.pdb
 19 21 0 0 0
SMALL
GASTEIGER

@<TRIPOS>ATOM
       1  C1         12.9960   31.2550   63.4780  C.3       1 <0>        -0.1159
       2  C2         12.4350   32.5410   62.9270  C.ar      1 <0>        -0.0646
       3  C3         13.0790   33.7370   63.2080  C.ar      1 <0>        -0.1206
       4  C4         12.5650   34.9170   62.7020  C.ar      1 <0>        -0.0491
       5  C5         11.4290   34.8870   61.9320  C.ar      1 <0>        -0.1712
       6  C6         10.7460   33.6890   61.6260  C.ar      1 <0>         0.1346
       7  C7         11.3030   32.5010   62.1540  C.ar      1 <0>        -0.0902
       8  N1          9.6430   33.8230   60.8570  N.2       1 <0>        -0.5894
       9  C8          9.2260   34.9890   60.4200  C.2       1 <0>         0.4233
      10  S1         10.4430   36.1080   61.1000  S.3       1 <0>        -0.0253
      11  N2          8.1280   35.2770   59.6350  N.pl3     1 <0>        -0.6660
      12  C9          8.2870   36.0760   58.4170  C.3       1 <0>         0.1538
      13  C10         8.3050   35.1520   57.1980  C.3       1 <0>        -0.1376
      14  C11         8.4700   35.9860   55.9280  C.3       1 <0>        -0.1191
      15  C12         7.3040   36.9690   55.8070  C.3       1 <0>        -0.1190
      16  C13         7.2870   37.8940   57.0250  C.3       1 <0>        -0.0822
      17  C14         7.1210   37.0590   58.2970  C.3       1 <0>        -0.0908
      18  C15         7.1040   37.9830   59.5160  C.3       1 <0>        -0.1538
      19  C16         8.6030   38.6710   57.0940  C.3       1 <0>        -0.1588
@<TRIPOS>BOND
     1     1     2 1
     2     2     7 ar
     3     2     3 ar
     4     3     4 ar
     5     4     5 ar
     6     5    10 1
     7     5     6 ar
     8     6     7 ar
     9     6     8 1
    10     8     9 2
    11     9    10 1
    12     9    11 1
    13    11    12 1
    14    12    17 1
    15    12    13 1
    16    13    14 1
    17    14    15 1
    18    15    16 1
    19    16    17 1
    20    16    19 1
    21    17    18 1

@<TRIPOS>MOLECULE
ZINC03190130_replica-1.pdb
 20 20 0 0 0
SMALL
GASTEIGER

@<TRIPOS>ATOM
       1  C1          7.9720   37.6210   56.4880  C.3       1 <0>        -0.1655
       2  C2          8.3440   38.9430   57.1630  C.3       1 <0>         0.1539
       3  N1          8.7050   38.6920   58.5600  N.pl3     1 <0>        -0.6635
       4  N2          9.0070   37.3910   58.9830  N.2       1 <0>        -0.1922
       5  C3          9.4070   37.1800   60.1990  C.2       1 <0>         0.0443
       6  C4          9.7270   35.8110   60.6440  C.ar      1 <0>        -0.0571
       7  C5         10.8880   35.5650   61.3770  C.ar      1 <0>        -0.0946
       8  C6         11.1810   34.2820   61.7920  C.ar      1 <0>        -0.0766
       9  C7         10.3260   33.2370   61.4840  C.ar      1 <0>        -0.0972
      10  C8          9.1720   33.4690   60.7580  C.ar      1 <0>        -0.0948
      11  C9          8.8640   34.7520   60.3340  C.ar      1 <0>         0.1332
      12  O1          7.7310   34.9800   59.6210  O.3       1 <0>        -0.4703
      13  C10         8.2480   32.3250   60.4280  C.3       1 <0>        -0.0199
      14  C11         6.7980   32.8100   60.4880  C.3       1 <0>        -0.1458
      15  C12         8.5560   31.8090   59.0220  C.3       1 <0>        -0.1420
      16  C13         8.4510   31.1980   61.4430  C.3       1 <0>        -0.1425
      17  C14        12.4340   34.0160   62.5830  C.3       1 <0>        -0.0272
      18  C15        13.6550   34.1850   61.6770  C.3       1 <0>        -0.1393
      19  C16        12.5230   35.0060   63.7470  C.3       1 <0>        -0.1462
      20  C17        12.3990   32.5880   63.1310  C.3       1 <0>        -0.1397
@<TRIPOS>BOND
     1     1     2 1
     2     2     3 1
     3     3     4 1
     4     4     5 2
     5     5     6 1
     6     6    11 ar
     7     6     7 ar
     8     7     8 ar
     9     8     9 ar
    10     8    17 1
    11     9    10 ar
    12    10    11 ar
    13    10    13 1
    14    11    12 1
    15    13    14 1
    16    13    15 1
    17    13    16 1
    18    17    18 1
    19    17    19 1
    20    17    20 1

@<TRIPOS>MOLECULE
ZINC41345570_replica-1.pdb
 19 20 0 0 0
SMALL
GASTEIGER

@<TRIPOS>ATOM
       1  C1         12.4150   35.3320   63.8060  C.3       1 <0>        -0.1387
       2  C2         12.3160   34.4080   62.5910  C.3       1 <0>        -0.0307
       3  C3         13.6990   34.2460   61.9580  C.3       1 <0>        -0.1389
       4  C4         11.7940   33.0390   63.0320  C.3       1 <0>        -0.1451
       5  C5         11.3680   35.0040   61.5820  C.ar      1 <0>        -0.0716
       6  C6         10.9980   34.2770   60.4680  C.ar      1 <0>        -0.1186
       7  C7         10.1280   34.8250   59.5420  C.ar      1 <0>        -0.1133
       8  C8          9.6290   36.1000   59.7330  C.ar      1 <0>        -0.0764
       9  C9         10.0000   36.8270   60.8490  C.ar      1 <0>        -0.1073
      10  C10        10.8660   36.2780   61.7760  C.ar      1 <0>        -0.1137
      11  C11         8.6830   36.6980   58.7240  C.3       1 <0>         0.0003
      12  C12         7.3010   36.0610   58.8800  C.3       1 <0>        -0.1315
      13  C13         6.8780   35.4490   57.5700  C.2       1 <0>         0.5090
      14  O1          6.1660   36.0720   56.8120  O.2       1 <0>        -0.5240
      15  N1          7.2930   34.2100   57.2400  N.am      1 <0>        -0.7410
      16  C14         6.8820   33.6150   55.9660  C.3       1 <0>         0.0872
      17  C15         8.5780   38.2070   58.9540  C.3       1 <0>        -0.1387
      18  C16         7.1840   38.7920   59.1820  C.3       1 <0>        -0.1474
      19  C17         7.9120   39.0440   57.8610  C.3       1 <0>        -0.1837
@<TRIPOS>BOND
     1     1     2 1
     2     2     3 1
     3     2     4 1
     4     2     5 1
     5     5    10 ar
     6     5     6 ar
     7     6     7 ar
     8     7     8 ar
     9     8     9 ar
    10     8    11 1
    11     9    10 ar
    12    11    12 1
    13    11    17 1
    14    12    13 1
    15    13    14 2
    16    13    15 am
    17    15    16 1
    18    17    19 1
    19    17    18 1
    20    18    19 1

@<TRIPOS>MOLECULE
ZINC37073207_replica-1.pdb
 20 21 0 0 0
SMALL
GASTEIGER

@<TRIPOS>ATOM
       1  C1          0.8680   34.2010   56.9840  C.3       1 <0>        -0.1717
       2  C2          0.6250   32.7180   57.2680  C.3       1 <0>         0.1437
       3  C3          0.6250   32.4810   58.7800  C.3       1 <0>        -0.1284
       4  C4          0.3130   33.7940   59.5020  C.3       1 <0>        -0.1147
       5  C5          0.9600   33.7810   60.8880  C.3       1 <0>        -0.0979
       6  C6         -0.1080   33.5020   61.9480  C.3       1 <0>        -0.1503
       7  C7          2.0290   32.6880   60.9420  C.3       1 <0>        -0.1494
       8  N1         -0.6710   32.3210   56.7120  N.pl3     1 <0>        -0.7215
       9  C8         -0.7460   31.2600   55.8070  C.ar      1 <0>         0.1183
      10  C9          0.4000   30.5740   55.4140  C.ar      1 <0>         0.0756
      11  N2          0.2890   29.5750   54.5560  N.ar      1 <0>        -0.4678
      12  C10        -0.8940   29.2240   54.0710  C.ar      1 <0>         0.2898
      13  N3         -2.0060   29.8540   54.4220  N.ar      1 <0>        -0.4677
      14  C11        -1.9730   30.8580   55.2800  C.ar      1 <0>         0.0787
      15  C12        -0.9740   28.0970   53.1110  C.ar      1 <0>        -0.0334
      16  C13        -0.3440   26.8870   53.3970  C.ar      1 <0>        -0.0803
      17  C14        -0.4220   25.8420   52.4990  C.ar      1 <0>        -0.1288
      18  C15        -1.1240   25.9940   51.3160  C.ar      1 <0>        -0.1071
      19  C16        -1.7500   27.1930   51.0260  C.ar      1 <0>        -0.1288
      20  C17        -1.6830   28.2420   51.9200  C.ar      1 <0>        -0.0803
@<TRIPOS>BOND
     1     1     2 1
     2     2     3 1
     3     2     8 1
     4     3     4 1
     5     4     5 1
     6     5     6 1
     7     5     7 1
     8     8     9 1
     9     9    14 ar
    10     9    10 ar
    11    10    11 ar
    12    11    12 ar
    13    12    13 ar
    14    12    15 1
    15    13    14 ar
    16    15    20 ar
    17    15    16 ar
    18    16    17 ar
    19    17    18 ar
    20    18    19 ar
    21    19    20 ar

@<TRIPOS>MOLECULE
ZINC52331594_replica-1.pdb
 18 19 0 0 0
SMALL
GASTEIGER

@<TRIPOS>ATOM
       1  C1         -0.6760   25.1410   51.5140  C.3       1 <0>        -0.1286
       2  C2         -0.5320   26.2580   52.5150  C.ar      1 <0>        -0.0382
       3  C3          0.2100   26.0610   53.6660  C.ar      1 <0>        -0.1246
       4  C4          0.3450   27.0810   54.5860  C.ar      1 <0>        -0.0473
       5  C5         -0.2680   28.3130   54.3530  C.ar      1 <0>        -0.0644
       6  C6         -1.0140   28.5050   53.1910  C.ar      1 <0>        -0.0731
       7  C7         -1.1380   27.4790   52.2760  C.ar      1 <0>        -0.1221
       8  C8         -0.1270   29.4090   55.3350  C.2       1 <0>         0.2298
       9  N1          0.1780   29.3510   56.6240  N.2       1 <0>        -0.5185
      10  C9          0.2600   30.4370   57.3550  C.2       1 <0>         0.1196
      11  C10         0.0320   31.6520   56.7900  C.2       1 <0>        -0.3211
      12  S1         -0.3140   31.1720   55.1030  S.3       1 <0>         0.0502
      13  C11         0.0670   33.0250   57.4120  C.3       1 <0>         0.1103
      14  N2          0.6370   33.9820   56.4550  N.4       1 <0>        -0.5131
      15  C12         0.4930   35.3460   56.9830  C.3       1 <0>        -0.0086
      16  C13         1.8720   36.0040   57.0750  C.3       1 <0>        -0.1184
      17  C14         2.3770   35.9290   58.5170  C.3       1 <0>        -0.1719
      18  C15         2.8490   35.2720   56.1530  C.3       1 <0>        -0.1526
@<TRIPOS>BOND
     1     1     2 1
     2     2     7 ar
     3     2     3 ar
     4     3     4 ar
     5     4     5 ar
     6     5     6 ar
     7     5     8 1
     8     6     7 ar
     9     8    12 1
    10     8     9 2
    11     9    10 1
    12    10    11 2
    13    11    12 1
    14    11    13 1
    15    13    14 1
    16    14    15 1
    17    15    16 1
    18    16    17 1
    19    16    18 1

@<TRIPOS>MOLECULE
ZINC12778422_replica-1.pdb
 19 20 0 0 0
SMALL
GASTEIGER

@<TRIPOS>ATOM
       1  C1         13.7420   34.2570   61.8900  C.3       1 <0>        -0.1356
       2  C2         12.3910   34.3890   62.5970  C.3       1 <0>        -0.0258
       3  C3         12.5530   35.2540   63.8480  C.3       1 <0>        -0.1405
       4  C4         11.8880   33.0010   62.9990  C.3       1 <0>        -0.1374
       5  C5         11.3980   35.0330   61.6650  C.ar      1 <0>        -0.0917
       6  C6         10.9800   34.3630   60.5310  C.ar      1 <0>        -0.1231
       7  C7         10.0680   34.9540   59.6760  C.ar      1 <0>        -0.0875
       8  C8          9.5730   36.2140   59.9560  C.ar      1 <0>        -0.0450
       9  C9          9.9940   36.8860   61.0880  C.ar      1 <0>        -0.1277
      10  C10        10.9040   36.2930   61.9450  C.ar      1 <0>        -0.1310
      11  C11         8.5790   36.8570   59.0250  C.3       1 <0>        -0.0689
      12  C12         8.8190   38.3680   58.9880  C.3       1 <0>        -0.0853
      13  C13         7.8090   39.0220   58.0410  C.3       1 <0>        -0.1325
      14  C14         7.9800   38.4440   56.6350  C.3       1 <0>        -0.1123
      15  C15         7.7410   36.9330   56.6730  C.3       1 <0>        -0.1185
      16  C16         8.7490   36.2790   57.6190  C.3       1 <0>        -0.0836
      17  C17         7.1810   36.5820   59.5140  C.2       1 <0>         0.4839
      18  O1          6.6040   35.5780   59.1650  O.co2     1 <0>        -0.6311
      19  O2          6.5750   37.4520   60.3370  O.co2     1 <0>        -0.7598
@<TRIPOS>BOND
     1     1     2 1
     2     2     3 1
     3     2     4 1
     4     2     5 1
     5     5    10 ar
     6     5     6 ar
     7     6     7 ar
     8     7     8 ar
     9     8     9 ar
    10     8    11 1
    11     9    10 ar
    12    11    16 1
    13    11    12 1
    14    11    17 1
    15    12    13 1
    16    13    14 1
    17    14    15 1
    18    15    16 1
    19    17    18 2
    20    17    19 1

@<TRIPOS>MOLECULE
ZINC06678963_replica-1.pdb
 24 27 0 0 0
SMALL
GASTEIGER

@<TRIPOS>ATOM
       1  C1          9.5980   37.6020   60.4520  C.3       1 <0>        -0.1061
       2  C2          9.8300   36.1490   60.7810  C.2       1 <0>         0.1285
       3  C3          8.9920   35.0780   60.4040  C.2       1 <0>        -0.2494
       4  C4          9.5360   33.9380   60.8840  C.2       1 <0>         0.3458
       5  N1         10.6930   34.2920   61.5450  N.pl3     1 <0>        -0.3485
       6  N2         10.8410   35.6760   61.4530  N.2       1 <0>        -0.2588
       7  C5         11.5710   33.4130   62.1920  C.ar      1 <0>         0.1416
       8  C6         12.9240   33.7140   62.2730  C.ar      1 <0>        -0.1414
       9  C7         13.7870   32.8470   62.9120  C.ar      1 <0>        -0.0913
      10  C8         13.3050   31.6780   63.4720  C.ar      1 <0>        -0.1130
      11  C9         11.9580   31.3740   63.3920  C.ar      1 <0>        -0.0969
      12  C10        11.0890   32.2410   62.7600  C.ar      1 <0>        -0.1014
      13  N3          9.1320   32.6270   60.8120  N.am      1 <0>        -0.6302
      14  C11         8.1480   32.0000   60.2400  C.2       1 <0>         0.5393
      15  O1          8.1940   30.7920   60.3280  O.2       1 <0>        -0.5180
      16  C12         6.9810   32.5260   59.5000  C.3       1 <0>        -0.0916
      17  S1          7.3840   33.9470   58.4740  S.3       1 <0>        -0.1696
      18  C13         7.7410   35.2920   59.6090  C.3       1 <0>         0.1012
      19  C14         7.8830   36.5660   58.8190  C.2       1 <0>        -0.1318
      20  C15         8.5850   36.7930   57.6820  C.2       1 <0>        -0.1347
      21  C16         8.5700   38.0590   57.1260  C.2       1 <0>        -0.1573
      22  C17         7.8530   39.0360   57.7340  C.2       1 <0>        -0.1702
      23  S2          7.1620   38.1700   59.1330  S.3       1 <0>         0.0798
      24  C18         6.4260   31.4170   58.6040  C.3       1 <0>        -0.1159
@<TRIPOS>BOND
     1     1     2 1
     2     2     6 2
     3     2     3 1
     4     3    18 1
     5     3     4 2
     6     4     5 1
     7     4    13 1
     8     5     6 1
     9     5     7 1
    10     7    12 ar
    11     7     8 ar
    12     8     9 ar
    13     9    10 ar
    14    10    11 ar
    15    11    12 ar
    16    13    14 am
    17    14    15 2
    18    14    16 1
    19    16    17 1
    20    16    24 1
    21    17    18 1
    22    18    19 1
    23    19    23 1
    24    19    20 2
    25    20    21 1
    26    21    22 2
    27    22    23 1

@<TRIPOS>MOLECULE
ZINC33840634_replica-1.pdb
 23 24 0 0 0
SMALL
GASTEIGER

@<TRIPOS>ATOM
       1  C1         14.2780   32.6060   63.2930  C.3       1 <0>        -0.0987
       2  C2         12.7930   32.6200   63.0350  C.2       1 <0>        -0.0821
       3  C3         12.0210   31.5770   63.4460  C.2       1 <0>        -0.1369
       4  C4         12.6240   30.4140   63.9620  C.2       1 <0>         0.4407
       5  O1         12.9440   30.3460   65.2530  O.co2     1 <0>        -0.6914
       6  O2         12.8750   29.3800   63.1590  O.co2     1 <0>        -0.7152
       7  C5         12.2040   33.7130   62.3700  C.2       1 <0>        -0.0779
       8  C6         10.9910   33.5740   61.7770  C.2       1 <0>        -0.1530
       9  C7         10.3990   34.6750   61.1080  C.2       1 <0>        -0.0998
      10  C8          9.3520   34.4820   60.3000  C.2       1 <0>        -0.1308
      11  C9          8.8010   33.0940   60.1010  C.3       1 <0>        -0.1115
      12  C10         8.7230   35.6520   59.5880  C.3       1 <0>         0.1447
      13  C11         7.2970   35.3220   59.1970  C.2       1 <0>        -0.1666
      14  C12         7.1020   35.7520   57.9910  C.2       1 <0>        -0.1364
      15  C13         8.3810   36.4160   57.4900  C.3       1 <0>         0.1238
      16  O3          9.4160   35.9120   58.3480  O.3       1 <0>        -0.3430
      17  C14         8.5560   35.9400   56.0480  C.3       1 <0>        -0.1077
      18  C15         7.3890   36.4090   55.1880  C.3       1 <0>        -0.1128
      19  C16         6.1120   36.6770   55.9650  C.3       1 <0>        -0.1159
      20  C17         5.8930   35.6570   57.0890  C.3       1 <0>        -0.0046
      21  C18         5.7830   34.2470   56.5040  C.3       1 <0>        -0.1374
      22  C19         4.6250   36.0020   57.8720  C.3       1 <0>        -0.1388
      23  C20         8.2870   37.9410   57.5780  C.3       1 <0>        -0.1610
@<TRIPOS>BOND
     1     1     2 1
     2     2     3 2
     3     2     7 1
     4     3     4 1
     5     4     5 2
     6     4     6 1
     7     7     8 2
     8     8     9 1
     9     9    10 2
    10    10    11 1
    11    10    12 1
    12    12    16 1
    13    12    13 1
    14    13    14 2
    15    14    20 1
    16    14    15 1
    17    15    16 1
    18    15    17 1
    19    15    23 1
    20    17    18 1
    21    18    19 1
    22    19    20 1
    23    20    21 1
    24    20    22 1

@<TRIPOS>MOLECULE
ZINC41299790_replica-1.pdb
 18 18 0 0 0
SMALL
GASTEIGER

@<TRIPOS>ATOM
       1  C1         13.3810   31.9050   63.2230  C.3       1 <0>        -0.1548
       2  C2         12.1610   32.7980   62.9870  C.3       1 <0>        -0.1156
       3  C3         12.6220   34.2300   62.7130  C.3       1 <0>        -0.0522
       4  C4         13.9450   34.2020   61.9450  C.3       1 <0>        -0.1453
       5  C5         11.5790   34.9460   61.8930  C.ar      1 <0>        -0.0796
       6  C6         11.0490   34.3400   60.7700  C.ar      1 <0>        -0.1149
       7  C7         10.0920   34.9960   60.0170  C.ar      1 <0>        -0.0883
       8  C8          9.6670   36.2590   60.3880  C.ar      1 <0>        -0.0689
       9  C9         10.1980   36.8640   61.5120  C.ar      1 <0>        -0.1196
      10  C10        11.1510   36.2060   62.2670  C.ar      1 <0>        -0.1204
      11  C11         8.6250   36.9740   59.5680  C.3       1 <0>        -0.0292
      12  C12         8.8170   36.6300   58.0900  C.3       1 <0>        -0.1398
      13  C13         8.5540   37.8530   57.2510  C.2       1 <0>         0.5147
      14  O1          8.0870   37.7360   56.1370  O.2       1 <0>        -0.5328
      15  N1          8.8390   39.0780   57.7360  N.am      1 <0>        -0.8608
      16  C14         7.2310   36.5320   60.0170  C.3       1 <0>        -0.0875
      17  C15         6.3070   37.7500   60.0830  C.3       1 <0>        -0.1470
      18  C16         6.6700   35.5200   59.0170  C.3       1 <0>        -0.1518
@<TRIPOS>BOND
     1     1     2 1
     2     2     3 1
     3     3     4 1
     4     3     5 1
     5     5    10 ar
     6     5     6 ar
     7     6     7 ar
     8     7     8 ar
     9     8     9 ar
    10     8    11 1
    11     9    10 ar
    12    11    12 1
    13    11    16 1
    14    12    13 1
    15    13    14 2
    16    13    15 am
    17    16    17 1
    18    16    18 1

@<TRIPOS>MOLECULE
ZINC35238111_replica-1.pdb
 19 20 0 0 0
SMALL
GASTEIGER

@<TRIPOS>ATOM
       1  C1          7.4840   32.8450   56.3390  C.3       1 <0>        -0.1761
       2  C2          8.0580   33.1750   57.7190  C.3       1 <0>         0.1739
       3  C3          8.6070   31.8990   58.3600  C.3       1 <0>        -0.1768
       4  C4          7.6450   30.7200   58.5230  C.3       1 <0>        -0.1796
       5  C5          8.0850   31.5250   59.7480  C.3       1 <0>        -0.1649
       6  N1          9.1390   34.1540   57.5770  N.pl3     1 <0>        -0.7315
       7  C6          9.3530   35.1070   58.5760  C.ar      1 <0>         0.3173
       8  C7         10.1210   34.7880   59.6890  C.ar      1 <0>        -0.2112
       9  C8         10.3300   35.7320   60.6740  C.ar      1 <0>        -0.0035
      10  C9          9.7760   36.9930   60.5550  C.ar      1 <0>        -0.1901
      11  C10         9.0110   37.3130   59.4480  C.ar      1 <0>         0.0310
      12  C11         8.8020   36.3760   58.4560  C.ar      1 <0>        -0.7267
      13  S1          7.8330   36.7880   57.0430  S.o2      1 <0>         2.4818
      14  O1          8.5730   36.2880   55.9380  O.2       1 <0>        -0.8615
      15  O2          6.5360   36.2850   57.3340  O.2       1 <0>        -0.8612
      16  C12         7.8070   38.6010   57.0090  C.3       1 <0>        -0.0278
      17  F1          9.1150   39.0840   56.8870  F         1 <0>        -0.1562
      18  F2          7.0460   39.0370   55.9180  F         1 <0>        -0.1571
      19  F3          7.2410   39.0830   58.1940  F         1 <0>        -0.1513
@<TRIPOS>BOND
     1     1     2 1
     2     2     3 1
     3     2     6 1
     4     3     5 1
     5     3     4 1
     6     4     5 1
     7     6     7 1
     8     7    12 ar
     9     7     8 ar
    10     8     9 ar
    11     9    10 ar
    12    10    11 ar
    13    11    12 ar
    14    12    13 1
    15    13    14 2
    16    13    15 2
    17    13    16 1
    18    16    17 1
    19    16    18 1
    20    16    19 1

@<TRIPOS>MOLECULE
ZINC39852050_replica-1.pdb
 28 32 0 0 0
SMALL
GASTEIGER

@<TRIPOS>ATOM
       1  C1          4.4750   30.9850   58.2290  C.3       1 <0>        -0.0961
       2  C2          4.0900   32.3800   57.8060  C.2       1 <0>        -0.0107
       3  C3          4.8570   33.5370   57.9520  C.2       1 <0>        -0.1776
       4  C4          4.1340   34.5680   57.4380  C.2       1 <0>         0.0773
       5  O1          2.9720   34.0900   56.9890  O.3       1 <0>        -0.1484
       6  C5          2.9240   32.7570   57.1990  C.2       1 <0>        -0.1086
       7  C6          1.8130   31.8690   56.8430  C.2       1 <0>         0.6160
       8  O2          1.3400   31.1200   57.6770  O.2       1 <0>        -0.4750
       9  N1          1.3140   31.8840   55.5910  N.am      1 <0>        -0.6027
      10  C7          0.2620   31.0430   55.2530  C.2       1 <0>         0.3163
      11  N2          0.2600   29.9800   54.4690  N.2       1 <0>        -0.5287
      12  C8         -0.8470   29.2860   54.2540  C.2       1 <0>         0.1183
      13  C9         -2.0110   29.6770   54.8540  C.2       1 <0>        -0.2374
      14  S1         -1.4480   31.1080   55.7680  S.3       1 <0>         0.1246
      15  C10        -0.8240   28.0960   53.3690  C.ar      1 <0>        -0.0259
      16  C11        -0.1630   26.9370   53.7730  C.ar      1 <0>        -0.1037
      17  C12        -0.1460   25.8330   52.9450  C.ar      1 <0>        -0.1206
      18  C13        -0.7820   25.8740   51.7170  C.ar      1 <0>        -0.1140
      19  C14        -1.4390   27.0220   51.3130  C.ar      1 <0>        -0.1235
      20  C15        -1.4690   28.1310   52.1340  C.ar      1 <0>        -0.0868
      21  C16         4.6230   35.9960   57.4130  C.3       1 <0>        -0.0489
      22  C17         5.7670   36.1470   58.4190  C.3       1 <0>        -0.1151
      23  C18         6.8130   35.0500   58.1860  C.3       1 <0>        -0.0974
      24  C19         6.2200   33.6970   58.5470  C.3       1 <0>         0.1119
      25  S2          7.3260   32.3440   58.0050  S.3       1 <0>        -0.2499
      26  C20         8.2720   31.9670   59.5330  C.3       1 <0>        -0.0804
      27  C21         7.2290   32.0190   60.6780  C.3       1 <0>        -0.0825
      28  S3          6.1690   33.4760   60.3590  S.3       1 <0>        -0.2550
@<TRIPOS>BOND
     1     1     2 1
     2     2     6 2
     3     2     3 1
     4     3    24 1
     5     3     4 2
     6     4     5 1
     7     4    21 1
     8     5     6 1
     9     6     7 1
    10     7     8 2
    11     7     9 am
    12     9    10 1
    13    10    14 1
    14    10    11 2
    15    11    12 1
    16    12    13 2
    17    12    15 1
    18    13    14 1
    19    15    20 ar
    20    15    16 ar
    21    16    17 ar
    22    17    18 ar
    23    18    19 ar
    24    19    20 ar
    25    21    22 1
    26    22    23 1
    27    23    24 1
    28    24    28 1
    29    24    25 1
    30    25    26 1
    31    26    27 1
    32    27    28 1

@<TRIPOS>MOLECULE
ZINC23242136_replica-1.pdb
 22 23 0 0 0
SMALL
GASTEIGER

@<TRIPOS>ATOM
       1  C1          5.0780   34.5140   53.9520  C.2       1 <0>        -0.1765
       2  C2          4.0980   34.2750   54.7880  C.2       1 <0>        -0.1716
       3  C3          3.3600   35.4190   55.4330  C.3       1 <0>         0.1486
       4  N1          2.0470   34.9590   55.8910  N.am      1 <0>        -0.7475
       5  C4          1.8190   34.7740   57.2060  C.2       1 <0>         0.5209
       6  O1          2.7000   34.9870   58.0110  O.2       1 <0>        -0.5237
       7  C5          0.4680   34.3010   57.6760  C.3       1 <0>        -0.0821
       8  C6          0.3720   32.8070   57.5050  C.ar      1 <0>         0.1949
       9  C7          0.5540   31.9850   58.5800  C.ar      1 <0>        -0.3579
      10  C8          0.4540   30.5940   58.3970  C.ar      1 <0>         0.4965
      11  O2          0.6110   29.8310   59.3370  O.3       1 <0>        -0.6233
      12  N2          0.1820   30.1190   57.1640  N.ar      1 <0>        -0.6354
      13  C9          0.0100   30.9870   56.1280  C.ar      1 <0>         0.3371
      14  N3          0.1100   32.2910   56.3080  N.ar      1 <0>        -0.6170
      15  S1         -0.3530   30.3590   54.5230  S.3       1 <0>        -0.0407
      16  C10        -0.5190   28.5970   54.9060  C.3       1 <0>        -0.0625
      17  C11        -0.7170   27.8220   53.6280  C.ar      1 <0>        -0.0649
      18  C12        -0.2030   26.5450   53.5080  C.ar      1 <0>        -0.1039
      19  C13        -0.3850   25.8350   52.3350  C.ar      1 <0>        -0.1221
      20  C14        -1.0800   26.4020   51.2840  C.ar      1 <0>        -0.1241
      21  C15        -1.5940   27.6800   51.4050  C.ar      1 <0>        -0.1216
      22  C16        -1.4120   28.3900   52.5770  C.ar      1 <0>        -0.1036
@<TRIPOS>BOND
     1     1     2 2
     2     2     3 1
     3     3     4 1
     4     4     5 am
     5     5     6 2
     6     5     7 1
     7     7     8 1
     8     8     9 ar
     9     8    14 ar
    10     9    10 ar
    11    10    12 ar
    12    10    11 1
    13    12    13 ar
    14    13    14 ar
    15    13    15 1
    16    15    16 1
    17    16    17 1
    18    17    22 ar
    19    17    18 ar
    20    18    19 ar
    21    19    20 ar
    22    20    21 ar
    23    21    22 ar

@<TRIPOS>MOLECULE
ZINC37104231_replica-1.pdb
 20 21 0 0 0
SMALL
GASTEIGER

@<TRIPOS>ATOM
       1  C1         -2.9860   28.7380   56.6100  C.3       1 <0>        -0.1551
       2  C2         -2.0640   27.8860   57.4840  C.3       1 <0>        -0.1202
       3  C3         -0.9240   28.7560   58.0200  C.3       1 <0>        -0.0912
       4  C4         -1.0930   28.9460   59.5280  C.3       1 <0>        -0.1511
       5  C5         -0.9550   30.1200   57.3270  C.3       1 <0>        -0.1238
       6  C6          0.4740   30.6350   57.1510  C.3       1 <0>         0.1485
       7  C7          0.5340   32.1160   57.5340  C.3       1 <0>        -0.1405
       8  C8          0.6970   32.2450   59.0500  C.3       1 <0>        -0.1592
       9  N1          0.8830   30.4750   55.7530  N.pl3     1 <0>        -0.7339
      10  C9         -0.0520   30.0870   54.7920  C.ar      1 <0>         0.2489
      11  C10        -1.0640   30.9600   54.4120  C.ar      1 <0>        -0.2102
      12  C11        -1.9900   30.5770   53.4610  C.ar      1 <0>        -0.0475
      13  C12        -1.9120   29.3230   52.8840  C.ar      1 <0>        -0.2001
      14  C13        -0.9030   28.4460   53.2590  C.ar      1 <0>         0.1864
      15  C14         0.0320   28.8290   54.2090  C.ar      1 <0>        -0.2227
      16  N2         -0.8260   27.1740   52.6720  N.pl3     1 <0>        -0.3967
      17  C15        -1.3810   26.8140   51.4770  C.2       1 <0>        -0.0153
      18  C16        -1.0920   25.5160   51.2530  C.2       1 <0>        -0.1910
      19  C17        -0.3330   25.0560   52.3490  C.2       1 <0>        -0.1915
      20  C18        -0.1800   26.0920   53.1980  C.2       1 <0>        -0.0130
@<TRIPOS>BOND
     1     1     2 1
     2     2     3 1
     3     3     4 1
     4     3     5 1
     5     5     6 1
     6     6     7 1
     7     6     9 1
     8     7     8 1
     9     9    10 1
    10    10    15 ar
    11    10    11 ar
    12    11    12 ar
    13    12    13 ar
    14    13    14 ar
    15    14    15 ar
    16    14    16 1
    17    16    20 1
    18    16    17 1
    19    17    18 2
    20    18    19 1
    21    19    20 2

@<TRIPOS>MOLECULE
ZINC03893936_replica-1.pdb
 23 26 0 0 0
SMALL
GASTEIGER

@<TRIPOS>ATOM
       1  C1         13.8830   33.1520   63.0000  C.3       1 <0>        -0.1480
       2  C2         13.1330   34.4110   62.5590  C.3       1 <0>        -0.0949
       3  C3         12.4230   35.0320   63.7660  C.3       1 <0>        -0.1126
       4  C4         11.8820   36.4130   63.3830  C.3       1 <0>        -0.0436
       5  C5         11.0990   36.2890   62.0960  C.2       1 <0>         0.0322
       6  C6         11.1960   35.2290   61.2670  C.2       1 <0>        -0.1767
       7  C7         10.2900   35.4870   60.1650  C.ar      1 <0>        -0.1057
       8  C8          9.9580   34.7680   59.0140  C.ar      1 <0>        -0.0756
       9  C9          9.0230   35.3460   58.1640  C.ar      1 <0>         0.1229
      10  C10         8.4440   36.5790   58.4460  C.ar      1 <0>        -0.1324
      11  C11         8.7650   37.3010   59.5820  C.ar      1 <0>        -0.0760
      12  C12         9.6990   36.7430   60.4490  C.ar      1 <0>         0.0471
      13  O1         10.2150   37.1750   61.6060  O.3       1 <0>        -0.1832
      14  N1          8.6520   34.6700   56.9970  N.pl3     1 <0>        -1.0518
      15  S1          7.3400   33.6600   57.0050  S.o2      1 <0>         2.7267
      16  O2          7.6730   32.5550   56.1750  O.2       1 <0>        -0.9421
      17  O3          6.9560   33.5040   58.3640  O.2       1 <0>        -0.9386
      18  C13         6.0220   34.5120   56.2040  C.2       1 <0>        -0.7691
      19  C14         5.4340   35.6860   56.5430  C.2       1 <0>        -0.0019
      20  C15         4.4040   36.1710   55.7580  C.2       1 <0>        -0.1939
      21  C16         4.0130   35.4580   54.6730  C.2       1 <0>        -0.1308
      22  S2          5.1190   34.0580   54.7320  S.3       1 <0>         0.1765
      23  C17        12.0920   34.0400   61.4950  C.3       1 <0>        -0.0424
@<TRIPOS>BOND
     1     1     2 1
     2     2    23 1
     3     2     3 1
     4     3     4 1
     5     4     5 1
     6     5    13 1
     7     5     6 2
     8     6     7 1
     9     6    23 1
    10     7    12 ar
    11     7     8 ar
    12     8     9 ar
    13     9    10 ar
    14     9    14 1
    15    10    11 ar
    16    11    12 ar
    17    12    13 1
    18    14    15 1
    19    15    16 2
    20    15    17 2
    21    15    18 1
    22    18    22 1
    23    18    19 2
    24    19    20 1
    25    20    21 2
    26    21    22 1

@<TRIPOS>MOLECULE
ZINC37607053_replica-1.pdb
 18 18 0 0 0
SMALL
GASTEIGER

@<TRIPOS>ATOM
       1  C1          7.1070   29.5820   57.9340  C.3       1 <0>        -0.1527
       2  C2          7.9460   30.7300   58.5000  C.3       1 <0>         0.0615
       3  O1          7.2830   31.9710   58.2510  O.3       1 <0>        -0.3484
       4  C3          7.9520   32.8870   57.5240  C.2       1 <0>         0.5191
       5  O2          8.1910   32.6750   56.3520  O.2       1 <0>        -0.5194
       6  C4          8.3940   34.1450   58.1490  C.ar      1 <0>        -0.2059
       7  C5          9.3870   34.1300   59.1340  C.ar      1 <0>        -0.0165
       8  C6          9.7960   35.3100   59.7150  C.ar      1 <0>        -0.1415
       9  C7          9.2270   36.5140   59.3300  C.ar      1 <0>        -0.0298
      10  C8          8.2470   36.5460   58.3610  C.ar      1 <0>        -0.1585
      11  C9          7.8250   35.3670   57.7580  C.ar      1 <0>         0.2794
      12  N1          6.8420   35.3970   56.7780  N.pl3     1 <0>        -0.8607
      13  C10         7.6370   37.8620   57.9500  C.3       1 <0>        -0.0481
      14  C11         7.2820   38.6710   59.1980  C.3       1 <0>        -0.1440
      15  C12         8.6410   38.6460   57.1020  C.3       1 <0>        -0.1459
      16  C13        10.8660   35.2920   60.7760  C.3       1 <0>        -0.0485
      17  C14        10.6260   36.4370   61.7620  C.3       1 <0>        -0.1465
      18  C15        10.8190   33.9570   61.5230  C.3       1 <0>        -0.1465
@<TRIPOS>BOND
     1     1     2 1
     2     2     3 1
     3     3     4 1
     4     4     5 2
     5     4     6 1
     6     6    11 ar
     7     6     7 ar
     8     7     8 ar
     9     8     9 ar
    10     8    16 1
    11     9    10 ar
    12    10    11 ar
    13    10    13 1
    14    11    12 1
    15    13    14 1
    16    13    15 1
    17    16    17 1
    18    16    18 1

@<TRIPOS>MOLECULE
ZINC05228146_replica-1.pdb
 29 32 0 0 0
SMALL
GASTEIGER

@<TRIPOS>ATOM
       1  C1         -0.7350   30.7750   54.5120  C.3       1 <0>        -0.1489
       2  C2         -1.1040   30.9600   55.9610  C.2       1 <0>         0.4580
       3  O1         -2.2080   31.3510   56.2590  O.2       1 <0>        -0.5136
       4  O2         -0.2060   30.6920   56.9210  O.3       1 <0>        -0.3545
       5  C3          0.4120   31.8280   57.5830  C.3       1 <0>         0.0936
       6  C4          1.6830   31.3730   58.2980  C.3       1 <0>        -0.1118
       7  C5          2.2680   32.4940   59.1510  C.3       1 <0>        -0.1059
       8  C6          2.4300   33.7690   58.3120  C.3       1 <0>        -0.0115
       9  C7          3.7950   34.3730   58.5470  C.3       1 <0>        -0.0658
      10  C8          3.8450   35.8880   58.5680  C.3       1 <0>        -0.1074
      11  C9          5.2420   36.3770   59.0010  C.3       1 <0>        -0.1039
      12  C10         6.2700   35.8560   58.0300  C.3       1 <0>        -0.0288
      13  C11         6.1860   34.3220   57.9420  C.3       1 <0>        -0.0775
      14  C12         4.8360   33.7890   57.5720  C.3       1 <0>        -0.0575
      15  C13         4.4100   34.0690   56.1370  C.3       1 <0>        -0.0855
      16  C14         3.0200   33.5300   55.9200  C.2       1 <0>        -0.1519
      17  C15         2.1540   33.4220   56.8750  C.2       1 <0>        -0.1030
      18  C16         0.7660   32.8980   56.5450  C.3       1 <0>        -0.1021
      19  C17         7.3850   33.9970   57.0420  C.3       1 <0>        -0.1173
      20  C18         8.4810   34.9570   57.5900  C.3       1 <0>        -0.1298
      21  C19         7.7450   36.0180   58.4500  C.3       1 <0>         0.2354
      22  C20         8.2130   37.3700   58.1230  C.1       1 <0>        -0.1950
      23  C21         8.5890   38.4510   57.8600  C.1       1 <0>        -0.1694
      24  O3          7.8990   35.7370   59.8620  O.3       1 <0>        -0.3360
      25  C22         9.0160   35.0960   60.2380  C.2       1 <0>         0.4546
      26  O4          8.9970   33.8990   60.4090  O.2       1 <0>        -0.4998
      27  C23        10.2920   35.8670   60.4510  C.3       1 <0>        -0.1490
      28  C24         6.1360   36.5620   56.6820  C.3       1 <0>        -0.1527
      29  C25         1.3450   34.7430   58.7770  C.3       1 <0>        -0.1446
@<TRIPOS>BOND
     1     1     2 1
     2     2     3 2
     3     2     4 1
     4     4     5 1
     5     5    18 1
     6     5     6 1
     7     6     7 1
     8     7     8 1
     9     8    17 1
    10     8     9 1
    11     8    29 1
    12     9    14 1
    13     9    10 1
    14    10    11 1
    15    11    12 1
    16    12    21 1
    17    12    13 1
    18    12    28 1
    19    13    14 1
    20    13    19 1
    21    14    15 1
    22    15    16 1
    23    16    17 2
    24    17    18 1
    25    19    20 1
    26    20    21 1
    27    21    22 1
    28    21    24 1
    29    22    23 3
    30    24    25 1
    31    25    26 2
    32    25    27 1

@<TRIPOS>MOLECULE
ZINC41978128_replica-1.pdb
 21 21 0 0 0
SMALL
GASTEIGER

@<TRIPOS>ATOM
       1  C1         11.3160   34.7780   61.2420  C.3       1 <0>        -0.1503
       2  C2         10.3820   35.7100   60.4660  C.3       1 <0>        -0.1247
       3  C3          9.9480   35.0290   59.1660  C.3       1 <0>        -0.0820
       4  C4          8.9750   35.9180   58.4340  C.2       1 <0>         0.1653
       5  C5          8.7830   37.1920   58.8330  C.2       1 <0>        -0.2914
       6  C6          7.8600   38.0010   58.1210  C.2       1 <0>         0.5109
       7  O1          7.6670   39.1580   58.4620  O.2       1 <0>        -0.5253
       8  N1          7.2000   37.4880   57.0750  N.2       1 <0>        -0.5392
       9  C7          7.4010   36.2410   56.6990  C.2       1 <0>         0.4158
      10  N2          8.2830   35.4420   57.3570  N.pl3     1 <0>        -0.6058
      11  S1          6.5160   35.5990   55.3170  S.3       1 <0>        -0.0274
      12  C8          4.9930   34.9330   56.0430  C.3       1 <0>        -0.0941
      13  C9          5.3470   33.9050   57.1200  C.3       1 <0>        -0.1335
      14  C10         4.1860   36.0720   56.6710  C.3       1 <0>        -0.0800
      15  C11         3.9700   35.7830   58.1580  C.3       1 <0>        -0.1159
      16  C12         2.4810   35.9130   58.4910  C.3       1 <0>        -0.0942
      17  C13         1.6790   36.0440   57.1950  C.3       1 <0>        -0.1448
      18  C14         2.0200   34.6700   59.2540  C.3       1 <0>        -0.1474
      19  C15         4.1720   34.2710   54.9680  C.2       1 <0>         0.5270
      20  O2          4.4590   34.4340   53.7940  O.co2     1 <0>        -0.6712
      21  O3          3.2200   33.5700   55.2700  O.co2     1 <0>        -0.6835
@<TRIPOS>BOND
     1     1     2 1
     2     2     3 1
     3     3     4 1
     4     4    10 1
     5     4     5 2
     6     5     6 1
     7     6     7 2
     8     6     8 1
     9     8     9 2
    10     9    10 1
    11     9    11 1
    12    11    12 1
    13    12    13 1
    14    12    14 1
    15    12    19 1
    16    14    15 1
    17    15    16 1
    18    16    17 1
    19    16    18 1
    20    19    20 2
    21    19    21 1

@<TRIPOS>MOLECULE
ZINC37934709_replica-1.pdb
 19 20 0 0 0
SMALL
GASTEIGER

@<TRIPOS>ATOM
       1  C1          0.5290   34.4040   60.5020  C.3       1 <0>        -0.0882
       2  C2          0.4620   33.4820   59.3120  C.2       1 <0>         0.0391
       3  C3          0.1120   33.8350   58.0630  C.2       1 <0>        -0.2163
       4  C4          0.1860   32.6660   57.2710  C.2       1 <0>        -0.1264
       5  C5          0.5770   31.6680   58.0830  C.2       1 <0>        -0.1161
       6  O1          0.7480   32.1690   59.3180  O.3       1 <0>        -0.1804
       7  C6          0.7910   30.2330   57.6780  C.3       1 <0>         0.1369
       8  C7         -0.2830   29.3540   58.3240  C.3       1 <0>        -0.1851
       9  N1          0.7050   30.1180   56.2160  N.4       1 <0>        -0.5124
      10  C8         -0.1030   28.9430   55.8640  C.3       1 <0>        -0.0108
      11  C9         -1.0910   29.3160   54.7570  C.3       1 <0>        -0.0347
      12  C10        -2.5130   29.3250   55.3230  C.3       1 <0>        -0.1637
      13  C11        -0.7490   30.7060   54.2160  C.3       1 <0>        -0.1636
      14  C12        -1.0010   28.3070   53.6410  C.ar      1 <0>        -0.0877
      15  C13        -1.6120   28.5610   52.4280  C.ar      1 <0>        -0.1290
      16  C14        -1.5290   27.6350   51.4050  C.ar      1 <0>        -0.1094
      17  C15        -0.8340   26.4550   51.5950  C.ar      1 <0>        -0.1086
      18  C16        -0.2220   26.2020   52.8080  C.ar      1 <0>        -0.1076
      19  C17        -0.3010   27.1290   53.8300  C.ar      1 <0>        -0.1057
@<TRIPOS>BOND
     1     1     2 1
     2     2     6 1
     3     2     3 2
     4     3     4 1
     5     4     5 2
     6     5     6 1
     7     5     7 1
     8     7     8 1
     9     7     9 1
    10     9    10 1
    11    10    11 1
    12    11    12 1
    13    11    13 1
    14    11    14 1
    15    14    19 ar
    16    14    15 ar
    17    15    16 ar
    18    16    17 ar
    19    17    18 ar
    20    18    19 ar

@<TRIPOS>MOLECULE
ZINC49544278_replica-1.pdb
 20 21 0 0 0
SMALL
GASTEIGER

@<TRIPOS>ATOM
       1  C1          0.2270   30.2520   59.4490  C.3       1 <0>        -0.1517
       2  C2         -0.5750   29.9770   58.1750  C.3       1 <0>        -0.1252
       3  C3          0.2090   30.4770   56.9600  C.3       1 <0>        -0.1047
       4  C4         -0.3290   31.8420   56.5310  C.3       1 <0>         0.1738
       5  C5          0.6780   32.9090   56.8720  C.2       1 <0>        -0.1497
       6  C6          0.4960   34.0710   57.5470  C.2       1 <0>        -0.1541
       7  C7          1.5780   34.9070   57.7470  C.2       1 <0>        -0.1590
       8  C8          2.7890   34.5430   57.2610  C.2       1 <0>        -0.1805
       9  S1          2.4230   32.9700   56.4990  S.3       1 <0>         0.0693
      10  N1         -0.5680   31.8410   55.0810  N.3       1 <0>        -0.6793
      11  C9         -0.2750   30.5240   54.5010  C.3       1 <0>         0.0323
      12  C10        -1.5340   29.9700   53.8320  C.3       1 <0>         0.1494
      13  C11        -1.2210   28.6410   53.1940  C.ar      1 <0>        -0.0887
      14  C12        -1.7030   28.3490   51.9320  C.ar      1 <0>        -0.1236
      15  C13        -1.4180   27.1310   51.3450  C.ar      1 <0>        -0.0851
      16  C14        -0.6500   26.2020   52.0220  C.ar      1 <0>        -0.1526
      17  C15        -0.1660   26.4910   53.2860  C.ar      1 <0>         0.1033
      18  C16        -0.4480   27.7150   53.8700  C.ar      1 <0>        -0.1425
      19  F1          0.5840   25.5840   53.9470  F         1 <0>        -0.1367
      20  O1         -2.5580   29.7970   54.8140  O.3       1 <0>        -0.5477
@<TRIPOS>BOND
     1     1     2 1
     2     2     3 1
     3     3     4 1
     4     4     5 1
     5     4    10 1
     6     5     9 1
     7     5     6 2
     8     6     7 1
     9     7     8 2
    10     8     9 1
    11    10    11 1
    12    11    12 1
    13    12    13 1
    14    12    20 1
    15    13    18 ar
    16    13    14 ar
    17    14    15 ar
    18    15    16 ar
    19    16    17 ar
    20    17    18 ar
    21    17    19 1

@<TRIPOS>MOLECULE
ZINC45652026_replica-1.pdb
 24 26 0 0 0
SMALL
GASTEIGER

@<TRIPOS>ATOM
       1  C1          0.5560   35.7330   56.8300  C.3       1 <0>        -0.1474
       2  C2          1.7310   35.4190   57.7580  C.3       1 <0>        -0.1026
       3  C3          1.2020   35.0770   59.1520  C.3       1 <0>        -0.1552
       4  C4          2.5160   34.2280   57.2030  C.3       1 <0>         0.2363
       5  C5          3.7550   34.7250   56.5040  C.2       1 <0>        -0.1500
       6  C6          4.2780   35.9750   56.4810  C.2       1 <0>        -0.1437
       7  C7          5.4380   36.2020   55.7640  C.2       1 <0>        -0.1554
       8  C8          6.0180   35.1700   55.1060  C.2       1 <0>        -0.1713
       9  S1          4.9180   33.8190   55.4960  S.3       1 <0>         0.0414
      10  N1          1.6790   33.4920   56.2520  N.am      1 <0>        -0.7288
      11  C9          1.3610   32.2050   56.4900  C.2       1 <0>         0.5157
      12  O1          1.7680   31.6550   57.4910  O.2       1 <0>        -0.5329
      13  C10         0.5010   31.4480   55.5120  C.3       1 <0>        -0.1420
      14  C11        -0.9160   31.3140   56.0740  C.3       1 <0>        -0.0972
      15  C12        -1.3970   29.8720   55.9070  C.3       1 <0>        -0.0435
      16  C13        -1.7460   29.6230   54.4620  C.2       1 <0>        -0.1680
      17  C14        -2.5410   30.3820   53.6910  C.2       1 <0>         0.0523
      18  N2         -2.6250   29.8430   52.4350  N.pl3     1 <0>        -0.5964
      19  C15        -1.8660   28.6960   52.3670  C.ar      1 <0>         0.0945
      20  C16        -1.2780   28.5110   53.6310  C.ar      1 <0>        -0.1013
      21  C17        -0.4410   27.4170   53.8560  C.ar      1 <0>        -0.0699
      22  C18        -0.1940   26.5320   52.8440  C.ar      1 <0>        -0.1471
      23  C19        -0.7690   26.7120   51.5940  C.ar      1 <0>        -0.0990
      24  C20        -1.6060   27.7810   51.3530  C.ar      1 <0>        -0.1317
@<TRIPOS>BOND
     1     1     2 1
     2     2     3 1
     3     2     4 1
     4     4     5 1
     5     4    10 1
     6     5     9 1
     7     5     6 2
     8     6     7 1
     9     7     8 2
    10     8     9 1
    11    10    11 am
    12    11    12 2
    13    11    13 1
    14    13    14 1
    15    14    15 1
    16    15    16 1
    17    16    20 1
    18    16    17 2
    19    17    18 1
    20    18    19 1
    21    19    24 ar
    22    19    20 ar
    23    20    21 ar
    24    21    22 ar
    25    22    23 ar
    26    23    24 ar

@<TRIPOS>MOLECULE
ZINC40228057_replica-1.pdb
 21 22 0 0 0
SMALL
GASTEIGER

@<TRIPOS>ATOM
       1  C1         13.9930   33.7020   62.6960  C.ar      1 <0>        -0.0815
       2  C2         14.0140   32.4100   63.1810  C.ar      1 <0>        -0.1246
       3  C3         12.8450   31.6460   63.1840  C.ar      1 <0>        -0.0723
       4  C4         11.6580   32.1950   62.6940  C.ar      1 <0>        -0.0811
       5  C5         11.6490   33.4920   62.2090  C.ar      1 <0>         0.1304
       6  C6         12.8170   34.2430   62.2110  C.ar      1 <0>        -0.1781
       7  O1         10.4960   34.0290   61.7310  O.3       1 <0>        -0.3057
       8  C7         10.5060   34.4830   60.3750  C.3       1 <0>         0.0622
       9  C8         10.2370   35.9890   60.3400  C.3       1 <0>        -0.1204
      10  C9          9.1900   36.3450   61.3970  C.3       1 <0>         0.0679
      11  O2          7.9870   36.7690   60.7520  O.3       1 <0>        -0.3796
      12  C10         8.1200   36.9570   59.3410  C.3       1 <0>         0.0944
      13  C11         7.0760   36.1450   58.6240  C.3       1 <0>        -0.1431
      14  C12         7.5770   35.6060   57.2690  C.3       1 <0>        -0.1159
      15  C13         8.3950   36.6440   56.4790  C.3       1 <0>        -0.1228
      16  C14         7.7930   38.0220   56.5420  C.3       1 <0>        -0.1215
      17  C15         8.4600   38.7970   57.6960  C.3       1 <0>        -0.1177
      18  C16         7.9060   38.4450   58.9960  C.3       1 <0>        -0.1150
      19  C17        12.8630   30.2640   63.7020  C.2       1 <0>         0.3929
      20  S1         12.7570   29.9790   65.3860  S.2       1 <0>        -0.5396
      21  N1         12.9640   29.2260   62.8480  N.pl3     1 <0>        -0.7594
@<TRIPOS>BOND
     1     1     6 ar
     2     1     2 ar
     3     2     3 ar
     4     3     4 ar
     5     3    19 1
     6     4     5 ar
     7     5     6 ar
     8     5     7 1
     9     7     8 1
    10     8     9 1
    11     9    10 1
    12    10    11 1
    13    11    12 1
    14    12    18 1
    15    12    13 1
    16    13    14 1
    17    14    15 1
    18    15    16 1
    19    16    17 1
    20    17    18 1
    21    19    20 2
    22    19    21 1

@<TRIPOS>MOLECULE
ZINC66908398_replica-1.pdb
 26 27 0 0 0
SMALL
GASTEIGER

@<TRIPOS>ATOM
       1  C1         -1.5680   27.7640   51.4110  C.3       1 <0>        -0.1546
       2  C2         -0.7090   27.0950   52.4850  C.3       1 <0>        -0.1256
       3  C3         -0.6650   27.9810   53.7310  C.3       1 <0>        -0.1211
       4  C4         -1.3820   29.3020   53.4430  C.3       1 <0>        -0.1204
       5  C5         -1.1860   30.2560   54.6220  C.3       1 <0>        -0.1190
       6  C6          0.3090   30.4880   54.8480  C.3       1 <0>        -0.1275
       7  C7          0.5060   31.4060   56.0560  C.3       1 <0>         0.1569
       8  C8          0.9150   30.5710   57.2710  C.3       1 <0>        -0.1642
       9  N1          1.5560   32.3830   55.7610  N.am      1 <0>        -0.7401
      10  C9          1.5550   33.5810   56.3790  C.2       1 <0>         0.7097
      11  O1          0.6340   33.8870   57.1130  O.2       1 <0>        -0.5875
      12  N2          2.5750   34.4410   56.1860  N.am      1 <0>        -0.6310
      13  C10         2.6480   35.6980   56.9410  C.3       1 <0>         0.1337
      14  C11         4.0150   35.7850   57.6260  C.3       1 <0>        -0.1425
      15  C12         5.1170   35.6160   56.5780  C.3       1 <0>         0.1467
      16  C13         4.9920   34.2400   55.9190  C.3       1 <0>        -0.1442
      17  C14         3.6390   34.1340   55.2200  C.3       1 <0>         0.1160
      18  N3          6.4280   35.7310   57.2230  N.am      1 <0>        -0.7317
      19  C15         7.2750   36.7150   56.8610  C.2       1 <0>         0.5134
      20  O2          6.9520   37.5060   56.0000  O.2       1 <0>        -0.5328
      21  C16         8.6220   36.8330   57.5250  C.3       1 <0>        -0.1358
      22  C17         8.5060   36.4180   58.9930  C.3       1 <0>        -0.0770
      23  C18         8.9980   37.5610   59.9050  C.3       1 <0>        -0.1129
      24  C19         9.7230   36.8350   61.0660  C.3       1 <0>        -0.1285
      25  C20        10.4280   35.6600   60.3460  C.3       1 <0>        -0.1256
      26  C21         9.4150   35.2090   59.2730  C.3       1 <0>        -0.1228
@<TRIPOS>BOND
     1     1     2 1
     2     2     3 1
     3     3     4 1
     4     4     5 1
     5     5     6 1
     6     6     7 1
     7     7     8 1
     8     7     9 1
     9     9    10 am
    10    10    11 2
    11    10    12 am
    12    12    17 1
    13    12    13 1
    14    13    14 1
    15    14    15 1
    16    15    16 1
    17    15    18 1
    18    16    17 1
    19    18    19 am
    20    19    20 2
    21    19    21 1
    22    21    22 1
    23    22    26 1
    24    22    23 1
    25    23    24 1
    26    24    25 1
    27    25    26 1

@<TRIPOS>MOLECULE
ZINC02303647_replica-1.pdb
 22 23 0 0 0
SMALL
GASTEIGER

@<TRIPOS>ATOM
       1  C1          6.6010   37.3680   60.2690  C.3       1 <0>        -0.1817
       2  C2          7.0850   38.1650   59.0560  C.3       1 <0>         0.1011
       3  C3          8.3140   37.4810   58.4520  C.3       1 <0>        -0.1410
       4  C4          8.0250   35.9910   58.2630  C.3       1 <0>         0.0178
       5  C5          9.3350   35.2040   58.3390  C.3       1 <0>        -0.1077
       6  C6          9.5050   34.6310   59.7470  C.3       1 <0>        -0.1139
       7  C7         10.6770   35.3250   60.4420  C.3       1 <0>        -0.0971
       8  C8         10.1590   36.5180   61.2470  C.3       1 <0>        -0.1461
       9  C9         11.3690   34.3370   61.3850  C.3       1 <0>        -0.1501
      10  C10         7.3850   35.7690   56.9170  C.2       1 <0>         0.1615
      11  N1          7.9360   35.9780   55.7540  N.2       1 <0>        -0.3042
      12  N2          7.1100   35.6870   54.8140  N.2       1 <0>        -0.3476
      13  C11         5.9760   35.2720   55.3270  C.2       1 <0>         0.3818
      14  N3          6.1160   35.3070   56.6880  N.pl3     1 <0>        -0.4454
      15  C12         5.1590   34.9460   57.6470  C.ar      1 <0>         0.1647
      16  C13         4.1390   35.8280   57.9790  C.ar      1 <0>        -0.1190
      17  C14         3.1990   35.4700   58.9240  C.ar      1 <0>        -0.1169
      18  C15         3.2730   34.2350   59.5420  C.ar      1 <0>        -0.1246
      19  C16         4.2880   33.3540   59.2150  C.ar      1 <0>        -0.1141
      20  C17         5.2270   33.7050   58.2640  C.ar      1 <0>        -0.0762
      21  S1          4.5450   34.7610   54.4330  S.3       1 <0>        -0.8174
      22  O1          7.4310   39.4910   59.4640  O.3       1 <0>        -0.5469
@<TRIPOS>BOND
     1     1     2 1
     2     2     3 1
     3     2    22 1
     4     3     4 1
     5     4     5 1
     6     4    10 1
     7     5     6 1
     8     6     7 1
     9     7     8 1
    10     7     9 1
    11    10    14 1
    12    10    11 2
    13    11    12 1
    14    12    13 2
    15    13    21 1
    16    13    14 1
    17    14    15 1
    18    15    20 ar
    19    15    16 ar
    20    16    17 ar
    21    17    18 ar
    22    18    19 ar
    23    19    20 ar

@<TRIPOS>MOLECULE
ZINC08967636_replica-1.pdb
 24 27 0 0 0
SMALL
GASTEIGER

@<TRIPOS>ATOM
       1  C1          4.1010   36.4000   55.3690  C.3       1 <0>        -0.1428
       2  C2          3.7610   34.9480   55.7090  C.3       1 <0>        -0.0594
       3  C3          5.0360   34.2060   56.1130  C.3       1 <0>        -0.1428
       4  C4          2.7790   34.9170   56.8520  C.ar      1 <0>        -0.0224
       5  C5          2.6690   36.0020   57.6820  C.ar      1 <0>        -0.1085
       6  C6          1.7780   36.0150   58.7450  C.ar      1 <0>        -0.0967
       7  C7          0.9810   34.9080   58.9750  C.ar      1 <0>        -0.0662
       8  C8          1.0840   33.8160   58.1490  C.ar      1 <0>        -0.1755
       9  C9          1.9800   33.7680   57.0560  C.ar      1 <0>         0.1014
      10  N1          1.9610   32.6270   56.3350  N.2       1 <0>        -0.5361
      11  C10         1.1720   31.6190   56.6280  C.2       1 <0>         0.3536
      12  S1          0.2930   32.2290   58.0610  S.3       1 <0>         0.1004
      13  N2          1.0460   30.3990   55.9870  N.am      1 <0>        -0.6054
      14  C11         0.0880   30.2210   55.0570  C.2       1 <0>         0.5715
      15  O1         -0.6670   31.1340   54.7790  O.2       1 <0>        -0.4852
      16  C12        -0.0460   28.9200   54.3740  C.ar      1 <0>        -0.1221
      17  C13         0.5690   27.7750   54.9000  C.ar      1 <0>        -0.0769
      18  C14         0.4560   26.5670   54.2930  C.ar      1 <0>        -0.0617
      19  C15        -0.2830   26.4230   53.0940  C.ar      1 <0>         0.1115
      20  C16        -0.8900   27.5930   52.5780  C.ar      1 <0>        -0.1718
      21  C17        -0.7830   28.8130   53.1910  C.ar      1 <0>         0.0183
      22  S2         -1.6890   26.9820   51.1140  S.3       1 <0>         0.0590
      23  C18        -1.2020   25.3220   51.2640  C.2       1 <0>         0.1337
      24  N3         -0.4940   25.3140   52.3600  N.2       1 <0>        -0.5132
@<TRIPOS>BOND
     1     1     2 1
     2     2     3 1
     3     2     4 1
     4     4     9 ar
     5     4     5 ar
     6     5     6 ar
     7     6     7 ar
     8     7     8 ar
     9     8    12 1
    10     8     9 ar
    11     9    10 1
    12    10    11 2
    13    11    12 1
    14    11    13 1
    15    13    14 am
    16    14    15 2
    17    14    16 1
    18    16    21 ar
    19    16    17 ar
    20    17    18 ar
    21    18    19 ar
    22    19    24 1
    23    19    20 ar
    24    20    21 ar
    25    20    22 1
    26    22    23 1
    27    23    24 2

@<TRIPOS>MOLECULE
ZINC00386247_replica-1.pdb
 21 23 0 0 0
SMALL
GASTEIGER

@<TRIPOS>ATOM
       1  C1          6.1310   35.4510   60.7380  C.3       1 <0>        -0.0411
       2  C2          6.7280   35.6420   59.3680  C.2       1 <0>        -0.2086
       3  C3          7.9790   35.3720   58.9390  C.2       1 <0>         0.1144
       4  N1          8.3120   35.6200   57.6360  N.2       1 <0>        -0.5549
       5  C4          7.3790   36.1380   56.8020  C.2       1 <0>         0.3133
       6  S1          7.5170   36.5440   55.1450  S.3       1 <0>        -0.6843
       7  S2          5.9670   36.2870   57.8870  S.3       1 <0>        -0.1345
       8  C5          8.9810   34.8060   59.8690  C.ar      1 <0>        -0.0537
       9  C6          9.8360   35.6490   60.5760  C.ar      1 <0>        -0.0226
      10  C7         10.7730   35.1230   61.4460  C.ar      1 <0>        -0.1966
      11  C8         10.8620   33.7500   61.6220  C.ar      1 <0>         0.1679
      12  C9         10.0090   32.9030   60.9220  C.ar      1 <0>        -0.2441
      13  C10         9.0750   33.4200   60.0440  C.ar      1 <0>         0.1735
      14  O1          8.2480   32.5870   59.3590  O.3       1 <0>        -0.2950
      15  C11         7.3470   31.7900   60.1290  C.3       1 <0>         0.0223
      16  O2         11.7630   33.1980   62.4760  O.3       1 <0>        -0.3105
      17  C12        12.8600   34.0040   62.9040  C.3       1 <0>         0.1125
      18  C13        12.3120   35.3540   63.3820  C.3       1 <0>        -0.1460
      19  C14        11.6850   36.0700   62.1840  C.3       1 <0>        -0.0721
      20  C15        13.5940   33.3090   64.0520  C.3       1 <0>        -0.1390
      21  C16        13.8240   34.2220   61.7340  C.3       1 <0>        -0.1791
@<TRIPOS>BOND
     1     1     2 1
     2     2     7 1
     3     2     3 2
     4     3     4 1
     5     3     8 1
     6     4     5 2
     7     5     6 1
     8     5     7 1
     9     8    13 ar
    10     8     9 ar
    11     9    10 ar
    12    10    19 1
    13    10    11 ar
    14    11    12 ar
    15    11    16 1
    16    12    13 ar
    17    13    14 1
    18    14    15 1
    19    16    17 1
    20    17    18 1
    21    17    20 1
    22    17    21 1
    23    18    19 1

@<TRIPOS>MOLECULE
ZINC09008380_replica-1.pdb
 25 28 0 0 0
SMALL
GASTEIGER

@<TRIPOS>ATOM
       1  C1          7.2430   37.9800   59.1950  C.ar      1 <0>        -0.1006
       2  C2          6.8970   37.4300   60.4150  C.ar      1 <0>        -0.1076
       3  C3          7.6950   36.4580   60.9870  C.ar      1 <0>        -0.0968
       4  C4          8.8450   36.0340   60.3370  C.ar      1 <0>         0.1012
       5  C5          9.1940   36.5930   59.1140  C.ar      1 <0>        -0.0969
       6  C6          8.3880   37.5590   58.5440  C.ar      1 <0>        -0.1075
       7  N1          9.6560   35.0490   60.9140  N.am      1 <0>        -0.5006
       8  C7          9.2820   33.7290   60.8430  C.2       1 <0>         0.4564
       9  N2         10.0000   32.7540   61.3580  N.2       1 <0>        -0.5265
      10  C8         11.1580   32.9950   61.9990  C.ar      1 <0>         0.1861
      11  C9         11.9200   31.9560   62.5460  C.ar      1 <0>        -0.1085
      12  C10        13.0910   32.2380   63.1900  C.ar      1 <0>        -0.0380
      13  C11        13.5430   33.5470   63.3130  C.ar      1 <0>        -0.1300
      14  C12        12.8160   34.5920   62.7830  C.ar      1 <0>         0.0013
      15  C13        11.6180   34.3270   62.1220  C.ar      1 <0>        -0.2029
      16  C14        10.8020   35.4020   61.5400  C.2       1 <0>         0.5544
      17  O1         11.1470   36.5670   61.6150  O.2       1 <0>        -0.4916
      18  I1         15.3450   33.9340   64.3080  I         1 <0>        -0.0267
      19  C15         8.0720   33.4010   60.1820  C.2       1 <0>        -0.1688
      20  C16         8.0960   32.9680   58.8990  C.2       1 <0>         0.0406
      21  C17         7.5040   33.7500   57.8760  C.2       1 <0>        -0.0245
      22  C18         6.3140   34.4400   57.9660  C.2       1 <0>        -0.1471
      23  C19         6.1200   35.0680   56.7250  C.2       1 <0>        -0.2206
      24  C20         7.1750   34.7460   55.9460  C.2       1 <0>        -0.0076
      25  O2          8.0060   33.9540   56.6400  O.3       1 <0>        -0.1656
@<TRIPOS>BOND
     1     1     6 ar
     2     1     2 ar
     3     2     3 ar
     4     3     4 ar
     5     4     5 ar
     6     4     7 1
     7     5     6 ar
     8     7    16 am
     9     7     8 1
    10     8     9 2
    11     8    19 1
    12     9    10 1
    13    10    15 ar
    14    10    11 ar
    15    11    12 ar
    16    12    13 ar
    17    13    14 ar
    18    13    18 1
    19    14    15 ar
    20    15    16 1
    21    16    17 2
    22    19    20 2
    23    20    21 1
    24    21    25 1
    25    21    22 2
    26    22    23 1
    27    23    24 2
    28    24    25 1

@<TRIPOS>MOLECULE
ZINC37104253_replica-1.pdb
 18 19 0 0 0
SMALL
GASTEIGER

@<TRIPOS>ATOM
       1  C1         -0.1890   31.5670   57.5550  C.3       1 <0>        -0.1714
       2  C2          0.7610   30.4480   57.1220  C.3       1 <0>         0.1447
       3  C3          0.1330   29.0910   57.4460  C.3       1 <0>        -0.1233
       4  C4         -1.2410   29.3050   58.0850  C.3       1 <0>        -0.0967
       5  C5         -2.3260   28.7520   57.1590  C.3       1 <0>        -0.1499
       6  C6         -1.2970   28.5760   59.4290  C.3       1 <0>        -0.1493
       7  N1          1.0020   30.5440   55.6800  N.pl3     1 <0>        -0.7358
       8  C7          0.0190   30.1290   54.7780  C.ar      1 <0>         0.2489
       9  C8         -1.0390   30.9760   54.4650  C.ar      1 <0>        -0.2118
      10  C9         -2.0110   30.5660   53.5730  C.ar      1 <0>        -0.0426
      11  C10        -1.9360   29.3150   52.9900  C.ar      1 <0>        -0.2013
      12  C11        -0.8820   28.4660   53.2990  C.ar      1 <0>         0.1884
      13  C12         0.1000   28.8760   54.1890  C.ar      1 <0>        -0.2219
      14  N2         -0.8070   27.1970   52.7080  N.pl3     1 <0>        -0.3973
      15  C13        -1.3600   26.8430   51.5100  C.2       1 <0>        -0.0154
      16  C14        -1.0740   25.5450   51.2810  C.2       1 <0>        -0.1906
      17  C15        -0.3180   25.0790   52.3760  C.2       1 <0>        -0.1912
      18  C16        -0.1650   26.1100   53.2310  C.2       1 <0>        -0.0129
@<TRIPOS>BOND
     1     1     2 1
     2     2     3 1
     3     2     7 1
     4     3     4 1
     5     4     5 1
     6     4     6 1
     7     7     8 1
     8     8    13 ar
     9     8     9 ar
    10     9    10 ar
    11    10    11 ar
    12    11    12 ar
    13    12    13 ar
    14    12    14 1
    15    14    18 1
    16    14    15 1
    17    15    16 2
    18    16    17 1
    19    17    18 2

@<TRIPOS>MOLECULE
ZINC52098428_replica-1.pdb
 20 21 0 0 0
SMALL
GASTEIGER

@<TRIPOS>ATOM
       1  C1         -2.3020   27.3730   58.2460  C.3       1 <0>        -0.1530
       2  C2         -1.4570   28.6000   58.5980  C.3       1 <0>        -0.1209
       3  C3         -1.5070   29.6020   57.4440  C.3       1 <0>        -0.1453
       4  C4         -0.0830   30.0070   57.0580  C.3       1 <0>         0.1701
       5  C5          0.2120   31.3820   57.5980  C.2       1 <0>        -0.1156
       6  C6          0.1090   32.5830   56.9790  C.2       1 <0>        -0.1644
       7  C7          0.4360   33.7290   57.6790  C.2       1 <0>        -0.1547
       8  C8          0.8510   33.6180   58.9650  C.2       1 <0>        -0.1850
       9  S1          0.7810   31.8530   59.2240  S.3       1 <0>         0.0548
      10  N1          0.0430   30.0180   55.5940  N.3       1 <0>        -0.6737
      11  C9         -0.7640   28.9510   54.9880  C.3       1 <0>         0.0363
      12  C10         0.1580   27.8470   54.4670  C.3       1 <0>         0.1797
      13  C11         0.3190   26.7680   55.5410  C.3       1 <0>        -0.1259
      14  C12        -0.4380   27.2360   53.2260  C.ar      1 <0>        -0.1183
      15  C13        -1.2160   28.0070   52.3820  C.ar      1 <0>        -0.1140
      16  C14        -1.7640   27.4470   51.2430  C.ar      1 <0>        -0.1202
      17  C15        -1.5340   26.1160   50.9480  C.ar      1 <0>        -0.1180
      18  C16        -0.7560   25.3450   51.7920  C.ar      1 <0>        -0.1200
      19  C17        -0.2040   25.9070   52.9290  C.ar      1 <0>        -0.1021
      20  O1          1.4380   28.4030   54.1560  O.3       1 <0>        -0.5487
@<TRIPOS>BOND
     1     1     2 1
     2     2     3 1
     3     3     4 1
     4     4     5 1
     5     4    10 1
     6     5     9 1
     7     5     6 2
     8     6     7 1
     9     7     8 2
    10     8     9 1
    11    10    11 1
    12    11    12 1
    13    12    13 1
    14    12    14 1
    15    12    20 1
    16    14    19 ar
    17    14    15 ar
    18    15    16 ar
    19    16    17 ar
    20    17    18 ar
    21    18    19 ar

@<TRIPOS>MOLECULE
ZINC49376781_replica-1.pdb
 20 20 0 0 0
SMALL
GASTEIGER

@<TRIPOS>ATOM
       1  C1          9.3840   37.3690   60.4110  C.3       1 <0>        -0.1332
       2  C2         10.2160   36.2680   61.0150  C.ar      1 <0>         0.0313
       3  C3         11.1250   36.5550   62.0140  C.ar      1 <0>        -0.1252
       4  C4         11.8890   35.5450   62.5690  C.ar      1 <0>        -0.0242
       5  C5         11.7490   34.2410   62.1280  C.ar      1 <0>        -0.0638
       6  C6         10.8450   33.9400   61.1300  C.ar      1 <0>        -0.0186
       7  C7         10.0670   34.9550   60.5690  C.ar      1 <0>        -0.1420
       8  C8          9.0920   34.6390   59.5040  C.2       1 <0>         0.5677
       9  O1          7.9620   34.2960   59.7940  O.2       1 <0>        -0.5113
      10  N1          9.4560   34.7300   58.2080  N.am      1 <0>        -0.7238
      11  C9          8.4890   34.4180   57.1530  C.3       1 <0>         0.1391
      12  C10         8.2580   35.6610   56.2900  C.3       1 <0>        -0.1215
      13  S1          7.0320   36.7310   57.0910  S.3       1 <0>        -0.1368
      14  C11         7.7480   38.3930   56.9580  C.3       1 <0>         0.4669
      15  F1          7.4180   39.1350   58.0970  F         1 <0>        -0.1662
      16  F2          9.1400   38.2940   56.8540  F         1 <0>        -0.1444
      17  F3          7.2400   39.0310   55.8220  F         1 <0>        -0.1663
      18  N2         12.5720   33.1670   62.7280  N.pl3     1 <0>         0.0337
      19  O2         12.0520   32.1370   63.0870  O.2       1 <0>        -0.1501
      20  O3         13.7650   33.3200   62.8580  O.3       1 <0>        -0.1567
@<TRIPOS>BOND
     1     1     2 1
     2     2     7 ar
     3     2     3 ar
     4     3     4 ar
     5     4     5 ar
     6     5     6 ar
     7     5    18 1
     8     6     7 ar
     9     7     8 1
    10     8     9 2
    11     8    10 am
    12    10    11 1
    13    11    12 1
    14    12    13 1
    15    13    14 1
    16    14    15 1
    17    14    16 1
    18    14    17 1
    19    18    19 2
    20    18    20 1

@<TRIPOS>MOLECULE
ZINC19759901_replica-1.pdb
 23 25 0 0 0
SMALL
GASTEIGER

@<TRIPOS>ATOM
       1  C1          7.7040   38.4730   58.3350  C.3       1 <0>        -0.1555
       2  C2          8.1750   38.6810   56.8940  C.3       1 <0>        -0.1244
       3  C3          7.3510   37.7960   55.9550  C.3       1 <0>        -0.1190
       4  C4          8.0420   36.4410   55.7950  C.3       1 <0>        -0.1244
       5  C5          7.0460   35.3220   56.1020  C.3       1 <0>         0.0562
       6  N1          7.4530   34.6270   57.3310  N.pl3     1 <0>        -0.4857
       7  C6          8.7090   35.1770   57.8550  C.3       1 <0>         0.0179
       8  C7          9.0180   34.5000   59.1970  C.3       1 <0>         0.0889
       9  O1          7.9710   34.8410   60.1130  O.3       1 <0>        -0.3126
      10  C8          6.6950   34.7500   59.6460  C.ar      1 <0>         0.0991
      11  C9          6.4290   34.6510   58.2840  C.ar      1 <0>         0.0382
      12  C10         5.1140   34.5650   57.8450  C.ar      1 <0>        -0.0864
      13  C11         4.0680   34.5840   58.7630  C.ar      1 <0>        -0.0340
      14  C12         4.3420   34.6810   60.1260  C.ar      1 <0>        -0.0929
      15  C13         5.6500   34.7630   60.5590  C.ar      1 <0>        -0.1258
      16  C14         2.6630   34.4970   58.2930  C.2       1 <0>         0.1496
      17  C15         1.9160   33.3840   58.5540  C.2       1 <0>        -0.2401
      18  S1          0.3700   33.8320   57.7760  S.3       1 <0>        -0.0351
      19  C16         0.8700   35.4430   57.1870  C.2       1 <0>         0.3984
      20  N2          2.1190   35.5040   57.6130  N.2       1 <0>        -0.5812
      21  N3          0.1410   36.3810   56.4740  N.pl3     1 <0>        -0.8212
      22  C17        10.3600   35.0020   59.7330  C.3       1 <0>        -0.1166
      23  C18        10.1230   36.1880   60.6680  C.3       1 <0>        -0.1533
@<TRIPOS>BOND
     1     1     2 1
     2     2     3 1
     3     3     4 1
     4     4     5 1
     5     5     6 1
     6     6    11 1
     7     6     7 1
     8     7     8 1
     9     8     9 1
    10     8    22 1
    11     9    10 1
    12    10    15 ar
    13    10    11 ar
    14    11    12 ar
    15    12    13 ar
    16    13    14 ar
    17    13    16 1
    18    14    15 ar
    19    16    20 1
    20    16    17 2
    21    17    18 1
    22    18    19 1
    23    19    20 2
    24    19    21 1
    25    22    23 1

@<TRIPOS>MOLECULE
ZINC37104108_replica-1.pdb
 18 19 0 0 0
SMALL
GASTEIGER

@<TRIPOS>ATOM
       1  C1          7.7840   36.4080   55.3330  C.3       1 <0>        -0.1547
       2  C2          7.3590   36.4590   56.8030  C.3       1 <0>        -0.1201
       3  C3          8.5530   36.8770   57.6640  C.3       1 <0>        -0.0985
       4  C4          8.5190   38.3900   57.8820  C.3       1 <0>        -0.1484
       5  C5          8.4790   36.1650   59.0170  C.3       1 <0>         0.1516
       6  C6          7.2920   35.1990   59.0210  C.3       1 <0>        -0.1732
       7  N1          9.7180   35.4170   59.2430  N.pl3     1 <0>        -0.7368
       8  C7         10.3910   35.5340   60.4620  C.ar      1 <0>         0.2487
       9  C8         10.3430   36.7270   61.1720  C.ar      1 <0>        -0.2116
      10  C9         11.0080   36.8430   62.3770  C.ar      1 <0>        -0.0426
      11  C10        11.7250   35.7730   62.8790  C.ar      1 <0>        -0.2012
      12  C11        11.7770   34.5780   62.1740  C.ar      1 <0>         0.1884
      13  C12        11.1050   34.4560   60.9660  C.ar      1 <0>        -0.2219
      14  N2         12.5040   33.4930   62.6850  N.pl3     1 <0>        -0.3974
      15  C13        11.9980   32.2570   62.9660  C.2       1 <0>        -0.0154
      16  C14        12.9990   31.4880   63.4370  C.2       1 <0>        -0.1906
      17  C15        14.1680   32.2760   63.4470  C.2       1 <0>        -0.1913
      18  C16        13.8380   33.4950   62.9770  C.2       1 <0>        -0.0129
@<TRIPOS>BOND
     1     1     2 1
     2     2     3 1
     3     3     4 1
     4     3     5 1
     5     5     6 1
     6     5     7 1
     7     7     8 1
     8     8    13 ar
     9     8     9 ar
    10     9    10 ar
    11    10    11 ar
    12    11    12 ar
    13    12    13 ar
    14    12    14 1
    15    14    18 1
    16    14    15 1
    17    15    16 2
    18    16    17 1
    19    17    18 2

@<TRIPOS>MOLECULE
ZINC66270058_replica-1.pdb
 21 23 0 0 0
SMALL
GASTEIGER

@<TRIPOS>ATOM
       1  C1          0.4520   26.5820   54.9600  C.3       1 <0>        -0.1157
       2  C2         -0.2470   26.8910   53.6620  C.ar      1 <0>        -0.0364
       3  C3         -0.2660   25.9570   52.6480  C.ar      1 <0>        -0.1214
       4  C4         -0.9080   26.2390   51.4550  C.ar      1 <0>        -0.0922
       5  C5         -1.5330   27.4600   51.2710  C.ar      1 <0>        -0.1241
       6  C6         -1.5210   28.4030   52.2770  C.ar      1 <0>        -0.0834
       7  C7         -0.8810   28.1220   53.4850  C.ar      1 <0>        -0.0248
       8  C8         -0.8690   29.1260   54.5710  C.2       1 <0>         0.1194
       9  N1         -0.0150   30.1090   54.7880  N.2       1 <0>        -0.4561
      10  C9         -0.2080   30.8940   55.8380  C.2       1 <0>        -0.0164
      11  C10        -1.2810   30.6600   56.6570  C.2       1 <0>        -0.1919
      12  S1         -2.0120   29.3320   55.9260  S.3       1 <0>         0.1849
      13  C11         0.7190   32.0020   56.1220  C.2       1 <0>         0.5904
      14  O1          0.2920   33.0610   56.5420  O.2       1 <0>        -0.4649
      15  N2          2.0420   31.8440   55.9180  N.am      1 <0>        -0.6077
      16  C12         2.9170   32.8890   56.1860  C.2       1 <0>         0.2670
      17  N3          3.3600   33.8160   55.3640  N.2       1 <0>        -0.5188
      18  C13         4.1960   34.7510   55.7760  C.2       1 <0>         0.0572
      19  C14         4.5750   34.7070   57.0770  C.2       1 <0>        -0.2121
      20  S2          3.6650   33.2800   57.6420  S.3       1 <0>         0.1112
      21  C15         5.5050   35.6180   57.8380  C.3       1 <0>        -0.0599
@<TRIPOS>BOND
     1     1     2 1
     2     2     7 ar
     3     2     3 ar
     4     3     4 ar
     5     4     5 ar
     6     5     6 ar
     7     6     7 ar
     8     7     8 1
     9     8    12 1
    10     8     9 2
    11     9    10 1
    12    10    11 2
    13    10    13 1
    14    11    12 1
    15    13    14 2
    16    13    15 am
    17    15    16 1
    18    16    20 1
    19    16    17 2
    20    17    18 1
    21    18    19 2
    22    19    20 1
    23    19    21 1

@<TRIPOS>MOLECULE
ZINC00407626_replica-1.pdb
 18 19 0 0 0
SMALL
GASTEIGER

@<TRIPOS>ATOM
       1  C1          4.2240   32.4170   57.1780  C.3       1 <0>        -0.1527
       2  C2          5.5350   32.7910   56.4820  C.3       1 <0>         0.0821
       3  O1          5.8180   34.1720   56.7080  O.3       1 <0>        -0.6429
       4  P1          5.5220   35.3180   55.6170  P.3       1 <0>         2.0930
       5  S1          4.8230   34.5410   54.0740  S.2       1 <0>        -1.1037
       6  O2          4.4600   36.3690   56.2160  O.3       1 <0>        -0.6346
       7  C3          3.1290   36.0050   56.5860  C.3       1 <0>         0.0870
       8  C4          3.0250   35.9330   58.1120  C.3       1 <0>        -0.1550
       9  S2          7.3260   36.3270   55.1450  S.3       1 <0>        -0.4331
      10  C5          8.0360   36.4540   56.7520  C.2       1 <0>         0.1298
      11  N1          8.7880   35.5870   57.3910  N.2       1 <0>        -0.3883
      12  C6          9.2670   35.8190   58.6340  C.ar      1 <0>         0.0553
      13  C7         10.0810   34.9780   59.4260  C.ar      1 <0>        -0.0251
      14  C8         10.4840   35.3690   60.6770  C.ar      1 <0>        -0.1184
      15  C9         10.1110   36.5950   61.2080  C.ar      1 <0>        -0.0607
      16  C10         9.3090   37.4410   60.4620  C.ar      1 <0>        -0.0799
      17  C11         8.9070   37.0600   59.2070  C.ar      1 <0>        -0.1154
      18  S3          7.9140   37.7940   57.9290  S.3       1 <0>         0.0476
@<TRIPOS>BOND
     1     1     2 1
     2     2     3 1
     3     3     4 1
     4     4     5 2
     5     4     6 1
     6     4     9 1
     7     6     7 1
     8     7     8 1
     9     9    10 1
    10    10    18 1
    11    10    11 2
    12    11    12 1
    13    12    17 ar
    14    12    13 ar
    15    13    14 ar
    16    14    15 ar
    17    15    16 ar
    18    16    17 ar
    19    17    18 1

@<TRIPOS>MOLECULE
ZINC04885252_replica-1.pdb
 27 29 0 0 0
SMALL
GASTEIGER

@<TRIPOS>ATOM
       1  C1         13.8220   32.3140   63.2260  C.3       1 <0>        -0.1533
       2  C2         12.6840   31.3020   63.0740  C.3       1 <0>        -0.0927
       3  C3         12.6700   30.3640   64.2830  C.3       1 <0>        -0.1478
       4  C4         11.3490   32.0430   62.9880  C.3       1 <0>        -0.1298
       5  C5         11.5570   33.3870   62.2850  C.3       1 <0>         0.1175
       6  N1         10.4140   33.6620   61.4100  N.am      1 <0>        -0.7277
       7  C6         10.2100   34.9090   60.9400  C.2       1 <0>         0.5637
       8  O1         10.9740   35.8050   61.2420  O.2       1 <0>        -0.5368
       9  C7          9.0570   35.1870   60.0570  C.ar      1 <0>        -0.1275
      10  C8          9.2640   35.8280   58.8240  C.ar      1 <0>        -0.1002
      11  C9          8.2180   36.0930   57.9960  C.ar      1 <0>        -0.0875
      12  C10         6.9180   35.7270   58.3710  C.ar      1 <0>        -0.0568
      13  C11         6.6920   35.0780   59.6090  C.ar      1 <0>         0.1192
      14  C12         7.7850   34.8070   60.4480  C.ar      1 <0>        -0.0216
      15  N2          5.4520   34.7300   59.9580  N.ar      1 <0>        -0.4688
      16  C13         4.4020   34.9680   59.1910  C.ar      1 <0>         0.1625
      17  C14         4.5420   35.6040   57.9700  C.ar      1 <0>        -0.0722
      18  C15         5.8070   35.9920   57.5370  C.ar      1 <0>        -0.0818
      19  S1          6.0200   36.7950   55.9820  S.3       1 <0>        -0.0822
      20  C16         6.5730   35.4700   54.8750  C.3       1 <0>        -0.1583
      21  C17         5.4280   34.5280   54.6070  C.2       1 <0>         0.5134
      22  O2          4.5260   34.8610   53.8580  O.co2     1 <0>        -0.6697
      23  O3          5.4030   33.4310   55.1400  O.co2     1 <0>        -0.6823
      24  C18         3.3730   35.9110   57.0720  C.3       1 <0>        -0.0837
      25  C19         2.1600   35.0700   57.4630  C.3       1 <0>        -0.1225
      26  C20         1.9290   35.2270   58.9710  C.3       1 <0>        -0.1199
      27  C21         3.0590   34.5130   59.7090  C.3       1 <0>        -0.0673
@<TRIPOS>BOND
     1     1     2 1
     2     2     3 1
     3     2     4 1
     4     4     5 1
     5     5     6 1
     6     6     7 am
     7     7     8 2
     8     7     9 1
     9     9    14 ar
    10     9    10 ar
    11    10    11 ar
    12    11    12 ar
    13    12    18 ar
    14    12    13 ar
    15    13    14 ar
    16    13    15 ar
    17    15    16 ar
    18    16    27 1
    19    16    17 ar
    20    17    18 ar
    21    17    24 1
    22    18    19 1
    23    19    20 1
    24    20    21 1
    25    21    22 2
    26    21    23 1
    27    24    25 1
    28    25    26 1
    29    26    27 1

@<TRIPOS>MOLECULE
ZINC62754823_replica-1.pdb
 19 19 0 0 0
SMALL
GASTEIGER

@<TRIPOS>ATOM
       1  C1         11.5140   34.7420   61.5260  C.3       1 <0>        -0.1542
       2  C2         11.0350   36.1360   61.9360  C.3       1 <0>        -0.1232
       3  C3         10.0590   36.6690   60.8850  C.3       1 <0>        -0.1114
       4  C4          8.6340   36.6220   61.4420  C.3       1 <0>        -0.1557
       5  C5          7.6720   37.2570   60.4370  C.3       1 <0>         0.0272
       6  N1          7.0640   36.2060   59.6110  N.4       1 <0>        -0.3696
       7  C6          7.1370   36.5930   58.1950  C.3       1 <0>         0.0444
       8  C7          7.5760   38.0670   58.1020  C.3       1 <0>        -0.1382
       9  C8          8.0950   38.4500   56.7030  C.3       1 <0>        -0.1127
      10  C9          7.2580   37.8640   55.5990  C.3       1 <0>        -0.1228
      11  C10         7.8940   36.5310   55.1560  C.3       1 <0>        -0.1238
      12  C11         7.5620   35.4330   56.0520  C.3       1 <0>        -0.0961
      13  C12         8.0870   35.6660   57.4860  C.3       1 <0>        -0.1767
      14  C13         8.1540   34.3520   58.2190  C.2       1 <0>         0.4806
      15  O1          9.0990   34.1090   58.9510  O.co2     1 <0>        -0.6395
      16  O2          7.2640   33.5300   58.0790  O.co2     1 <0>        -0.6867
      17  C14         5.6580   36.0310   59.9970  C.3       1 <0>         0.0179
      18  C15         4.7810   36.0170   58.7430  C.3       1 <0>        -0.1824
      19  C16         5.4960   34.7080   60.7470  C.3       1 <0>        -0.1798
@<TRIPOS>BOND
     1     1     2 1
     2     2     3 1
     3     3     4 1
     4     4     5 1
     5     5     6 1
     6     6     7 1
     7     6    17 1
     8     7    13 1
     9     7     8 1
    10     8     9 1
    11     9    10 1
    12    10    11 1
    13    11    12 1
    14    12    13 1
    15    13    14 1
    16    14    15 2
    17    14    16 1
    18    17    18 1
    19    17    19 1

@<TRIPOS>MOLECULE
ZINC14456471_replica-1.pdb
 27 31 0 0 0
SMALL
GASTEIGER

@<TRIPOS>ATOM
       1  C1         13.7460   31.4640   63.9970  C.3       1 <0>        -0.0748
       2  C2         12.9520   32.4210   63.1450  C.2       1 <0>        -0.1318
       3  C3         13.3610   33.5560   62.5280  C.2       1 <0>        -0.1666
       4  C4         12.4490   34.2850   61.7890  C.2       1 <0>        -0.1303
       5  C5         11.1700   33.8430   61.7030  C.2       1 <0>        -0.1678
       6  S1         11.2260   32.3570   62.6920  S.3       1 <0>         0.0490
       7  C6         10.0020   34.4510   60.9700  C.3       1 <0>         0.2521
       8  C7         10.3530   35.8800   60.5460  C.3       1 <0>        -0.0968
       9  C8         10.3090   36.7680   61.8240  C.3       1 <0>        -0.0987
      10  C9          8.8340   37.0840   61.9810  C.2       1 <0>        -0.1659
      11  C10         8.2090   36.9380   60.8380  C.2       1 <0>        -0.1559
      12  C11         9.1780   36.5000   59.7650  C.3       1 <0>        -0.0156
      13  C12         8.5390   35.5400   58.8120  C.ar      1 <0>        -0.1587
      14  C13         7.6440   36.0320   57.8700  C.ar      1 <0>         0.0255
      15  C14         7.0330   35.1810   56.9720  C.ar      1 <0>        -0.7231
      16  C15         7.3060   33.8260   57.0000  C.ar      1 <0>         0.0197
      17  C16         8.1940   33.3260   57.9300  C.ar      1 <0>        -0.2018
      18  C17         8.8090   34.1810   58.8340  C.ar      1 <0>         0.2710
      19  N1          9.7060   33.6590   59.7730  N.pl3     1 <0>        -0.7399
      20  S2          5.9000   35.8260   55.7870  S.o2      1 <0>         2.7108
      21  O1          6.1090   37.2300   55.7460  O.2       1 <0>        -0.9567
      22  O2          6.0110   35.0050   54.6320  O.2       1 <0>        -0.9563
      23  N2          4.3750   35.5910   56.3890  N.pl3     1 <0>        -1.0137
      24  C18         3.1960   35.1950   55.6060  C.3       1 <0>         0.1182
      25  C19         2.0010   35.1240   56.5810  C.3       1 <0>        -0.1293
      26  C20         2.4540   36.0400   57.7490  C.3       1 <0>        -0.1302
      27  C21         3.9750   35.7510   57.7990  C.3       1 <0>         0.1137
@<TRIPOS>BOND
     1     1     2 1
     2     2     6 1
     3     2     3 2
     4     3     4 1
     5     4     5 2
     6     5     6 1
     7     5     7 1
     8     7    19 1
     9     7     8 1
    10     8    12 1
    11     8     9 1
    12     9    10 1
    13    10    11 2
    14    11    12 1
    15    12    13 1
    16    13    18 ar
    17    13    14 ar
    18    14    15 ar
    19    15    16 ar
    20    15    20 1
    21    16    17 ar
    22    17    18 ar
    23    18    19 1
    24    20    21 2
    25    20    22 2
    26    20    23 1
    27    23    27 1
    28    23    24 1
    29    24    25 1
    30    25    26 1
    31    26    27 1

@<TRIPOS>MOLECULE
ZINC37890311_replica-1.pdb
 20 21 0 0 0
SMALL
GASTEIGER

@<TRIPOS>ATOM
       1  C1          4.5570   34.0730   55.9680  C.3       1 <0>        -0.1373
       2  C2          4.5650   35.4430   56.6480  C.3       1 <0>         0.1699
       3  C3          5.0860   35.3030   58.0560  C.2       1 <0>        -0.1533
       4  C4          5.2340   36.2530   59.0100  C.2       1 <0>        -0.1555
       5  C5          5.7370   35.8900   60.2450  C.2       1 <0>        -0.1592
       6  C6          6.0660   34.5940   60.4660  C.2       1 <0>        -0.1813
       7  S1          5.6590   33.8380   58.9010  S.3       1 <0>         0.0717
       8  N1          5.4320   36.3600   55.8940  N.3       1 <0>        -0.6741
       9  C7          6.5640   35.6400   55.2950  C.3       1 <0>         0.0318
      10  C8          7.8130   36.5210   55.3480  C.3       1 <0>         0.1545
      11  C9          8.3460   36.5530   56.7560  C.ar      1 <0>        -0.1230
      12  C10         8.3480   37.7380   57.4680  C.ar      1 <0>        -0.1067
      13  C11         8.8390   37.7670   58.7610  C.ar      1 <0>        -0.1146
      14  C12         9.3250   36.6120   59.3420  C.ar      1 <0>        -0.0721
      15  C13         9.3220   35.4260   58.6300  C.ar      1 <0>        -0.1120
      16  C14         8.8280   35.3950   57.3390  C.ar      1 <0>        -0.1062
      17  C15         9.8590   36.6430   60.7500  C.3       1 <0>        -0.0593
      18  C16         8.7170   36.9470   61.7230  C.3       1 <0>        -0.1450
      19  C17        10.4730   35.2850   61.0940  C.3       1 <0>        -0.1454
      20  O1          7.4780   37.8470   54.9350  O.3       1 <0>        -0.5403
@<TRIPOS>BOND
     1     1     2 1
     2     2     3 1
     3     2     8 1
     4     3     7 1
     5     3     4 2
     6     4     5 1
     7     5     6 2
     8     6     7 1
     9     8     9 1
    10     9    10 1
    11    10    11 1
    12    10    20 1
    13    11    16 ar
    14    11    12 ar
    15    12    13 ar
    16    13    14 ar
    17    14    15 ar
    18    14    17 1
    19    15    16 ar
    20    17    18 1
    21    17    19 1

@<TRIPOS>MOLECULE
ZINC37137322_replica-1.pdb
 18 19 0 0 0
SMALL
GASTEIGER

@<TRIPOS>ATOM
       1  C1          7.3500   34.2130   57.6210  C.3       1 <0>        -0.1714
       2  C2          8.2410   35.4140   57.9450  C.3       1 <0>         0.1449
       3  C3          8.3840   36.2940   56.7020  C.3       1 <0>        -0.1232
       4  C4          7.6420   37.6140   56.9230  C.3       1 <0>        -0.0962
       5  C5          8.6200   38.6670   57.4480  C.3       1 <0>        -0.1494
       6  C6          7.0430   38.0900   55.5970  C.3       1 <0>        -0.1499
       7  N1          9.5630   34.9420   58.3640  N.pl3     1 <0>        -0.7395
       8  C7         10.0710   35.3040   59.6140  C.ar      1 <0>         0.2261
       9  C8          9.7010   36.5130   60.1910  C.ar      1 <0>        -0.1894
      10  C9         10.2000   36.8750   61.4280  C.ar      1 <0>        -0.0669
      11  C10        11.0700   36.0370   62.0980  C.ar      1 <0>        -0.1493
      12  C11        11.4460   34.8210   61.5260  C.ar      1 <0>         0.0133
      13  C12        10.9390   34.4540   60.2810  C.ar      1 <0>        -0.1901
      14  C13        12.3790   33.9230   62.2430  C.2       1 <0>         0.1273
      15  C14        13.7380   34.0490   62.3040  C.2       1 <0>        -0.2510
      16  C15        14.2300   32.9970   63.0780  C.2       1 <0>         0.0490
      17  N2         13.2220   32.2630   63.4740  N.2       1 <0>        -0.2870
      18  N3         12.0400   32.8210   62.9700  N.pl3     1 <0>        -0.4741
@<TRIPOS>BOND
     1     1     2 1
     2     2     3 1
     3     2     7 1
     4     3     4 1
     5     4     5 1
     6     4     6 1
     7     7     8 1
     8     8    13 ar
     9     8     9 ar
    10     9    10 ar
    11    10    11 ar
    12    11    12 ar
    13    12    13 ar
    14    12    14 1
    15    14    18 1
    16    14    15 2
    17    15    16 1
    18    16    17 2
    19    17    18 1

@<TRIPOS>MOLECULE
ZINC44827325_replica-1.pdb
 19 18 0 0 0
SMALL
GASTEIGER

@<TRIPOS>ATOM
       1  C1          2.1250   36.0410   58.5770  C.3       1 <0>        -0.1511
       2  C2          2.8310   35.6290   57.2830  C.3       1 <0>        -0.1306
       3  C3          3.7290   34.4190   57.5530  C.3       1 <0>        -0.1257
       4  C4          5.0060   34.5350   56.7190  C.3       1 <0>         0.0232
       5  C5          5.9310   33.3610   57.0400  C.3       1 <0>        -0.0976
       6  C6          7.0870   33.3320   56.0370  C.3       1 <0>        -0.1306
       7  C7          8.2700   32.5750   56.6420  C.3       1 <0>        -0.1517
       8  C8          4.6600   34.5110   55.2880  C.1       1 <0>         0.2120
       9  N1          4.3940   34.4930   54.1850  N.1       1 <0>        -0.4061
      10  C9          5.7030   35.8290   57.0460  C.2       1 <0>         0.5339
      11  O1          5.8440   36.6760   56.1900  O.2       1 <0>        -0.5150
      12  N2          6.1720   36.0470   58.2910  N.am      1 <0>        -0.5995
      13  C10         6.1020   34.9830   59.2960  C.3       1 <0>         0.0603
      14  C11         6.7520   37.3460   58.6390  C.3       1 <0>         0.1455
      15  C12         6.4150   37.6820   60.0940  C.3       1 <0>        -0.1699
      16  C13         8.2710   37.2890   58.4670  C.3       1 <0>        -0.0759
      17  C14         8.6860   38.1860   57.2990  C.3       1 <0>        -0.1413
      18  C15         8.9480   37.7770   59.7500  C.3       1 <0>        -0.1422
      19  C16         8.6990   35.8490   58.1810  C.3       1 <0>        -0.1596
@<TRIPOS>BOND
     1     1     2 1
     2     2     3 1
     3     3     4 1
     4     4     5 1
     5     4     8 1
     6     4    10 1
     7     5     6 1
     8     6     7 1
     9     8     9 3
    10    10    11 2
    11    10    12 am
    12    12    13 1
    13    12    14 1
    14    14    15 1
    15    14    16 1
    16    16    17 1
    17    16    18 1
    18    16    19 1

@<TRIPOS>MOLECULE
ZINC01794012_replica-1.pdb
 27 29 0 0 0
SMALL
GASTEIGER

@<TRIPOS>ATOM
       1  C1         -0.6410   25.4900   52.0740  C.3       1 <0>        -0.1544
       2  C2         -1.2120   26.7520   51.4230  C.3       1 <0>        -0.1263
       3  C3         -1.1940   27.9000   52.4350  C.3       1 <0>        -0.1212
       4  C4         -0.2160   27.5700   53.5640  C.3       1 <0>        -0.1216
       5  C5          0.0120   28.8160   54.4220  C.3       1 <0>        -0.1205
       6  C6         -1.1680   29.7750   54.2510  C.3       1 <0>        -0.1197
       7  C7         -0.7070   31.2060   54.5340  C.3       1 <0>        -0.1217
       8  C8          0.4960   31.1760   55.4800  C.3       1 <0>        -0.1057
       9  C9          0.4360   32.3840   56.4180  C.3       1 <0>        -0.0676
      10  C10         1.8030   33.0110   56.5190  C.2       1 <0>         0.4191
      11  N1          2.8410   32.2530   56.7540  N.2       1 <0>        -0.4764
      12  C11         4.0600   32.7740   56.8480  C.2       1 <0>         0.1098
      13  C12         4.2960   34.1510   56.7010  C.2       1 <0>        -0.2486
      14  C13         5.6860   34.5760   56.8300  C.2       1 <0>        -0.0388
      15  C14         6.6030   33.6140   57.0750  C.2       1 <0>        -0.2277
      16  S1          5.6780   32.1070   57.1490  S.3       1 <0>         0.1807
      17  C15         8.0770   33.8180   57.2450  C.3       1 <0>         0.1493
      18  O1          8.3110   35.2250   57.4180  O.3       1 <0>        -0.3612
      19  C16         7.6460   36.0380   56.4480  C.3       1 <0>         0.0926
      20  C17         6.1350   36.0290   56.6990  C.3       1 <0>        -0.0858
      21  C18         8.1660   37.4740   56.5470  C.3       1 <0>        -0.0873
      22  C19         7.2110   38.4140   55.8100  C.3       1 <0>        -0.1452
      23  C20         8.2520   37.8840   58.0180  C.3       1 <0>        -0.1509
      24  C21         3.1360   34.9540   56.4440  C.2       1 <0>         0.5369
      25  O2          3.2360   36.1600   56.3020  O.2       1 <0>        -0.5248
      26  N2          1.9350   34.3520   56.3570  N.am      1 <0>        -0.3660
      27  N3          0.8250   35.1080   56.1070  N.3       1 <0>        -0.6015
@<TRIPOS>BOND
     1     1     2 1
     2     2     3 1
     3     3     4 1
     4     4     5 1
     5     5     6 1
     6     6     7 1
     7     7     8 1
     8     8     9 1
     9     9    10 1
    10    10    26 1
    11    10    11 2
    12    11    12 1
    13    12    16 1
    14    12    13 2
    15    13    14 1
    16    13    24 1
    17    14    20 1
    18    14    15 2
    19    15    16 1
    20    15    17 1
    21    17    18 1
    22    18    19 1
    23    19    20 1
    24    19    21 1
    25    21    22 1
    26    21    23 1
    27    24    25 2
    28    24    26 am
    29    26    27 1

@<TRIPOS>MOLECULE
ZINC61047310_replica-1.pdb
 23 25 0 0 0
SMALL
GASTEIGER

@<TRIPOS>ATOM
       1  C1          3.9250   35.9390   59.1460  C.3       1 <0>        -0.0996
       2  C2          3.6840   35.1960   57.8580  C.2       1 <0>        -0.0625
       3  C3          4.6010   35.1580   56.8720  C.2       1 <0>        -0.2190
       4  S1          3.8140   34.1680   55.6190  S.3       1 <0>         0.3025
       5  C4          2.3550   33.8350   56.3790  C.2       1 <0>         0.0584
       6  C5          2.4580   34.4750   57.6050  C.2       1 <0>        -0.1403
       7  C6          1.4010   34.4280   58.5700  C.1       1 <0>         0.2706
       8  N1          0.5620   34.3900   59.3350  N.1       1 <0>        -0.4245
       9  N2          1.2920   33.0890   55.8940  N.am      1 <0>        -0.6049
      10  C7          1.1730   31.7890   56.2310  C.2       1 <0>         0.5923
      11  O1          1.9980   31.2720   56.9610  O.2       1 <0>        -0.4910
      12  C8          0.0440   30.9960   55.7170  C.2       1 <0>        -0.0153
      13  C9         -1.2340   31.2480   56.1450  C.2       1 <0>        -0.1908
      14  S2         -2.1340   30.1100   55.2910  S.3       1 <0>         0.1957
      15  C10        -0.7930   29.3430   54.3990  C.2       1 <0>         0.1208
      16  N3          0.2470   30.0320   54.8300  N.2       1 <0>        -0.4661
      17  C11        -0.8360   28.2290   53.4280  C.ar      1 <0>        -0.0221
      18  C12        -1.5080   28.3820   52.2140  C.ar      1 <0>        -0.0702
      19  C13        -1.5440   27.3390   51.3130  C.ar      1 <0>        -0.1184
      20  C14        -0.9160   26.1430   51.6080  C.ar      1 <0>        -0.0961
      21  C15        -0.2480   25.9840   52.8090  C.ar      1 <0>        -0.1160
      22  C16        -0.2000   27.0200   53.7180  C.ar      1 <0>        -0.0920
      23  C17         5.9640   35.7990   56.8370  C.3       1 <0>        -0.0656
@<TRIPOS>BOND
     1     1     2 1
     2     2     6 1
     3     2     3 2
     4     3     4 1
     5     3    23 1
     6     4     5 1
     7     5     6 2
     8     5     9 1
     9     6     7 1
    10     7     8 3
    11     9    10 am
    12    10    11 2
    13    10    12 1
    14    12    16 1
    15    12    13 2
    16    13    14 1
    17    14    15 1
    18    15    16 2
    19    15    17 1
    20    17    22 ar
    21    17    18 ar
    22    18    19 ar
    23    19    20 ar
    24    20    21 ar
    25    21    22 ar

@<TRIPOS>MOLECULE
ZINC12293417_replica-1.pdb
 19 20 0 0 0
SMALL
GASTEIGER

@<TRIPOS>ATOM
       1  C1         12.4030   29.8450   64.6710  C.3       1 <0>        -0.1536
       2  C2         12.7780   30.3950   63.2940  C.3       1 <0>        -0.1310
       3  C3         13.3620   31.8000   63.4480  C.3       1 <0>         0.1132
       4  N1         12.3390   32.7940   63.1150  N.pl3     1 <0>        -1.1178
       5  S1         12.7720   34.3680   62.8370  S.o2      1 <0>         2.6949
       6  O1         13.9850   34.3320   62.0990  O.2       1 <0>        -0.9558
       7  O2         12.6560   35.0460   64.0810  O.2       1 <0>        -0.9582
       8  C4         11.5530   35.0630   61.7710  C.ar      1 <0>        -0.6820
       9  C5         11.0080   36.3010   62.0570  C.ar      1 <0>        -0.0157
      10  C6         10.0480   36.8430   61.2230  C.ar      1 <0>        -0.1362
      11  C7          9.6410   36.1530   60.0970  C.ar      1 <0>        -0.0171
      12  C8         10.1880   34.9160   59.8100  C.ar      1 <0>        -0.1385
      13  C9         11.1430   34.3710   60.6470  C.ar      1 <0>        -0.0182
      14  C10         8.5990   36.7460   59.1840  C.3       1 <0>        -0.0568
      15  C11         8.8150   36.2310   57.7610  C.3       1 <0>        -0.1120
      16  C12         7.7570   36.8340   56.8340  C.3       1 <0>        -0.1200
      17  C13         7.8770   38.3590   56.8480  C.3       1 <0>        -0.1221
      18  C14         7.6610   38.8740   58.2720  C.3       1 <0>        -0.1201
      19  C15         8.7190   38.2720   59.1980  C.3       1 <0>        -0.1109
@<TRIPOS>BOND
     1     1     2 1
     2     2     3 1
     3     3     4 1
     4     4     5 1
     5     5     6 2
     6     5     7 2
     7     5     8 1
     8     8    13 ar
     9     8     9 ar
    10     9    10 ar
    11    10    11 ar
    12    11    12 ar
    13    11    14 1
    14    12    13 ar
    15    14    19 1
    16    14    15 1
    17    15    16 1
    18    16    17 1
    19    17    18 1
    20    18    19 1

@<TRIPOS>MOLECULE
ZINC40360770_replica-1.pdb
 20 20 0 0 0
SMALL
GASTEIGER

@<TRIPOS>ATOM
       1  C1          7.3360   39.0830   58.9360  C.3       1 <0>        -0.1510
       2  C2          7.9970   37.7160   58.7500  C.3       1 <0>        -0.0806
       3  C3          9.1950   37.5960   59.6940  C.3       1 <0>        -0.1376
       4  C4          9.0680   36.3340   60.5080  C.2       1 <0>         0.5154
       5  O1          8.1070   36.1710   61.2280  O.2       1 <0>        -0.5220
       6  N1         10.0250   35.3870   60.4360  N.am      1 <0>        -0.7268
       7  C5          9.9020   34.1600   61.2280  C.3       1 <0>         0.2467
       8  C6          9.1340   33.1600   60.4670  C.1       1 <0>         0.1940
       9  N2          8.5420   32.3890   59.8800  N.1       1 <0>        -0.4136
      10  C7         11.2960   33.6080   61.5320  C.3       1 <0>        -0.0883
      11  C8         11.1970   32.5470   62.6300  C.3       1 <0>        -0.1216
      12  C9         12.5900   31.9960   62.9340  C.3       1 <0>        -0.1174
      13  C10        13.4980   33.1340   63.4050  C.3       1 <0>        -0.1241
      14  C11        13.5980   34.1950   62.3070  C.3       1 <0>        -0.1171
      15  C12        12.2030   34.7470   62.0020  C.3       1 <0>        -0.1188
      16  C13         8.4720   37.5720   57.3040  C.3       1 <0>        -0.1045
      17  C14         7.8280   36.3350   56.6750  C.3       1 <0>        -0.0674
      18  C15         8.6610   35.0970   57.0150  C.3       1 <0>        -0.1516
      19  C16         6.4100   36.1610   57.2240  C.3       1 <0>        -0.1422
      20  C17         7.7680   36.5070   55.1550  C.3       1 <0>        -0.1472
@<TRIPOS>BOND
     1     1     2 1
     2     2     3 1
     3     2    16 1
     4     3     4 1
     5     4     5 2
     6     4     6 am
     7     6     7 1
     8     7     8 1
     9     7    10 1
    10     8     9 3
    11    10    15 1
    12    10    11 1
    13    11    12 1
    14    12    13 1
    15    13    14 1
    16    14    15 1
    17    16    17 1
    18    17    18 1
    19    17    19 1
    20    17    20 1

@<TRIPOS>MOLECULE
ZINC37136829_replica-1.pdb
 21 22 0 0 0
SMALL
GASTEIGER

@<TRIPOS>ATOM
       1  C1          5.8860   35.6140   60.7650  C.3       1 <0>        -0.1552
       2  C2          4.8050   35.0900   59.8160  C.3       1 <0>        -0.1201
       3  C3          4.7550   35.9700   58.5650  C.3       1 <0>        -0.0919
       4  C4          3.3640   35.8790   57.9340  C.3       1 <0>        -0.1511
       5  C5          5.8030   35.4890   57.5600  C.3       1 <0>        -0.1233
       6  C6          6.8000   36.6150   57.2840  C.3       1 <0>         0.1486
       7  C7          6.5440   37.1930   55.8910  C.3       1 <0>        -0.1410
       8  C8          7.5260   36.5760   54.8940  C.3       1 <0>        -0.1607
       9  N1          8.1650   36.0880   57.3510  N.pl3     1 <0>        -0.7347
      10  C9          8.8800   36.1440   58.5520  C.ar      1 <0>         0.2239
      11  C10         8.8020   37.2810   59.3530  C.ar      1 <0>        -0.1608
      12  C11         9.5020   37.3490   60.5380  C.ar      1 <0>        -0.0500
      13  C12        10.2900   36.2800   60.9400  C.ar      1 <0>        -0.0467
      14  C13        10.3730   35.1320   60.1390  C.ar      1 <0>         0.0711
      15  C14         9.6580   35.0690   58.9420  C.ar      1 <0>        -0.1575
      16  N2         11.2070   34.2700   60.7820  N.2       1 <0>        -0.4894
      17  C15        11.6120   34.8240   61.8850  C.2       1 <0>         0.2601
      18  O1         11.0750   36.0470   62.0160  O.3       1 <0>        -0.2119
      19  C16        12.5480   34.1850   62.8770  C.3       1 <0>        -0.0048
      20  C17        12.0590   32.7730   63.2050  C.3       1 <0>        -0.1507
      21  C18        13.9540   34.1110   62.2770  C.3       1 <0>        -0.1507
@<TRIPOS>BOND
     1     1     2 1
     2     2     3 1
     3     3     4 1
     4     3     5 1
     5     5     6 1
     6     6     7 1
     7     6     9 1
     8     7     8 1
     9     9    10 1
    10    10    15 ar
    11    10    11 ar
    12    11    12 ar
    13    12    13 ar
    14    13    18 1
    15    13    14 ar
    16    14    15 ar
    17    14    16 1
    18    16    17 2
    19    17    18 1
    20    17    19 1
    21    19    20 1
    22    19    21 1

@<TRIPOS>MOLECULE
ZINC67191832_replica-1.pdb
 23 23 0 0 0
SMALL
GASTEIGER

@<TRIPOS>ATOM
       1  C1         -0.4780   34.1850   61.8960  C.3       1 <0>        -0.1530
       2  C2          0.2270   32.9890   62.5410  C.3       1 <0>        -0.1250
       3  C3          1.5940   32.7880   61.8810  C.3       1 <0>        -0.0983
       4  C4          1.4860   33.0870   60.3840  C.3       1 <0>        -0.1097
       5  C5          1.3990   31.7710   59.6080  C.3       1 <0>        -0.1462
       6  C6          2.7020   33.8550   59.9370  C.2       1 <0>         0.5080
       7  O1          3.8050   33.5220   60.3180  O.2       1 <0>        -0.5063
       8  N1          2.5660   34.9130   59.1130  N.am      1 <0>        -0.6137
       9  C7          1.2320   35.3830   58.7140  C.3       1 <0>         0.1045
      10  C8          1.1700   35.4490   57.1850  C.3       1 <0>        -0.1375
      11  C9          2.3220   36.3130   56.6680  C.3       1 <0>        -0.1201
      12  C10         3.6570   35.6810   57.0700  C.3       1 <0>        -0.1278
      13  C11         3.7470   35.6220   58.6030  C.3       1 <0>         0.1400
      14  C12         5.0140   34.8700   59.0150  C.3       1 <0>         0.1782
      15  C13         5.6760   34.2660   57.7750  C.3       1 <0>        -0.1738
      16  N2          5.9450   35.7990   59.6620  N.am      1 <0>        -0.6774
      17  C14         6.9440   35.3260   60.4320  C.2       1 <0>         0.6672
      18  O2          7.0730   34.1280   60.5900  O.2       1 <0>        -0.5702
      19  O3          7.7990   36.1800   61.0250  O.3       1 <0>        -0.3660
      20  C15         8.9430   36.5810   60.2700  C.3       1 <0>         0.1379
      21  C16        10.1670   36.6310   61.1870  C.3       1 <0>        -0.1848
      22  C17         9.1910   35.5740   59.1440  C.3       1 <0>        -0.1401
      23  C18         8.6990   37.9670   59.6690  C.3       1 <0>        -0.1814
@<TRIPOS>BOND
     1     1     2 1
     2     2     3 1
     3     3     4 1
     4     4     5 1
     5     4     6 1
     6     6     7 2
     7     6     8 am
     8     8    13 1
     9     8     9 1
    10     9    10 1
    11    10    11 1
    12    11    12 1
    13    12    13 1
    14    13    14 1
    15    14    15 1
    16    14    16 1
    17    16    17 am
    18    17    18 2
    19    17    19 1
    20    19    20 1
    21    20    21 1
    22    20    22 1
    23    20    23 1

@<TRIPOS>MOLECULE
ZINC37068005_replica-1.pdb
 16 17 0 0 0
SMALL
GASTEIGER

@<TRIPOS>ATOM
       1  C1         10.2110   35.0220   59.6580  C.ar      1 <0>        -0.1774
       2  C2          9.3060   35.3510   58.6690  C.ar      1 <0>        -0.0302
       3  C3          8.5630   36.5210   58.7670  C.ar      1 <0>        -0.1670
       4  C4          8.7310   37.3590   59.8610  C.ar      1 <0>        -0.0679
       5  C5          9.6350   37.0300   60.8510  C.ar      1 <0>        -0.1769
       6  C6         10.3780   35.8610   60.7530  C.ar      1 <0>         0.2293
       7  N1         11.2950   35.5270   61.7560  N.pl3     1 <0>        -0.7408
       8  C7         11.8200   34.1620   61.8440  C.3       1 <0>         0.1531
       9  C8         12.8990   34.0990   62.9260  C.3       1 <0>        -0.1724
      10  C9         14.3310   33.8000   62.4790  C.3       1 <0>        -0.1758
      11  C10        13.5240   32.7350   63.2230  C.3       1 <0>        -0.1695
      12  S1          7.4080   36.9400   57.5030  S.3       1 <0>        -0.0334
      13  C11         7.8670   38.6310   57.0340  C.3       1 <0>         0.4525
      14  F1          7.4390   39.5220   58.0240  F         1 <0>        -0.1648
      15  F2          9.2570   38.7160   56.8990  F         1 <0>        -0.1465
      16  F3          7.2600   38.9590   55.8180  F         1 <0>        -0.1649
@<TRIPOS>BOND
     1     1     6 ar
     2     1     2 ar
     3     2     3 ar
     4     3     4 ar
     5     3    12 1
     6     4     5 ar
     7     5     6 ar
     8     6     7 1
     9     7     8 1
    10     8     9 1
    11     9    11 1
    12     9    10 1
    13    10    11 1
    14    12    13 1
    15    13    14 1
    16    13    15 1
    17    13    16 1

@<TRIPOS>MOLECULE
ZINC63048968_replica-1.pdb
 18 19 0 0 0
SMALL
GASTEIGER

@<TRIPOS>ATOM
       1  C1          2.0410   35.7700   58.2960  C.3       1 <0>        -0.0950
       2  C2          1.7790   34.4920   57.5400  C.ar      1 <0>        -0.2584
       3  C3          2.7280   33.9750   56.6730  C.ar      1 <0>         0.1931
       4  N1          2.4670   32.8520   56.0250  N.ar      1 <0>        -0.5696
       5  C4          1.3140   32.2230   56.1970  C.ar      1 <0>         0.5571
       6  N2          0.3850   32.6900   57.0190  N.ar      1 <0>        -0.5652
       7  C5          0.5850   33.8050   57.7010  C.ar      1 <0>         0.1919
       8  N3          1.0740   31.0500   55.5040  N.pl3     1 <0>        -0.7001
       9  C6         -0.1950   30.3410   55.6810  C.3       1 <0>         0.1367
      10  C7         -0.5330   29.5700   54.4030  C.3       1 <0>        -0.1251
      11  C8          0.1900   28.2220   54.4130  C.3       1 <0>        -0.0459
      12  C9         -0.0600   27.5190   55.7480  C.3       1 <0>        -0.1489
      13  C10        -0.3300   27.3650   53.2890  C.ar      1 <0>        -0.0773
      14  C11        -0.0010   26.0240   53.2330  C.ar      1 <0>        -0.1147
      15  C12        -0.4770   25.2370   52.2020  C.ar      1 <0>        -0.1184
      16  C13        -1.2850   25.7900   51.2260  C.ar      1 <0>        -0.1240
      17  C14        -1.6150   27.1320   51.2820  C.ar      1 <0>        -0.1181
      18  C15        -1.1410   27.9170   52.3150  C.ar      1 <0>        -0.1170
@<TRIPOS>BOND
     1     1     2 1
     2     2     7 ar
     3     2     3 ar
     4     3     4 ar
     5     4     5 ar
     6     5     6 ar
     7     5     8 1
     8     6     7 ar
     9     8     9 1
    10     9    10 1
    11    10    11 1
    12    11    12 1
    13    11    13 1
    14    13    18 ar
    15    13    14 ar
    16    14    15 ar
    17    15    16 ar
    18    16    17 ar
    19    17    18 ar

@<TRIPOS>MOLECULE
ZINC37075581_replica-1.pdb
 18 19 0 0 0
SMALL
GASTEIGER

@<TRIPOS>ATOM
       1  C1         -2.3930   27.4930   57.7700  C.3       1 <0>        -0.1549
       2  C2         -1.0910   28.2760   57.9560  C.3       1 <0>        -0.1178
       3  C3          0.0980   27.3780   57.6060  C.3       1 <0>        -0.0990
       4  C4          0.4030   26.4540   58.7860  C.3       1 <0>        -0.1544
       5  C5         -0.2440   26.5370   56.3740  C.3       1 <0>         0.1488
       6  C6          0.1800   25.0860   56.6140  C.3       1 <0>        -0.1736
       7  N1          0.4660   27.0660   55.2080  N.pl3     1 <0>        -0.7368
       8  C7         -0.1260   27.0120   53.9460  C.ar      1 <0>         0.2411
       9  C8          0.0400   25.8920   53.1460  C.ar      1 <0>        -0.1999
      10  C9         -0.5470   25.8400   51.8960  C.ar      1 <0>        -0.0587
      11  C10        -1.3050   26.9030   51.4350  C.ar      1 <0>        -0.1796
      12  C11        -1.4800   28.0250   52.2180  C.ar      1 <0>        -0.0443
      13  C12        -0.8960   28.0880   53.4830  C.ar      1 <0>        -0.1008
      14  C13        -1.0850   29.2850   54.3300  C.2       1 <0>        -0.0863
      15  C14        -2.2410   29.7940   54.8570  C.2       1 <0>        -0.1547
      16  C15        -2.1720   30.9370   55.6260  C.2       1 <0>        -0.1500
      17  C16        -0.9640   31.5190   55.8360  C.2       1 <0>        -0.1789
      18  S1          0.1350   30.4380   54.9360  S.3       1 <0>         0.0264
@<TRIPOS>BOND
     1     1     2 1
     2     2     3 1
     3     3     4 1
     4     3     5 1
     5     5     6 1
     6     5     7 1
     7     7     8 1
     8     8    13 ar
     9     8     9 ar
    10     9    10 ar
    11    10    11 ar
    12    11    12 ar
    13    12    13 ar
    14    13    14 1
    15    14    18 1
    16    14    15 2
    17    15    16 1
    18    16    17 2
    19    17    18 1

@<TRIPOS>MOLECULE
ZINC66507641_replica-1.pdb
 21 21 0 0 0
SMALL
GASTEIGER

@<TRIPOS>ATOM
       1  C1          0.6970   35.6940   56.9610  C.3       1 <0>        -0.1463
       2  C2          1.8550   35.9390   57.9310  C.3       1 <0>        -0.0923
       3  C3          1.7020   35.0260   59.1480  C.3       1 <0>        -0.1500
       4  C4          3.1800   35.6360   57.2290  C.3       1 <0>        -0.0967
       5  C5          3.7040   34.2760   57.6930  C.3       1 <0>        -0.0984
       6  S1          4.5240   33.4380   56.3090  S.3       1 <0>        -0.2239
       7  C6          6.2670   33.9110   56.4800  C.3       1 <0>        -0.0846
       8  C7          6.4910   35.2530   55.8320  C.2       1 <0>         0.3447
       9  O1          6.2210   35.4210   54.5270  O.3       1 <0>        -0.6537
      10  C8          6.9660   36.2950   56.5710  C.2       1 <0>        -0.4198
      11  C9          7.0700   37.5980   55.9860  C.1       1 <0>         0.3344
      12  N1          7.1510   38.6320   55.5210  N.1       1 <0>        -0.5418
      13  C10         7.3740   36.0810   57.9670  C.2       1 <0>         0.6137
      14  O2          6.5330   36.0390   58.8450  O.2       1 <0>        -0.5531
      15  N2          8.6780   35.9340   58.2730  N.am      1 <0>        -0.7344
      16  C11         9.0840   35.7210   59.6650  C.3       1 <0>         0.1451
      17  C12         9.4250   37.0670   60.3080  C.3       1 <0>        -0.1304
      18  C13         9.8480   36.8440   61.7610  C.3       1 <0>        -0.1162
      19  C14        11.0770   35.9340   61.8010  C.3       1 <0>        -0.1199
      20  C15        10.7370   34.5880   61.1580  C.3       1 <0>        -0.1145
      21  C16        10.3130   34.8110   59.7040  C.3       1 <0>        -0.1263
@<TRIPOS>BOND
     1     1     2 1
     2     2     3 1
     3     2     4 1
     4     4     5 1
     5     5     6 1
     6     6     7 1
     7     7     8 1
     8     8     9 1
     9     8    10 2
    10    10    11 1
    11    10    13 1
    12    11    12 3
    13    13    14 2
    14    13    15 am
    15    15    16 1
    16    16    21 1
    17    16    17 1
    18    17    18 1
    19    18    19 1
    20    19    20 1
    21    20    21 1

@<TRIPOS>MOLECULE
ZINC36592004_replica-1.pdb
 25 25 0 0 0
SMALL
GASTEIGER

@<TRIPOS>ATOM
       1  C1          0.6060   34.9390   57.6600  C.3       1 <0>        -0.1556
       2  C2          1.6760   36.0030   57.4110  C.3       1 <0>        -0.1337
       3  C3          2.6870   35.9880   58.5590  C.3       1 <0>        -0.0794
       4  C4          4.0480   35.6200   58.0260  C.2       1 <0>        -0.1886
       5  C5          5.1270   35.9940   58.6680  C.2       1 <0>        -0.1658
       6  C6          6.4380   35.3010   58.4070  C.3       1 <0>         0.1570
       7  C7          7.2750   35.3190   59.6600  C.2       1 <0>         0.5016
       8  O1          6.7670   35.6050   60.7240  O.2       1 <0>        -0.5098
       9  N1          8.5880   35.0190   59.5990  N.am      1 <0>        -0.7267
      10  C8          9.4010   35.0380   60.8170  C.3       1 <0>         0.1448
      11  C9         10.2220   36.3270   60.8620  C.3       1 <0>        -0.1285
      12  C10        11.0710   36.3460   62.1350  C.3       1 <0>        -0.1179
      13  C11        12.0140   35.1410   62.1370  C.3       1 <0>        -0.1228
      14  C12        11.1930   33.8510   62.0920  C.3       1 <0>        -0.1165
      15  C13        10.3430   33.8320   60.8200  C.3       1 <0>        -0.1265
      16  N2          7.1520   35.9960   57.3330  N.am      1 <0>        -0.5928
      17  C14         7.6260   35.3040   56.2790  C.2       1 <0>         0.5643
      18  O2          8.5110   35.7740   55.5900  O.2       1 <0>        -0.5214
      19  C15         7.0730   33.9780   55.9610  C.2       1 <0>        -0.1520
      20  C16         5.9650   33.8780   55.2340  C.2       1 <0>        -0.1374
      21  C17         7.7640   32.7350   56.4600  C.3       1 <0>        -0.1568
      22  C18         7.3530   37.4470   57.4070  C.3       1 <0>         0.1849
      23  C19         6.7150   38.1110   56.1850  C.3       1 <0>        -0.1767
      24  C20         6.6990   37.9880   58.6800  C.3       1 <0>        -0.1690
      25  C21         8.8510   37.7540   57.4320  C.3       1 <0>        -0.1595
@<TRIPOS>BOND
     1     1     2 1
     2     2     3 1
     3     3     4 1
     4     4     5 2
     5     5     6 1
     6     6     7 1
     7     6    16 1
     8     7     8 2
     9     7     9 am
    10     9    10 1
    11    10    15 1
    12    10    11 1
    13    11    12 1
    14    12    13 1
    15    13    14 1
    16    14    15 1
    17    16    17 am
    18    16    22 1
    19    17    18 2
    20    17    19 1
    21    19    20 2
    22    19    21 1
    23    22    23 1
    24    22    24 1
    25    22    25 1

@<TRIPOS>MOLECULE
ZINC03197740_replica-1.pdb
 22 23 0 0 0
SMALL
GASTEIGER

@<TRIPOS>ATOM
       1  C1          7.2880   38.2520   59.3110  C.3       1 <0>        -0.1476
       2  C2          7.7260   37.3170   58.1800  C.3       1 <0>        -0.0444
       3  C3          8.6040   36.1980   58.7340  C.3       1 <0>        -0.1017
       4  C4          7.7880   35.1880   59.5310  C.3       1 <0>        -0.1191
       5  C5          6.6940   34.5950   58.6460  C.3       1 <0>        -0.1076
       6  C6          5.7630   35.7000   58.1440  C.3       1 <0>        -0.0333
       7  C7          6.5460   36.7600   57.3840  C.3       1 <0>        -0.0459
       8  C8          7.0850   36.1950   56.0640  C.3       1 <0>        -0.1185
       9  C9          5.9430   35.7050   55.1660  C.3       1 <0>        -0.0901
      10  C10         5.1780   34.6570   55.9410  C.2       1 <0>        -0.1028
      11  C11         4.9790   33.4610   55.4490  C.2       1 <0>        -0.2000
      12  C12         4.6570   35.0510   57.2970  C.3       1 <0>        -0.0450
      13  C13         3.4860   36.0250   57.1530  C.3       1 <0>        -0.1121
      14  C14         2.3770   35.3700   56.3280  C.3       1 <0>        -0.1383
      15  C15         1.0930   35.3040   57.1590  C.3       1 <0>         0.1584
      16  C16         0.5330   33.8820   57.1190  C.3       1 <0>        -0.1361
      17  C17         1.3970   35.6860   58.5840  C.2       1 <0>        -0.1872
      18  C18         1.0310   34.8990   59.5660  C.2       1 <0>        -0.1834
      19  O1          0.1300   36.2100   56.6170  O.3       1 <0>        -0.5543
      20  C19         5.0170   36.3000   59.3490  C.3       1 <0>        -0.1536
      21  C20         8.6160   38.1810   57.2580  C.3       1 <0>         0.0748
      22  O2          8.9410   39.4060   57.9190  O.3       1 <0>        -0.5696
@<TRIPOS>BOND
     1     1     2 1
     2     2     7 1
     3     2     3 1
     4     2    21 1
     5     3     4 1
     6     4     5 1
     7     5     6 1
     8     6    12 1
     9     6     7 1
    10     6    20 1
    11     7     8 1
    12     8     9 1
    13     9    10 1
    14    10    11 2
    15    10    12 1
    16    12    13 1
    17    13    14 1
    18    14    15 1
    19    15    16 1
    20    15    17 1
    21    15    19 1
    22    17    18 2
    23    21    22 1

@<TRIPOS>MOLECULE
ZINC40504706_replica-1.pdb
 19 21 0 0 0
SMALL
GASTEIGER

@<TRIPOS>ATOM
       1  C1          9.0810   37.1990   59.9860  C.ar      1 <0>        -0.1754
       2  C2          9.9420   36.9550   61.0360  C.ar      1 <0>        -0.0499
       3  C3         10.6770   35.7760   61.0750  C.ar      1 <0>        -0.1365
       4  C4         10.5450   34.8430   60.0540  C.ar      1 <0>        -0.0838
       5  C5          9.6840   35.0870   59.0030  C.ar      1 <0>        -0.1798
       6  C6          8.9500   36.2650   58.9650  C.ar      1 <0>         0.2153
       7  N1          8.0760   36.5130   57.8990  N.pl3     1 <0>        -0.7417
       8  C7          8.4390   36.0920   56.5430  C.3       1 <0>         0.2031
       9  C8          7.4300   35.0910   56.0410  C.2       1 <0>         0.0385
      10  C9          6.3430   35.4760   55.3250  C.2       1 <0>        -0.2073
      11  S1          5.5640   33.8960   55.0350  S.3       1 <0>         0.1181
      12  C10         6.6850   32.9340   55.8400  C.2       1 <0>         0.0311
      13  N2          7.5660   33.8000   56.2730  N.2       1 <0>        -0.5053
      14  S2         11.7760   35.4660   62.4170  S.3       1 <0>        -0.1288
      15  C11        12.5350   33.8720   62.0010  C.3       1 <0>        -0.0743
      16  C12        11.8990   32.7480   62.8440  C.3       1 <0>        -0.1232
      17  C13        13.0810   31.7980   63.1650  C.3       1 <0>        -0.1234
      18  C14        14.2540   32.7810   63.4010  C.3       1 <0>        -0.1229
      19  C15        14.0320   33.8930   62.3560  C.3       1 <0>        -0.1025
@<TRIPOS>BOND
     1     1     6 ar
     2     1     2 ar
     3     2     3 ar
     4     3     4 ar
     5     3    14 1
     6     4     5 ar
     7     5     6 ar
     8     6     7 1
     9     7     8 1
    10     8     9 1
    11     9    13 1
    12     9    10 2
    13    10    11 1
    14    11    12 1
    15    12    13 2
    16    14    15 1
    17    15    19 1
    18    15    16 1
    19    16    17 1
    20    17    18 1
    21    18    19 1

@<TRIPOS>MOLECULE
ZINC54465995_replica-1.pdb
 19 20 0 0 0
SMALL
GASTEIGER

@<TRIPOS>ATOM
       1  C1          5.1750   34.1810   54.2860  C.3       1 <0>        -0.1539
       2  C2          5.5170   35.4430   55.0810  C.3       1 <0>        -0.0813
       3  C3          4.2250   36.1130   55.5520  C.3       1 <0>        -0.1457
       4  C4          6.3680   35.0660   56.2950  C.3       1 <0>        -0.1036
       5  C5          7.7510   35.7080   56.1670  C.3       1 <0>         0.1778
       6  C6          7.9720   36.6560   57.3170  C.2       1 <0>        -0.1474
       7  C7          7.3870   37.8630   57.3210  C.2       1 <0>        -0.1453
       8  S1          7.9430   38.5900   58.8520  S.3       1 <0>         0.0429
       9  C8          8.9460   37.2520   59.4440  C.ar      1 <0>        -0.1129
      10  C9          8.8180   36.2700   58.4370  C.ar      1 <0>        -0.0838
      11  C10         9.5220   35.0600   58.6390  C.ar      1 <0>        -0.0615
      12  C11        10.2730   34.8710   59.7570  C.ar      1 <0>        -0.1215
      13  C12        10.3780   35.8500   60.7350  C.ar      1 <0>        -0.0909
      14  C13         9.7140   37.0500   60.5700  C.ar      1 <0>        -0.0820
      15  O1          7.8310   36.4250   54.9350  O.3       1 <0>        -0.5332
      16  C14         6.5130   33.5670   56.3610  C.2       1 <0>         0.4723
      17  O2          7.5080   33.0380   55.9280  O.2       1 <0>        -0.4963
      18  O3          5.5360   32.8220   56.9000  O.3       1 <0>        -0.3509
      19  C15         4.9480   33.3010   58.1110  C.3       1 <0>         0.0336
@<TRIPOS>BOND
     1     1     2 1
     2     2     3 1
     3     2     4 1
     4     4     5 1
     5     4    16 1
     6     5     6 1
     7     5    15 1
     8     6    10 1
     9     6     7 2
    10     7     8 1
    11     8     9 1
    12     9    14 ar
    13     9    10 ar
    14    10    11 ar
    15    11    12 ar
    16    12    13 ar
    17    13    14 ar
    18    16    17 2
    19    16    18 1
    20    18    19 1

@<TRIPOS>MOLECULE
ZINC37317806_replica-1.pdb
 21 23 0 0 0
SMALL
GASTEIGER

@<TRIPOS>ATOM
       1  C1          8.4130   33.2200   57.9510  C.3       1 <0>        -0.1458
       2  C2          7.4490   34.1890   58.6400  C.3       1 <0>        -0.0976
       3  C3          6.9110   33.5480   59.9200  C.3       1 <0>        -0.1475
       4  C4          8.1860   35.4830   58.9870  C.3       1 <0>         0.2424
       5  C5          7.9330   36.5100   57.9130  C.2       1 <0>        -0.1539
       6  C6          8.5190   37.7180   57.7320  C.2       1 <0>        -0.1539
       7  C7          8.1240   38.5020   56.6650  C.2       1 <0>        -0.1556
       8  C8          7.1610   38.0400   55.8320  C.2       1 <0>        -0.1766
       9  S1          6.7870   36.4470   56.5460  S.3       1 <0>         0.0482
      10  N1          9.6240   35.2160   59.0770  N.pl3     1 <0>        -0.7387
      11  C9         10.3040   35.4530   60.2750  C.ar      1 <0>         0.2236
      12  C10        10.1400   36.6620   60.9410  C.ar      1 <0>        -0.1813
      13  C11        10.8100   36.8990   62.1250  C.ar      1 <0>        -0.0682
      14  C12        11.6470   35.9370   62.6550  C.ar      1 <0>        -0.1443
      15  C13        11.8170   34.7200   61.9950  C.ar      1 <0>         0.0116
      16  C14        11.1370   34.4780   60.8030  C.ar      1 <0>        -0.1834
      17  C15        12.7140   33.6880   62.5610  C.2       1 <0>         0.1274
      18  C16        14.0670   33.7890   62.7190  C.2       1 <0>        -0.2507
      19  C17        14.5210   32.5980   63.2870  C.2       1 <0>         0.0490
      20  N2         13.4960   31.8050   63.4690  N.2       1 <0>        -0.2865
      21  N3         12.3420   32.4620   63.0270  N.pl3     1 <0>        -0.4739
@<TRIPOS>BOND
     1     1     2 1
     2     2     3 1
     3     2     4 1
     4     4     5 1
     5     4    10 1
     6     5     9 1
     7     5     6 2
     8     6     7 1
     9     7     8 2
    10     8     9 1
    11    10    11 1
    12    11    16 ar
    13    11    12 ar
    14    12    13 ar
    15    13    14 ar
    16    14    15 ar
    17    15    16 ar
    18    15    17 1
    19    17    21 1
    20    17    18 2
    21    18    19 1
    22    19    20 2
    23    20    21 1

@<TRIPOS>MOLECULE
ZINC03051874_replica-1.pdb
 18 20 0 0 0
SMALL
GASTEIGER

@<TRIPOS>ATOM
       1  C1          9.5420   37.2510   60.3630  C.ar      1 <0>        -0.0769
       2  C2          8.9600   38.1300   59.4760  C.ar      1 <0>        -0.0918
       3  C3          8.2440   37.6530   58.3870  C.ar      1 <0>         0.0501
       4  C4          8.1100   36.2790   58.1860  C.ar      1 <0>         0.0602
       5  C5          8.6960   35.3920   59.0680  C.ar      1 <0>        -0.0678
       6  C6          9.4120   35.8740   60.1680  C.ar      1 <0>        -0.0370
       7  C7         10.0330   34.9310   61.1160  C.2       1 <0>         0.1617
       8  N1         11.2410   35.1350   61.5340  N.2       1 <0>        -0.4741
       9  C8         11.8580   34.1970   62.4760  C.3       1 <0>         0.0675
      10  C9         13.3510   34.0710   62.1650  C.3       1 <0>        -0.1029
      11  C10        13.9960   33.0910   63.1470  C.3       1 <0>        -0.1185
      12  C11        13.3300   31.7210   63.0130  C.3       1 <0>        -0.1215
      13  C12        11.8370   31.8460   63.3220  C.3       1 <0>        -0.1185
      14  C13        11.1920   32.8260   62.3400  C.3       1 <0>        -0.1031
      15  I1          8.5040   33.3270   58.7640  I         1 <0>         0.0297
      16  O1          7.3670   36.0740   57.0580  O.3       1 <0>        -0.2952
      17  C14         7.3960   37.3260   56.3480  C.3       1 <0>         0.2113
      18  O2          7.5850   38.3050   57.3860  O.3       1 <0>        -0.3030
@<TRIPOS>BOND
     1     1     6 ar
     2     1     2 ar
     3     2     3 ar
     4     3    18 1
     5     3     4 ar
     6     4     5 ar
     7     4    16 1
     8     5     6 ar
     9     5    15 1
    10     6     7 1
    11     7     8 2
    12     8     9 1
    13     9    14 1
    14     9    10 1
    15    10    11 1
    16    11    12 1
    17    12    13 1
    18    13    14 1
    19    16    17 1
    20    17    18 1

@<TRIPOS>MOLECULE
ZINC04472897_replica-1.pdb
 24 27 0 0 0
SMALL
GASTEIGER

@<TRIPOS>ATOM
       1  C1          8.4930   36.9010   57.4250  C.3       1 <0>        -0.1475
       2  C2          7.3780   35.8540   57.4520  C.3       1 <0>        -0.0861
       3  C3          7.8870   34.5450   56.8430  C.3       1 <0>        -0.1158
       4  C4          6.8760   33.4220   57.0830  C.3       1 <0>        -0.0398
       5  C5          5.5100   33.8850   56.5980  C.2       1 <0>         0.0949
       6  C6          5.2530   35.2050   56.4100  C.2       1 <0>        -0.2178
       7  S1          3.5720   35.1980   55.8550  S.3       1 <0>         0.1212
       8  C7          3.3310   33.5310   55.9080  C.2       1 <0>         0.2675
       9  N1          4.4900   33.0740   56.3270  N.2       1 <0>        -0.5159
      10  N2          2.1840   32.8130   55.5880  N.am      1 <0>        -0.6163
      11  C8          1.2690   32.5430   56.5390  C.2       1 <0>         0.5302
      12  O1          1.4460   32.9290   57.6760  O.2       1 <0>        -0.4511
      13  C9          0.0270   31.7650   56.1910  C.3       1 <0>        -0.1559
      14  S2          0.2420   30.0320   56.6810  S.3       1 <0>         0.1284
      15  C10        -0.1900   29.1230   55.2350  C.2       1 <0>         0.0999
      16  N3          0.1340   27.8920   54.9080  N.2       1 <0>        -0.5081
      17  C11        -0.2720   27.3180   53.7540  C.ar      1 <0>         0.0820
      18  C12         0.0030   26.0130   53.2840  C.ar      1 <0>        -0.0626
      19  C13        -0.4910   25.5830   52.0810  C.ar      1 <0>        -0.1086
      20  C14        -1.2730   26.4050   51.2830  C.ar      1 <0>        -0.0933
      21  C15        -1.5620   27.6880   51.7120  C.ar      1 <0>        -0.0650
      22  C16        -1.0730   28.1260   52.9160  C.ar      1 <0>        -0.1475
      23  S3         -1.1870   29.6380   53.8430  S.3       1 <0>         0.0555
      24  C17         6.1800   36.3540   56.6290  C.3       1 <0>        -0.0255
@<TRIPOS>BOND
     1     1     2 1
     2     2    24 1
     3     2     3 1
     4     3     4 1
     5     4     5 1
     6     5     9 1
     7     5     6 2
     8     6     7 1
     9     6    24 1
    10     7     8 1
    11     8     9 2
    12     8    10 1
    13    10    11 am
    14    11    12 2
    15    11    13 1
    16    13    14 1
    17    14    15 1
    18    15    23 1
    19    15    16 2
    20    16    17 1
    21    17    22 ar
    22    17    18 ar
    23    18    19 ar
    24    19    20 ar
    25    20    21 ar
    26    21    22 ar
    27    22    23 1

@<TRIPOS>MOLECULE
ZINC37765037_replica-1.pdb
 19 22 0 0 0
SMALL
GASTEIGER

@<TRIPOS>ATOM
       1  C1         10.8040   34.5800   60.3920  C.ar      1 <0>        -0.0164
       2  C2          9.9780   35.5160   59.8100  C.ar      1 <0>        -0.1963
       3  C3          9.7480   36.7320   60.4430  C.ar      1 <0>         0.2420
       4  C4         10.3520   37.0090   61.6640  C.ar      1 <0>        -0.2000
       5  C5         11.1800   36.0770   62.2510  C.ar      1 <0>        -0.0378
       6  C6         11.4120   34.8540   61.6190  C.ar      1 <0>        -0.0840
       7  C7         12.2990   33.8530   62.2450  C.2       1 <0>         0.1784
       8  N1         13.6090   33.8970   62.4460  N.2       1 <0>        -0.5125
       9  C8         14.2430   32.9040   63.0260  C.2       1 <0>         0.0329
      10  C9         13.5550   31.8060   63.4330  C.2       1 <0>        -0.2105
      11  S1         11.8950   32.2580   62.9440  S.3       1 <0>        -0.0106
      12  N2          8.9090   37.6790   59.8510  N.pl3     1 <0>        -0.7303
      13  C10         7.7180   37.2450   59.1180  C.3       1 <0>         0.2086
      14  C11         6.5020   37.2940   60.0450  C.3       1 <0>        -0.1716
      15  C12         6.0210   35.9730   60.6500  C.3       1 <0>        -0.1705
      16  C13         5.2070   36.6510   59.5470  C.3       1 <0>        -0.1785
      17  C14         7.4870   38.1750   57.9240  C.3       1 <0>        -0.1678
      18  C15         7.7870   37.6220   56.5300  C.3       1 <0>        -0.1703
      19  C16         8.7180   38.6610   57.1580  C.3       1 <0>        -0.1689
@<TRIPOS>BOND
     1     1     6 ar
     2     1     2 ar
     3     2     3 ar
     4     3     4 ar
     5     3    12 1
     6     4     5 ar
     7     5     6 ar
     8     6     7 1
     9     7    11 1
    10     7     8 2
    11     8     9 1
    12     9    10 2
    13    10    11 1
    14    12    13 1
    15    13    14 1
    16    13    17 1
    17    14    16 1
    18    14    15 1
    19    15    16 1
    20    17    19 1
    21    17    18 1
    22    18    19 1

@<TRIPOS>MOLECULE
ZINC35017132_replica-1.pdb
 19 20 0 0 0
SMALL
GASTEIGER

@<TRIPOS>ATOM
       1  C1         -2.4350   29.7780   53.9080  C.3       1 <0>        -0.1350
       2  C2         -1.0370   29.4840   53.3630  C.3       1 <0>        -0.0475
       3  C3         -0.0230   29.5220   54.5090  C.3       1 <0>         0.0665
       4  N1         -0.7350   29.6480   55.7880  N.3       1 <0>        -0.6715
       5  C4          0.0390   29.0490   56.8830  C.3       1 <0>         0.1767
       6  C5          0.3310   30.0980   57.9250  C.2       1 <0>        -0.1670
       7  C6          0.2440   30.0070   59.2740  C.2       1 <0>        -0.1544
       8  C7          0.5670   31.1100   60.0420  C.2       1 <0>        -0.1550
       9  C8          0.9600   32.2500   59.4230  C.2       1 <0>        -0.1727
      10  S1          0.8890   31.7770   57.7020  S.3       1 <0>         0.0320
      11  C9         -0.7670   27.9120   57.5160  C.3       1 <0>        -0.0795
      12  C10        -2.2510   28.0940   57.1870  C.3       1 <0>        -0.1349
      13  C11        -0.2820   26.5720   56.9600  C.3       1 <0>        -0.1501
      14  C12        -1.0220   28.1180   52.7270  C.ar      1 <0>        -0.0762
      15  C13        -1.7100   27.8970   51.5480  C.ar      1 <0>        -0.1143
      16  C14        -1.6960   26.6440   50.9640  C.ar      1 <0>        -0.1185
      17  C15        -0.9940   25.6120   51.5590  C.ar      1 <0>        -0.1247
      18  C16        -0.3060   25.8340   52.7370  C.ar      1 <0>        -0.1181
      19  C17        -0.3160   27.0870   53.3180  C.ar      1 <0>        -0.1172
@<TRIPOS>BOND
     1     1     2 1
     2     2     3 1
     3     2    14 1
     4     3     4 1
     5     4     5 1
     6     5     6 1
     7     5    11 1
     8     6    10 1
     9     6     7 2
    10     7     8 1
    11     8     9 2
    12     9    10 1
    13    11    12 1
    14    11    13 1
    15    14    19 ar
    16    14    15 ar
    17    15    16 ar
    18    16    17 ar
    19    17    18 ar
    20    18    19 ar

@<TRIPOS>MOLECULE
ZINC38732460_replica-1.pdb
 29 32 0 0 0
SMALL
GASTEIGER

@<TRIPOS>ATOM
       1  C1         -1.4350   27.0940   51.0770  C.3       1 <0>        -0.1200
       2  C2         -0.8800   27.0910   52.4780  C.ar      1 <0>        -0.0794
       3  C3         -0.0930   26.0230   52.9050  C.ar      1 <0>        -0.0822
       4  C4          0.4230   25.9890   54.1650  C.ar      1 <0>        -0.0955
       5  C5          0.1630   27.0450   55.0550  C.ar      1 <0>         0.1563
       6  C6         -0.6370   28.1310   54.6190  C.ar      1 <0>        -0.1038
       7  C7         -1.1500   28.1350   53.3090  C.ar      1 <0>        -0.0916
       8  C8         -0.9010   29.1900   55.5040  C.ar      1 <0>        -0.0134
       9  C9         -0.3590   29.1260   56.7840  C.ar      1 <0>        -0.1530
      10  C10         0.4320   28.0060   57.1460  C.ar      1 <0>         0.4425
      11  N1          0.6630   27.0300   56.2970  N.ar      1 <0>        -0.4776
      12  N2          0.9720   27.9400   58.4180  N.pl3     1 <0>        -0.6655
      13  C11         2.2330   28.6260   58.7320  C.3       1 <0>         0.1452
      14  C12         3.2050   27.6140   59.3460  C.3       1 <0>        -0.1307
      15  C13         2.5400   26.9390   60.5470  C.3       1 <0>        -0.0884
      16  C14         1.2890   26.1890   60.0860  C.3       1 <0>        -0.1306
      17  C15         0.2930   27.1890   59.4820  C.3       1 <0>         0.1452
      18  C16         3.5210   25.9530   61.1840  C.3       1 <0>        -0.1478
      19  C17        -0.6020   30.2040   57.7470  C.2       1 <0>         0.1115
      20  C18         0.1390   31.3420   57.6950  C.2       1 <0>        -0.2501
      21  C19         0.6320   32.1950   58.7940  C.2       1 <0>         0.5468
      22  O1          0.4000   31.9340   59.9590  O.2       1 <0>        -0.4560
      23  N3          1.3410   33.2560   58.4480  N.am      1 <0>        -0.5154
      24  C20         1.5960   33.5420   57.1550  C.2       1 <0>         0.2680
      25  S1          2.4850   34.8560   56.5120  S.2       1 <0>        -0.3245
      26  S2          0.7910   32.2120   56.2770  S.3       1 <0>         0.0635
      27  C21         1.8580   34.1430   59.4920  C.3       1 <0>         0.1105
      28  C22         0.7060   34.6040   60.3880  C.3       1 <0>        -0.1819
      29  C23         2.8900   33.3930   60.3350  C.3       1 <0>        -0.1820
@<TRIPOS>BOND
     1     1     2 1
     2     2     7 ar
     3     2     3 ar
     4     3     4 ar
     5     4     5 ar
     6     5    11 ar
     7     5     6 ar
     8     6     7 ar
     9     6     8 ar
    10     8     9 ar
    11     9    10 ar
    12     9    19 1
    13    10    11 ar
    14    10    12 1
    15    12    17 1
    16    12    13 1
    17    13    14 1
    18    14    15 1
    19    15    16 1
    20    15    18 1
    21    16    17 1
    22    19    20 2
    23    20    26 1
    24    20    21 1
    25    21    22 2
    26    21    23 am
    27    23    24 1
    28    23    27 1
    29    24    25 2
    30    24    26 1
    31    27    28 1
    32    27    29 1

@<TRIPOS>MOLECULE
ZINC30880541_replica-1.pdb
 28 29 0 0 0
SMALL
GASTEIGER

@<TRIPOS>ATOM
       1  C1          7.0220   32.2980   60.2140  C.3       1 <0>        -0.1249
       2  C2          7.3970   33.6900   59.7790  C.2       1 <0>        -0.1118
       3  C3          8.3710   34.2780   60.3960  C.2       1 <0>        -0.1552
       4  C4          8.8510   35.6650   60.0810  C.3       1 <0>        -0.0646
       5  C5          8.3430   36.0990   58.7060  C.3       1 <0>        -0.0751
       6  C6          6.8360   35.8240   58.6360  C.3       1 <0>        -0.1114
       7  C7          6.6180   34.3100   58.6550  C.3       1 <0>        -0.0325
       8  C8          7.0840   33.7140   57.3260  C.3       1 <0>        -0.1330
       9  C9          6.1260   34.1130   56.2330  C.2       1 <0>         0.5150
      10  O1          6.4970   34.8430   55.3380  O.2       1 <0>        -0.5415
      11  N1          4.8580   33.6560   56.2480  N.am      1 <0>        -0.7384
      12  C10         3.9290   34.0390   55.1820  C.3       1 <0>         0.1239
      13  C11         2.7140   34.7410   55.7920  C.3       1 <0>         0.0464
      14  O2          3.1290   35.9650   56.4030  O.3       1 <0>        -0.3892
      15  C12         2.8940   36.0190   57.8120  C.3       1 <0>         0.0274
      16  C13         8.6080   37.5930   58.5080  C.3       1 <0>        -0.0937
      17  C14         8.5140   37.9360   57.0200  C.3       1 <0>        -0.1499
      18  C15         7.5670   38.4030   59.2840  C.3       1 <0>        -0.1528
      19  C16        10.3810   35.6850   60.0830  C.3       1 <0>         0.1308
      20  N2         10.8830   34.6000   60.9290  N.am      1 <0>        -0.7399
      21  C17        11.5800   34.8840   62.0480  C.2       1 <0>         0.5158
      22  O3         11.7920   36.0380   62.3540  O.2       1 <0>        -0.5435
      23  C18        12.0960   33.7670   62.9190  C.3       1 <0>        -0.1046
      24  C19        13.5420   33.4490   62.5370  C.3       1 <0>        -0.1091
      25  C20        14.0660   32.3160   63.4210  C.3       1 <0>        -0.1191
      26  C21        13.2010   31.0710   63.2190  C.3       1 <0>        -0.1237
      27  C22        11.7530   31.3880   63.6000  C.3       1 <0>        -0.1211
      28  C23        11.2300   32.5230   62.7170  C.3       1 <0>        -0.1000
@<TRIPOS>BOND
     1     1     2 1
     2     2     7 1
     3     2     3 2
     4     3     4 1
     5     4     5 1
     6     4    19 1
     7     5     6 1
     8     5    16 1
     9     6     7 1
    10     7     8 1
    11     8     9 1
    12     9    10 2
    13     9    11 am
    14    11    12 1
    15    12    13 1
    16    13    14 1
    17    14    15 1
    18    16    17 1
    19    16    18 1
    20    19    20 1
    21    20    21 am
    22    21    22 2
    23    21    23 1
    24    23    28 1
    25    23    24 1
    26    24    25 1
    27    25    26 1
    28    26    27 1
    29    27    28 1

@<TRIPOS>MOLECULE
ZINC44676112_replica-1.pdb
 29 32 0 0 0
SMALL
GASTEIGER

@<TRIPOS>ATOM
       1  C1         -1.9340   29.7940   53.5880  C.3       1 <0>        -0.1473
       2  C2         -1.6600   30.7700   54.7030  C.2       1 <0>         0.4583
       3  O1         -2.5050   30.9850   55.5400  O.2       1 <0>        -0.5140
       4  O2         -0.4780   31.4020   54.7660  O.3       1 <0>        -0.3496
       5  C3         -0.0920   31.9320   56.0360  C.3       1 <0>         0.1008
       6  C4          1.3900   32.2050   56.0380  C.2       1 <0>        -0.1604
       7  C5          1.8510   33.3160   56.5550  C.2       1 <0>        -0.0834
       8  C6          1.0390   34.4360   57.2000  C.3       1 <0>        -0.1013
       9  C7          2.0620   35.4720   57.7410  C.3       1 <0>        -0.1157
      10  C8          3.3300   34.6270   57.9140  C.3       1 <0>        -0.0805
      11  C9          3.2860   33.7470   56.6400  C.3       1 <0>        -0.0322
      12  C10         4.3190   32.6510   56.8170  C.3       1 <0>        -0.1037
      13  C11         5.6960   33.3310   56.8650  C.3       1 <0>        -0.1207
      14  C12         5.7760   34.3670   57.9830  C.3       1 <0>        -0.0668
      15  C13         4.6390   35.3990   57.9090  C.3       1 <0>        -0.0687
      16  C14         4.7090   36.2920   59.1520  C.3       1 <0>        -0.0806
      17  C15         6.0700   36.9200   59.2320  C.2       1 <0>        -0.1555
      18  C16         7.1320   36.3790   58.7110  C.2       1 <0>        -0.0979
      19  C17         7.1260   35.0650   57.9390  C.3       1 <0>        -0.0096
      20  C18         8.2090   34.1500   58.5180  C.3       1 <0>        -0.1053
      21  C19         9.5570   34.8720   58.4810  C.3       1 <0>        -0.1168
      22  C20         9.4990   36.1170   59.3670  C.3       1 <0>         0.0928
      23  C21         8.4580   37.1060   58.8640  C.3       1 <0>        -0.1034
      24  O3          9.1190   35.7410   60.6930  O.3       1 <0>        -0.3413
      25  C22         9.6030   36.4870   61.6990  C.2       1 <0>         0.4571
      26  O4          8.8610   37.1970   62.3360  O.2       1 <0>        -0.5157
      27  C23        11.0710   36.4360   62.0350  C.3       1 <0>        -0.1484
      28  C24         7.4800   35.3280   56.4740  C.3       1 <0>        -0.1504
      29  C25         3.6430   34.5960   55.4180  C.3       1 <0>        -0.1438
@<TRIPOS>BOND
     1     1     2 1
     2     2     3 2
     3     2     4 1
     4     4     5 1
     5     5     6 1
     6     6     7 2
     7     7    11 1
     8     7     8 1
     9     8     9 1
    10     9    10 1
    11    10    15 1
    12    10    11 1
    13    11    12 1
    14    11    29 1
    15    12    13 1
    16    13    14 1
    17    14    19 1
    18    14    15 1
    19    15    16 1
    20    16    17 1
    21    17    18 2
    22    18    23 1
    23    18    19 1
    24    19    20 1
    25    19    28 1
    26    20    21 1
    27    21    22 1
    28    22    23 1
    29    22    24 1
    30    24    25 1
    31    25    26 2
    32    25    27 1

@<TRIPOS>MOLECULE
ZINC27642559_replica-1.pdb
 23 24 0 0 0
SMALL
GASTEIGER

@<TRIPOS>ATOM
       1  C1          4.8490   36.0830   58.9040  C.3       1 <0>        -0.1552
       2  C2          5.3800   34.7760   58.3140  C.3       1 <0>        -0.1259
       3  C3          4.9560   34.6680   56.8480  C.3       1 <0>        -0.1215
       4  C4          6.1850   34.8220   55.9490  C.3       1 <0>        -0.1169
       5  C5          6.1520   36.1930   55.2710  C.3       1 <0>        -0.1070
       6  C6          7.5700   36.7680   55.2150  C.3       1 <0>         0.1514
       7  C7          8.2610   36.5280   56.5330  C.2       1 <0>        -0.2023
       8  C8          8.2170   37.4420   57.4700  C.2       1 <0>        -0.1066
       9  C9          8.9080   37.2030   58.7890  C.3       1 <0>        -0.0523
      10  C10         8.3450   38.1550   59.8550  C.3       1 <0>         0.1234
      11  C11         7.7070   37.2720   60.9440  C.3       1 <0>        -0.1548
      12  C12         8.4070   35.9030   60.8080  C.3       1 <0>         0.0814
      13  C13         8.6350   35.7670   59.2690  C.3       1 <0>        -0.1066
      14  C14         9.9660   34.9770   59.2360  C.3       1 <0>        -0.1195
      15  C15        10.5480   35.1580   60.6240  C.2       1 <0>         0.0528
      16  C16        11.6500   34.5950   61.0730  C.2       1 <0>        -0.2036
      17  C17        12.1140   34.8640   62.4810  C.3       1 <0>        -0.0787
      18  C18        12.4300   33.5390   63.1770  C.3       1 <0>        -0.1140
      19  C19        13.9200   33.2240   63.0220  C.3       1 <0>        -0.1267
      20  C20        14.2660   31.9820   63.8440  C.3       1 <0>        -0.1549
      21  O1          9.7440   36.0000   61.3300  O.3       1 <0>        -0.3110
      22  O2          7.3560   39.0080   59.2750  O.3       1 <0>        -0.5956
      23  O3          7.5040   38.1720   54.9590  O.3       1 <0>        -0.5945
@<TRIPOS>BOND
     1     1     2 1
     2     2     3 1
     3     3     4 1
     4     4     5 1
     5     5     6 1
     6     6     7 1
     7     6    23 1
     8     7     8 2
     9     8     9 1
    10     9    13 1
    11     9    10 1
    12    10    11 1
    13    10    22 1
    14    11    12 1
    15    12    21 1
    16    12    13 1
    17    13    14 1
    18    14    15 1
    19    15    16 2
    20    15    21 1
    21    16    17 1
    22    17    18 1
    23    18    19 1
    24    19    20 1

@<TRIPOS>MOLECULE
ZINC37779667_replica-1.pdb
 21 23 0 0 0
SMALL
GASTEIGER

@<TRIPOS>ATOM
       1  C1          7.8140   36.4770   55.0160  C.3       1 <0>        -0.1709
       2  C2          7.4330   35.9780   56.4120  C.3       1 <0>         0.1486
       3  C3          6.3290   34.9270   56.2930  C.3       1 <0>        -0.1236
       4  C4          5.1200   35.3600   57.1250  C.3       1 <0>        -0.0381
       5  C5          5.4930   35.3690   58.5850  C.2       1 <0>        -0.0130
       6  C6          5.2640   36.3720   59.4510  C.2       1 <0>        -0.2104
       7  C7          5.7730   35.9580   60.7030  C.2       1 <0>        -0.2136
       8  C8          6.2840   34.7260   60.5280  C.2       1 <0>        -0.0424
       9  O1          6.1060   34.3720   59.2450  O.3       1 <0>        -0.1764
      10  N1          8.6080   35.3830   57.0550  N.pl3     1 <0>        -0.7420
      11  C9          9.0240   35.8400   58.3080  C.ar      1 <0>         0.2228
      12  C10         8.7630   37.1500   58.6920  C.ar      1 <0>        -0.1881
      13  C11         9.1740   37.6070   59.9300  C.ar      1 <0>        -0.0662
      14  C12         9.8460   36.7650   60.7930  C.ar      1 <0>        -0.1536
      15  C13        10.1140   35.4480   60.4170  C.ar      1 <0>         0.0300
      16  C14         9.6940   34.9850   59.1700  C.ar      1 <0>        -0.1775
      17  C15        10.8340   34.5450   61.3390  C.2       1 <0>        -0.0027
      18  C16        11.9110   34.8590   62.1030  C.2       1 <0>        -0.0199
      19  N2         12.2540   33.7600   62.7900  N.2       1 <0>        -0.4863
      20  C17        11.4350   32.7940   62.4780  C.2       1 <0>         0.1741
      21  O2         10.5420   33.2490   61.5890  O.3       1 <0>        -0.1994
@<TRIPOS>BOND
     1     1     2 1
     2     2     3 1
     3     2    10 1
     4     3     4 1
     5     4     5 1
     6     5     9 1
     7     5     6 2
     8     6     7 1
     9     7     8 2
    10     8     9 1
    11    10    11 1
    12    11    16 ar
    13    11    12 ar
    14    12    13 ar
    15    13    14 ar
    16    14    15 ar
    17    15    16 ar
    18    15    17 1
    19    17    21 1
    20    17    18 2
    21    18    19 1
    22    19    20 2
    23    20    21 1

@<TRIPOS>MOLECULE
ZINC43758506_replica-1.pdb
 34 37 0 0 0
SMALL
GASTEIGER

@<TRIPOS>ATOM
       1  C1          8.9600   37.5610   59.2350  C.3       1 <0>        -0.1588
       2  C2          8.7350   36.0510   59.1300  C.3       1 <0>        -0.0543
       3  C3          9.9820   35.3250   59.5670  C.2       1 <0>        -0.1490
       4  C4         10.2670   35.2220   60.8420  C.2       1 <0>        -0.1475
       5  C5         11.4500   34.4010   61.2840  C.3       1 <0>        -0.0573
       6  C6         10.9580   33.1360   61.9910  C.3       1 <0>        -0.1457
       7  C7         12.3080   35.2220   62.2490  C.3       1 <0>        -0.0887
       8  C8         11.5210   36.4480   62.7140  C.3       1 <0>        -0.1512
       9  C9         12.6760   34.3620   63.4600  C.3       1 <0>        -0.1466
      10  C10         8.4130   35.6820   57.6810  C.3       1 <0>        -0.0680
      11  C11         8.1140   36.9570   56.8570  C.3       1 <0>        -0.1218
      12  C12         6.6330   36.8530   56.4080  C.3       1 <0>        -0.1094
      13  C13         6.0190   35.9110   57.4520  C.3       1 <0>        -0.0845
      14  C14         7.1350   34.8450   57.6200  C.3       1 <0>        -0.0502
      15  C15         6.8060   34.0710   58.8880  C.3       1 <0>        -0.0882
      16  C16         5.4300   33.4800   58.6920  C.2       1 <0>        -0.1430
      17  C17         4.5390   33.9680   57.8740  C.2       1 <0>        -0.1381
      18  C18         4.7390   35.2240   57.0380  C.3       1 <0>         0.1938
      19  C19         3.5530   36.1740   57.2240  C.3       1 <0>        -0.1478
      20  C20         2.2430   35.4350   56.9450  C.3       1 <0>        -0.1535
      21  C21         2.0710   34.3120   57.9760  C.3       1 <0>         0.1508
      22  C22         3.2070   33.2540   57.7610  C.3       1 <0>        -0.0003
      23  C23         3.1200   32.1590   58.8210  C.3       1 <0>        -0.1052
      24  C24         3.2200   32.7800   60.2160  C.3       1 <0>        -0.1512
      25  C25         2.0720   33.7730   60.4090  C.3       1 <0>         0.0956
      26  C26         2.1810   34.9110   59.3810  C.3       1 <0>        -0.1439
      27  O1          0.8230   33.0930   60.2610  O.3       1 <0>        -0.3228
      28  C27         0.3930   32.3740   61.3100  C.2       1 <0>         0.4532
      29  O2          0.2020   31.1860   61.1930  O.2       1 <0>        -0.5180
      30  C28         0.1500   33.0470   62.6370  C.3       1 <0>        -0.1470
      31  C29         3.0860   32.6220   56.3720  C.3       1 <0>        -0.1357
      32  O3          0.7900   33.7000   57.8130  O.3       1 <0>        -0.5368
      33  O4          4.8230   34.8550   55.6600  O.3       1 <0>        -0.5452
      34  C30         7.1690   33.9120   56.4080  C.3       1 <0>        -0.1312
@<TRIPOS>BOND
     1     1     2 1
     2     2     3 1
     3     2    10 1
     4     3     4 2
     5     4     5 1
     6     5     6 1
     7     5     7 1
     8     7     8 1
     9     7     9 1
    10    10    14 1
    11    10    11 1
    12    11    12 1
    13    12    13 1
    14    13    18 1
    15    13    14 1
    16    14    15 1
    17    14    34 1
    18    15    16 1
    19    16    17 2
    20    17    22 1
    21    17    18 1
    22    18    19 1
    23    18    33 1
    24    19    20 1
    25    20    21 1
    26    21    26 1
    27    21    22 1
    28    21    32 1
    29    22    23 1
    30    22    31 1
    31    23    24 1
    32    24    25 1
    33    25    26 1
    34    25    27 1
    35    27    28 1
    36    28    29 2
    37    28    30 1

@<TRIPOS>MOLECULE
ZINC20552727_replica-1.pdb
 18 19 0 0 0
SMALL
GASTEIGER

@<TRIPOS>ATOM
       1  C1         -1.2400   30.1250   53.9420  C.3       1 <0>        -0.1712
       2  C2         -0.2230   29.3120   54.7470  C.3       1 <0>         0.1485
       3  C3          0.2830   28.1440   53.8970  C.3       1 <0>        -0.1287
       4  C4         -0.9100   27.3560   53.3500  C.3       1 <0>        -0.1138
       5  C5         -0.6120   26.9080   51.9180  C.3       1 <0>        -0.0981
       6  C6         -0.5640   25.3790   51.8620  C.3       1 <0>        -0.1501
       7  C7         -1.7110   27.4180   50.9850  C.3       1 <0>        -0.1490
       8  N1          0.9040   30.1690   55.1190  N.pl3     1 <0>        -0.7380
       9  C8          0.7760   31.0740   56.1790  C.ar      1 <0>         0.2278
      10  C9          0.2940   30.6400   57.4070  C.ar      1 <0>        -0.1939
      11  C10         0.1670   31.5320   58.4540  C.ar      1 <0>        -0.0632
      12  C11         0.5200   32.8620   58.2820  C.ar      1 <0>        -0.0114
      13  C12         1.0040   33.2990   57.0560  C.ar      1 <0>         0.1002
      14  C13         1.1350   32.4030   56.0050  C.ar      1 <0>        -0.1960
      15  O1          1.3620   34.5990   56.8700  O.3       1 <0>        -0.3089
      16  C14         0.8740   35.5440   57.8290  C.3       1 <0>         0.0212
      17  C15         1.0970   34.9650   59.2330  C.3       1 <0>         0.0218
      18  O2          0.3830   33.7280   59.3260  O.3       1 <0>        -0.3106
@<TRIPOS>BOND
     1     1     2 1
     2     2     3 1
     3     2     8 1
     4     3     4 1
     5     4     5 1
     6     5     6 1
     7     5     7 1
     8     8     9 1
     9     9    14 ar
    10     9    10 ar
    11    10    11 ar
    12    11    12 ar
    13    12    18 1
    14    12    13 ar
    15    13    14 ar
    16    13    15 1
    17    15    16 1
    18    16    17 1
    19    17    18 1

@<TRIPOS>MOLECULE
ZINC43736220_replica-1.pdb
 34 38 0 0 0
SMALL
GASTEIGER

@<TRIPOS>ATOM
       1  C1          8.6940   37.3830   61.0260  C.3       1 <0>        -0.0875
       2  C2          8.6890   35.9570   60.5400  C.2       1 <0>        -0.1875
       3  C3          9.6870   35.0570   60.6170  C.2       1 <0>         0.0375
       4  O1          9.3310   33.8530   60.0260  O.3       1 <0>        -0.2894
       5  C4          8.4660   34.2460   59.0000  C.3       1 <0>         0.0768
       6  C5          7.5860   35.2300   59.8790  C.3       1 <0>        -0.0932
       7  C6          6.6320   35.7870   58.8440  C.3       1 <0>        -0.0229
       8  C7          5.3950   36.3260   59.5300  C.3       1 <0>        -0.1053
       9  C8          4.1200   36.1030   58.7310  C.3       1 <0>        -0.1113
      10  C9          3.9690   34.5930   58.5070  C.3       1 <0>        -0.0644
      11  C10         5.0530   34.1630   57.5280  C.3       1 <0>        -0.0631
      12  C11         6.4190   34.6220   57.8840  C.3       1 <0>        -0.0651
      13  C12         7.3650   33.4660   58.3270  C.3       1 <0>        -0.0866
      14  C13         4.9820   32.6420   57.3590  C.3       1 <0>        -0.0819
      15  C14         3.5920   32.2650   56.9320  C.2       1 <0>        -0.1610
      16  C15         2.5430   32.9870   57.1990  C.2       1 <0>        -0.0927
      17  C16         2.5880   34.2850   57.9530  C.3       1 <0>        -0.0103
      18  C17         1.5620   34.2500   59.0900  C.3       1 <0>        -0.1004
      19  C18         0.1850   33.9040   58.5220  C.3       1 <0>        -0.1157
      20  C19         0.2180   32.5040   57.9070  C.3       1 <0>         0.1081
      21  C20         1.1890   32.4930   56.7170  C.3       1 <0>        -0.1203
      22  O2          0.6560   31.5620   58.8880  O.3       1 <0>        -0.5598
      23  C21         2.1890   35.4120   56.9980  C.3       1 <0>        -0.1475
      24  C22         7.3160   36.9340   58.0980  C.3       1 <0>        -0.1706
      25  C23         9.2350   35.0620   57.9590  C.3       1 <0>        -0.1793
      26  C24        11.0230   35.3230   61.2610  C.3       1 <0>        -0.0583
      27  C25        11.6510   33.9990   61.6980  C.3       1 <0>        -0.1059
      28  C26        12.9650   34.2740   62.4330  C.3       1 <0>        -0.1028
      29  C27        12.6630   34.8900   63.8000  C.3       1 <0>        -0.1517
      30  C28        13.7280   32.9620   62.6230  C.3       1 <0>         0.1207
      31  N1         12.7770   31.8740   62.8650  N.am      1 <0>        -0.7309
      32  C29        12.9810   31.0150   63.8830  C.2       1 <0>         0.5081
      33  O3         13.9520   31.1420   64.5990  O.2       1 <0>        -0.5469
      34  C30        12.0040   29.8950   64.1320  C.3       1 <0>        -0.1720
@<TRIPOS>BOND
     1     1     2 1
     2     2     6 1
     3     2     3 2
     4     3     4 1
     5     3    26 1
     6     4     5 1
     7     5    13 1
     8     5     6 1
     9     5    25 1
    10     6     7 1
    11     7    12 1
    12     7     8 1
    13     7    24 1
    14     8     9 1
    15     9    10 1
    16    10    17 1
    17    10    11 1
    18    11    12 1
    19    11    14 1
    20    12    13 1
    21    14    15 1
    22    15    16 2
    23    16    21 1
    24    16    17 1
    25    17    18 1
    26    17    23 1
    27    18    19 1
    28    19    20 1
    29    20    21 1
    30    20    22 1
    31    26    27 1
    32    27    28 1
    33    28    29 1
    34    28    30 1
    35    30    31 1
    36    31    32 am
    37    32    33 2
    38    32    34 1

@<TRIPOS>MOLECULE
ZINC29779320_replica-1.pdb
 23 25 0 0 0
SMALL
GASTEIGER

@<TRIPOS>ATOM
       1  C1          4.0760   35.8570   55.5020  C.3       1 <0>        -0.0806
       2  C2          5.4410   36.2930   55.9690  C.2       1 <0>         0.0861
       3  C3          5.9670   37.4870   55.6020  C.2       1 <0>        -0.2767
       4  S1          7.5420   37.4300   56.4410  S.3       1 <0>         0.2217
       5  C4          7.3680   35.9180   57.1590  C.2       1 <0>         0.2431
       6  N1          6.1760   35.5320   56.7590  N.2       1 <0>        -0.5479
       7  N2          8.2640   35.2430   57.9780  N.am      1 <0>        -0.6038
       8  C5          8.0430   35.1740   59.3050  C.2       1 <0>         0.6114
       9  O1          7.0590   35.7040   59.7860  O.2       1 <0>        -0.4746
      10  C6          8.9900   34.4600   60.1720  C.2       1 <0>        -0.2063
      11  C7         10.0470   34.9600   60.8660  C.2       1 <0>        -0.0002
      12  C8         10.8410   34.1020   61.6460  C.ar      1 <0>        -0.1264
      13  C9         11.9750   34.4230   62.4360  C.ar      1 <0>        -0.0043
      14  C10        12.6090   33.4300   63.1230  C.ar      1 <0>        -0.1357
      15  C11        12.1530   32.1220   63.0550  C.ar      1 <0>         0.0888
      16  N3         11.0990   31.8180   62.3220  N.ar      1 <0>        -0.4023
      17  C12        10.4550   32.7390   61.6420  C.ar      1 <0>         0.0987
      18  S2          9.0310   32.7240   60.5790  S.3       1 <0>         0.1550
      19  C13        12.8670   31.0380   63.8220  C.3       1 <0>         0.5274
      20  F1         13.1500   29.9690   62.9670  F         1 <0>        -0.1639
      21  F2         14.0610   31.5460   64.3450  F         1 <0>        -0.1589
      22  F3         12.0510   30.5950   64.8700  F         1 <0>        -0.1641
      23  C14        10.3670   36.4310   60.7970  C.3       1 <0>        -0.1254
@<TRIPOS>BOND
     1     1     2 1
     2     2     6 1
     3     2     3 2
     4     3     4 1
     5     4     5 1
     6     5     6 2
     7     5     7 1
     8     7     8 am
     9     8     9 2
    10     8    10 1
    11    10    18 1
    12    10    11 2
    13    11    12 1
    14    11    23 1
    15    12    17 ar
    16    12    13 ar
    17    13    14 ar
    18    14    15 ar
    19    15    16 ar
    20    15    19 1
    21    16    17 ar
    22    17    18 1
    23    19    20 1
    24    19    21 1
    25    19    22 1

@<TRIPOS>MOLECULE
ZINC40569459_replica-1.pdb
 28 29 0 0 0
SMALL
GASTEIGER

@<TRIPOS>ATOM
       1  C1          8.4070   38.4640   56.9520  C.3       1 <0>        -0.1540
       2  C2          7.3090   38.4360   55.8860  C.3       1 <0>        -0.1229
       3  C3          7.2520   37.0450   55.2500  C.3       1 <0>        -0.0957
       4  C4          6.1560   36.2390   55.9010  C.2       1 <0>         0.1972
       5  C5          4.9050   36.7430   55.9580  C.2       1 <0>        -0.2289
       6  C6          3.8760   35.9940   56.5660  C.2       1 <0>         0.2137
       7  C7          4.1730   34.7550   57.0920  C.2       1 <0>        -0.2624
       8  C8          5.4860   34.2740   57.0090  C.2       1 <0>         0.5330
       9  O1          5.7640   33.1770   57.4710  O.2       1 <0>        -0.5114
      10  N1          6.4400   35.0150   56.4160  N.am      1 <0>        -0.4945
      11  C9          7.8080   34.4960   56.3320  C.3       1 <0>         0.0811
      12  C10         8.5600   34.8270   57.6240  C.3       1 <0>        -0.1690
      13  C11         3.1070   33.9230   57.7500  C.3       1 <0>         0.0656
      14  C12         1.7450   34.4380   57.3770  C.2       1 <0>        -0.2644
      15  C13         1.5830   35.6730   56.8450  C.2       1 <0>         0.4267
      16  O2          2.6230   36.4940   56.6230  O.3       1 <0>        -0.2380
      17  N2          0.3180   36.0980   56.5220  N.pl3     1 <0>        -0.8322
      18  C14         0.5980   33.6090   57.5890  C.1       1 <0>         0.2721
      19  N3         -0.3130   32.9500   57.7570  N.1       1 <0>        -0.4435
      20  C15         3.2750   33.9930   59.2690  C.3       1 <0>        -0.1024
      21  C16         3.8170   32.6590   59.7840  C.3       1 <0>        -0.0945
      22  C17         2.7100   31.9120   60.5310  C.3       1 <0>        -0.1295
      23  C18         4.9880   32.9170   60.7350  C.3       1 <0>        -0.1162
      24  C19         5.1480   34.4240   60.9500  C.3       1 <0>        -0.1165
      25  C20         6.5790   34.8380   60.6080  C.3       1 <0>        -0.1157
      26  C21         6.7160   36.3570   60.7380  C.3       1 <0>        -0.0971
      27  C22         8.1970   36.7320   60.8130  C.3       1 <0>        -0.1486
      28  C23         6.0800   37.0320   59.5200  C.3       1 <0>        -0.1494
@<TRIPOS>BOND
     1     1     2 1
     2     2     3 1
     3     3     4 1
     4     4    10 1
     5     4     5 2
     6     5     6 1
     7     6    16 1
     8     6     7 2
     9     7     8 1
    10     7    13 1
    11     8     9 2
    12     8    10 am
    13    10    11 1
    14    11    12 1
    15    13    14 1
    16    13    20 1
    17    14    15 2
    18    14    18 1
    19    15    16 1
    20    15    17 1
    21    18    19 3
    22    20    21 1
    23    21    22 1
    24    21    23 1
    25    23    24 1
    26    24    25 1
    27    25    26 1
    28    26    27 1
    29    26    28 1

@<TRIPOS>MOLECULE
ZINC66908257_replica-1.pdb
 25 26 0 0 0
SMALL
GASTEIGER

@<TRIPOS>ATOM
       1  C1         -0.9850   27.2240   52.1350  C.3       1 <0>        -0.1541
       2  C2         -0.5570   27.7260   53.5160  C.3       1 <0>        -0.1259
       3  C3         -0.8790   29.2170   53.6390  C.3       1 <0>        -0.1205
       4  C4          0.0130   29.8440   54.7110  C.3       1 <0>        -0.1195
       5  C5         -0.3910   31.3050   54.9200  C.3       1 <0>        -0.1275
       6  C6          0.1610   31.8010   56.2580  C.3       1 <0>         0.1569
       7  C7          0.7590   30.6240   57.0310  C.3       1 <0>        -0.1641
       8  N1          1.2020   32.8030   56.0150  N.am      1 <0>        -0.7401
       9  C8          1.2710   33.9050   56.7890  C.2       1 <0>         0.7097
      10  O1          0.4170   34.1110   57.6290  O.2       1 <0>        -0.5875
      11  N2          2.2880   34.7750   56.6320  N.am      1 <0>        -0.6310
      12  C9          2.4420   35.9170   57.5440  C.3       1 <0>         0.1337
      13  C10         3.8610   35.8990   58.1200  C.3       1 <0>        -0.1425
      14  C11         4.8740   35.8690   56.9730  C.3       1 <0>         0.1466
      15  C12         4.6720   34.5980   56.1460  C.3       1 <0>        -0.1442
      16  C13         3.2660   34.5980   55.5500  C.3       1 <0>         0.1160
      17  N3          6.2330   35.8850   57.5210  N.am      1 <0>        -0.7316
      18  C14         7.1550   36.7270   57.0120  C.2       1 <0>         0.5133
      19  O2          6.8580   37.4710   56.1010  O.2       1 <0>        -0.5328
      20  C15         8.5520   36.7440   57.5750  C.3       1 <0>        -0.1358
      21  C16         8.5080   36.3760   59.0600  C.3       1 <0>        -0.0770
      22  C17         9.1140   37.5170   59.9040  C.3       1 <0>        -0.1129
      23  C18         9.8730   36.7870   61.0390  C.3       1 <0>        -0.1285
      24  C19        10.4720   35.5570   60.3140  C.3       1 <0>        -0.1256
      25  C20         9.3720   35.1300   59.3200  C.3       1 <0>        -0.1228
@<TRIPOS>BOND
     1     1     2 1
     2     2     3 1
     3     3     4 1
     4     4     5 1
     5     5     6 1
     6     6     7 1
     7     6     8 1
     8     8     9 am
     9     9    10 2
    10     9    11 am
    11    11    16 1
    12    11    12 1
    13    12    13 1
    14    13    14 1
    15    14    15 1
    16    14    17 1
    17    15    16 1
    18    17    18 am
    19    18    19 2
    20    18    20 1
    21    20    21 1
    22    21    25 1
    23    21    22 1
    24    22    23 1
    25    23    24 1
    26    24    25 1

@<TRIPOS>MOLECULE
ZINC45024943_replica-1.pdb
 19 20 0 0 0
SMALL
GASTEIGER

@<TRIPOS>ATOM
       1  C1         14.2580   34.1770   61.9980  C.3       1 <0>        -0.1704
       2  C2         13.2640   33.6140   63.0160  C.3       1 <0>         0.1512
       3  C3         13.7950   32.2890   63.5680  C.3       1 <0>        -0.1263
       4  C4         12.9340   31.1370   63.0450  C.3       1 <0>         0.0603
       5  O1         12.0550   30.6910   64.0800  O.3       1 <0>        -0.3936
       6  C5         12.0360   29.2730   64.2560  C.3       1 <0>         0.0315
       7  N1         11.9730   33.3880   62.3630  N.pl3     1 <0>        -0.7407
       8  C6         11.3010   34.4550   61.7550  C.ar      1 <0>         0.2213
       9  C7         11.2380   35.6900   62.3950  C.ar      1 <0>        -0.1620
      10  C8         10.5800   36.7490   61.8060  C.ar      1 <0>        -0.0440
      11  C9          9.9760   36.5860   60.5680  C.ar      1 <0>        -0.0470
      12  C10        10.0340   35.3440   59.9180  C.ar      1 <0>         0.0724
      13  C11        10.7070   34.2800   60.5180  C.ar      1 <0>        -0.1545
      14  N2          9.3620   35.4900   58.7430  N.2       1 <0>        -0.4898
      15  C12         8.9200   36.7090   58.6630  C.2       1 <0>         0.2627
      16  O2          9.2740   37.4060   59.7530  O.3       1 <0>        -0.2116
      17  C13         8.1260   37.2630   57.5080  C.3       1 <0>        -0.0051
      18  C14         8.5570   38.7060   57.2380  C.3       1 <0>        -0.1509
      19  C15         8.3770   36.4130   56.2610  C.3       1 <0>        -0.1509
@<TRIPOS>BOND
     1     1     2 1
     2     2     3 1
     3     2     7 1
     4     3     4 1
     5     4     5 1
     6     5     6 1
     7     7     8 1
     8     8    13 ar
     9     8     9 ar
    10     9    10 ar
    11    10    11 ar
    12    11    16 1
    13    11    12 ar
    14    12    13 ar
    15    12    14 1
    16    14    15 2
    17    15    16 1
    18    15    17 1
    19    17    18 1
    20    17    19 1

@<TRIPOS>MOLECULE
ZINC05734970_replica-1.pdb
 22 22 0 0 0
SMALL
GASTEIGER

@<TRIPOS>ATOM
       1  C1         11.7760   32.0990   63.1640  C.3       1 <0>        -0.1200
       2  C2         12.8530   33.1000   62.8300  C.2       1 <0>        -0.1308
       3  C3         12.5640   34.1580   62.1150  C.2       1 <0>        -0.1701
       4  C4         11.1540   34.3770   61.6280  C.3       1 <0>        -0.0889
       5  C5         10.8880   35.8770   61.4920  C.3       1 <0>        -0.0790
       6  C6         10.0420   36.1290   60.2700  C.2       1 <0>        -0.0987
       7  C7         10.0000   35.2410   59.3080  C.2       1 <0>        -0.1721
       8  C8          9.0650   35.4370   58.1430  C.3       1 <0>         0.0980
       9  O1          8.0470   34.4010   58.1610  O.3       1 <0>        -0.3496
      10  C9          6.8460   34.7190   57.6520  C.2       1 <0>         0.4955
      11  O2          6.3110   33.9800   56.8600  O.2       1 <0>        -0.5002
      12  C10         6.1650   35.9960   58.0700  C.3       1 <0>        -0.1618
      13  C11         4.6880   35.9130   58.4650  C.3       1 <0>        -0.0825
      14  C12         5.7560   36.1310   59.5390  C.3       1 <0>        -0.0772
      15  C13         6.0700   34.9580   60.4700  C.3       1 <0>        -0.1144
      16  C14         5.8480   37.5190   60.1740  C.3       1 <0>        -0.1197
      17  C15         4.0260   34.5610   58.4050  C.2       1 <0>        -0.1460
      18  C16         2.7240   34.4640   58.5110  C.2       1 <0>        -0.1144
      19  C17         1.8880   35.7050   58.6930  C.3       1 <0>        -0.1235
      20  C18         2.0620   33.1110   58.4500  C.3       1 <0>        -0.1191
      21  C19         9.2450   37.4030   60.1560  C.3       1 <0>        -0.1301
      22  C20        14.2620   32.8810   63.3170  C.3       1 <0>        -0.1191
@<TRIPOS>BOND
     1     1     2 1
     2     2     3 2
     3     2    22 1
     4     3     4 1
     5     4     5 1
     6     5     6 1
     7     6     7 2
     8     6    21 1
     9     7     8 1
    10     8     9 1
    11     9    10 1
    12    10    11 2
    13    10    12 1
    14    12    14 1
    15    12    13 1
    16    13    14 1
    17    13    17 1
    18    14    15 1
    19    14    16 1
    20    17    18 2
    21    18    19 1
    22    18    20 1

@<TRIPOS>MOLECULE
ZINC49561043_replica-1.pdb
 21 21 0 0 0
SMALL
GASTEIGER

@<TRIPOS>ATOM
       1  C1          8.5130   38.7870   57.1340  C.3       1 <0>        -0.1334
       2  C2          8.4930   38.1340   58.5180  C.3       1 <0>        -0.1004
       3  C3          7.1650   38.4480   59.2110  C.3       1 <0>        -0.1567
       4  C4          8.6440   36.6200   58.3690  C.3       1 <0>         0.2543
       5  C5          9.5060   36.0890   59.4860  C.2       1 <0>        -0.1505
       6  C6         10.2010   34.9260   59.5480  C.2       1 <0>        -0.1520
       7  C7         10.9330   34.6450   60.6870  C.2       1 <0>        -0.1584
       8  C8         10.9340   35.5380   61.7060  C.2       1 <0>        -0.1823
       9  S1          9.8840   36.8310   61.0650  S.3       1 <0>         0.0686
      10  N1          7.3240   35.9880   58.4300  N.am      1 <0>        -0.7407
      11  C9          6.8470   35.3200   57.3600  C.2       1 <0>         0.7127
      12  O1          7.4760   35.3100   56.3200  O.2       1 <0>        -0.5978
      13  N2          5.6740   34.6630   57.4450  N.am      1 <0>        -0.6215
      14  C10         4.8630   34.7640   58.6610  C.3       1 <0>         0.1297
      15  C11         3.9740   36.0050   58.5800  C.3       1 <0>        -0.2034
      16  C12         2.5270   35.5850   58.5290  C.2       1 <0>         0.4933
      17  O2          2.0920   34.7970   59.3530  O.co2     1 <0>        -0.6978
      18  O3          1.7910   36.0310   57.6660  O.co2     1 <0>        -0.7009
      19  C13         5.2070   33.8490   56.3190  C.3       1 <0>         0.1513
      20  C14         4.3760   32.6770   56.8470  C.3       1 <0>        -0.1630
      21  C15         4.3450   34.7070   55.3910  C.3       1 <0>        -0.1654
@<TRIPOS>BOND
     1     1     2 1
     2     2     3 1
     3     2     4 1
     4     4     5 1
     5     4    10 1
     6     5     9 1
     7     5     6 2
     8     6     7 1
     9     7     8 2
    10     8     9 1
    11    10    11 am
    12    11    12 2
    13    11    13 am
    14    13    14 1
    15    13    19 1
    16    14    15 1
    17    15    16 1
    18    16    17 2
    19    16    18 1
    20    19    20 1
    21    19    21 1

@<TRIPOS>MOLECULE
ZINC07670244_replica-1.pdb
 26 29 0 0 0
SMALL
GASTEIGER

@<TRIPOS>ATOM
       1  C1         -2.4690   30.4890   53.2380  C.3       1 <0>        -0.1232
       2  C2         -1.6430   29.4140   53.8970  C.ar      1 <0>        -0.0033
       3  C3         -1.2620   28.2580   53.1890  C.ar      1 <0>        -0.1050
       4  C4         -1.6370   28.0650   51.8500  C.ar      1 <0>        -0.0948
       5  C5         -1.2500   26.9330   51.2000  C.ar      1 <0>        -0.1195
       6  C6         -0.4850   25.9630   51.8460  C.ar      1 <0>        -0.0976
       7  C7         -0.1040   26.1190   53.1440  C.ar      1 <0>        -0.0964
       8  C8         -0.4850   27.2740   53.8480  C.ar      1 <0>         0.1380
       9  N1         -0.1250   27.4550   55.1230  N.ar      1 <0>        -0.4779
      10  C9         -0.4730   28.5320   55.7830  C.ar      1 <0>         0.1802
      11  C10        -1.2410   29.5350   55.1970  C.ar      1 <0>        -0.1304
      12  C11        -1.6250   30.7550   55.9940  C.3       1 <0>        -0.1004
      13  C12        -0.4360   31.6730   56.1130  C.2       1 <0>         0.5134
      14  O1          0.4090   31.6860   55.2420  O.2       1 <0>        -0.5006
      15  N2         -0.3110   32.4800   57.1840  N.am      1 <0>        -0.6709
      16  C13         0.7340   33.4100   57.2430  C.ar      1 <0>         0.1674
      17  C14         0.5060   34.7480   56.9240  C.ar      1 <0>        -0.1309
      18  C15         1.5030   35.6700   56.9740  C.ar      1 <0>        -0.0388
      19  C16         2.8140   35.3010   57.3520  C.ar      1 <0>         0.0636
      20  C17         3.0190   33.9380   57.6690  C.ar      1 <0>        -0.1320
      21  C18         2.0090   33.0090   57.6190  C.ar      1 <0>        -0.0685
      22  S1          4.7460   33.9080   58.0780  S.3       1 <0>         0.0293
      23  C19         5.0740   35.5930   57.8200  C.2       1 <0>         0.1358
      24  N3          3.9180   36.0710   57.4560  N.2       1 <0>        -0.5071
      25  C20         6.3800   36.3260   57.9790  C.3       1 <0>        -0.0698
      26  C21        -0.0350   28.6880   57.2180  C.3       1 <0>        -0.1134
@<TRIPOS>BOND
     1     1     2 1
     2     2    11 ar
     3     2     3 ar
     4     3     8 ar
     5     3     4 ar
     6     4     5 ar
     7     5     6 ar
     8     6     7 ar
     9     7     8 ar
    10     8     9 ar
    11     9    10 ar
    12    10    11 ar
    13    10    26 1
    14    11    12 1
    15    12    13 1
    16    13    14 2
    17    13    15 am
    18    15    16 1
    19    16    21 ar
    20    16    17 ar
    21    17    18 ar
    22    18    19 ar
    23    19    24 1
    24    19    20 ar
    25    20    21 ar
    26    20    22 1
    27    22    23 1
    28    23    24 2
    29    23    25 1

@<TRIPOS>MOLECULE
ZINC43198559_replica-1.pdb
 23 24 0 0 0
SMALL
GASTEIGER

@<TRIPOS>ATOM
       1  C1          7.5850   38.2600   58.6950  C.3       1 <0>        -0.1322
       2  C2          7.7020   36.7450   58.5150  C.3       1 <0>        -0.0397
       3  C3          8.6670   36.2650   57.3880  C.3       1 <0>        -0.1291
       4  C4          8.2200   34.8180   57.0810  C.3       1 <0>        -0.1315
       5  C5          7.0270   34.5600   58.0530  C.3       1 <0>        -0.1117
       6  C6          6.3860   35.9910   58.1120  C.3       1 <0>        -0.0569
       7  C7          5.8620   36.4420   56.7480  C.3       1 <0>        -0.1399
       8  C8          5.3110   36.0940   59.1960  C.3       1 <0>        -0.1495
       9  C9          7.6860   34.4570   59.4620  C.3       1 <0>         0.1128
      10  C10         8.1210   35.9390   59.7830  C.3       1 <0>         0.1612
      11  C11         9.6370   35.9970   59.9760  C.3       1 <0>        -0.1499
      12  C12         9.9650   36.9130   61.1570  C.3       1 <0>        -0.1240
      13  C13        11.0740   36.2800   62.0010  C.3       1 <0>        -0.1207
      14  C14        11.3770   34.8760   61.4740  C.3       1 <0>        -0.1201
      15  C15        12.1430   34.0860   62.5370  C.3       1 <0>        -0.1154
      16  C16        13.6260   34.0370   62.1650  C.3       1 <0>        -0.0962
      17  C17        14.3340   33.0430   63.0500  C.2       1 <0>        -0.1557
      18  C18        13.7240   31.9430   63.4170  C.2       1 <0>        -0.1958
      19  O1          7.4490   36.4450   60.9390  O.3       1 <0>        -0.5308
      20  C19         8.8880   33.5100   59.4220  C.3       1 <0>        -0.1224
      21  C20         8.4460   32.1230   59.8150  C.2       1 <0>        -0.1572
      22  C21         8.2790   31.2040   58.8970  C.2       1 <0>        -0.1863
      23  O2          6.7320   34.0130   60.4270  O.3       1 <0>        -0.5429
@<TRIPOS>BOND
     1     1     2 1
     2     2     6 1
     3     2    10 1
     4     2     3 1
     5     3     4 1
     6     4     5 1
     7     5     6 1
     8     5     9 1
     9     6     7 1
    10     6     8 1
    11     9    10 1
    12     9    20 1
    13     9    23 1
    14    10    11 1
    15    10    19 1
    16    11    12 1
    17    12    13 1
    18    13    14 1
    19    14    15 1
    20    15    16 1
    21    16    17 1
    22    17    18 2
    23    20    21 1
    24    21    22 2

@<TRIPOS>MOLECULE
ZINC41978130_replica-1.pdb
 21 21 0 0 0
SMALL
GASTEIGER

@<TRIPOS>ATOM
       1  C1         11.3850   34.6950   61.3000  C.3       1 <0>        -0.1514
       2  C2         10.4190   35.6440   60.5870  C.3       1 <0>        -0.1223
       3  C3          9.9930   35.0300   59.2520  C.3       1 <0>        -0.0836
       4  C4          9.0120   35.9470   58.5680  C.2       1 <0>         0.1655
       5  C5          8.6550   37.1150   59.1420  C.2       1 <0>        -0.2912
       6  C6          7.7290   37.9550   58.4710  C.2       1 <0>         0.5108
       7  O1          7.3890   39.0160   58.9690  O.2       1 <0>        -0.5252
       8  N1          7.2300   37.5750   57.2870  N.2       1 <0>        -0.5389
       9  C7          7.5910   36.4310   56.7400  C.2       1 <0>         0.4154
      10  N2          8.4800   35.6070   57.3560  N.pl3     1 <0>        -0.6056
      11  S1          6.9140   35.9640   55.1820  S.3       1 <0>        -0.0278
      12  C8          5.4800   34.9410   55.6150  C.3       1 <0>        -0.0887
      13  C9          4.5460   34.8350   54.4090  C.3       1 <0>        -0.1332
      14  C10         4.7300   35.5820   56.7860  C.3       1 <0>        -0.0842
      15  C11         3.3630   36.0730   56.3070  C.3       1 <0>        -0.1199
      16  C12         2.3740   36.0470   57.4750  C.3       1 <0>        -0.0970
      17  C13         0.9810   35.6840   56.9560  C.3       1 <0>        -0.1445
      18  C14         2.8240   35.0060   58.5010  C.3       1 <0>        -0.1500
      19  C15         5.9470   33.5640   56.0120  C.2       1 <0>         0.5207
      20  O2          7.1080   33.2380   55.8310  O.co2     1 <0>        -0.6708
      21  O3          5.1650   32.7760   56.5150  O.co2     1 <0>        -0.6830
@<TRIPOS>BOND
     1     1     2 1
     2     2     3 1
     3     3     4 1
     4     4    10 1
     5     4     5 2
     6     5     6 1
     7     6     7 2
     8     6     8 1
     9     8     9 2
    10     9    10 1
    11     9    11 1
    12    11    12 1
    13    12    13 1
    14    12    14 1
    15    12    19 1
    16    14    15 1
    17    15    16 1
    18    16    17 1
    19    16    18 1
    20    19    20 2
    21    19    21 1

@<TRIPOS>MOLECULE
ZINC34994355_replica-1.pdb
 19 21 0 0 0
SMALL
GASTEIGER

@<TRIPOS>ATOM
       1  C1         -0.9990   25.5450   51.4130  C.ar      1 <0>        -0.0926
       2  C2         -0.2920   25.5160   52.6010  C.ar      1 <0>        -0.1149
       3  C3         -0.2290   26.6400   53.3980  C.ar      1 <0>        -0.0954
       4  C4         -0.8820   27.8080   53.0030  C.ar      1 <0>        -0.0445
       5  C5         -1.5950   27.8310   51.8020  C.ar      1 <0>        -0.0831
       6  C6         -1.6490   26.6990   51.0150  C.ar      1 <0>        -0.1153
       7  C7         -0.8210   29.0180   53.8520  C.2       1 <0>        -0.0337
       8  C8         -1.4980   30.2000   53.7200  C.2       1 <0>        -0.1865
       9  C9         -1.2770   31.1970   54.6440  C.2       1 <0>        -0.0659
      10  C10        -0.3970   30.9780   55.6560  C.2       1 <0>        -0.2905
      11  S1          0.1500   29.3120   55.3210  S.3       1 <0>         0.1074
      12  C11         0.0090   31.9020   56.7740  C.3       1 <0>         0.1019
      13  N1          0.3900   33.2070   56.2180  N.4       1 <0>        -0.5139
      14  C12         1.3650   33.8530   57.1070  C.3       1 <0>         0.0938
      15  C13         2.4820   34.4420   56.2840  C.2       1 <0>        -0.1192
      16  C14         2.9250   35.7090   56.3520  C.2       1 <0>        -0.1349
      17  C15         3.9750   35.8270   55.4120  C.2       1 <0>        -0.2211
      18  C16         4.1110   34.6230   54.8260  C.2       1 <0>         0.0187
      19  O1          3.2080   33.7870   55.3630  O.3       1 <0>        -0.1684
@<TRIPOS>BOND
     1     1     6 ar
     2     1     2 ar
     3     2     3 ar
     4     3     4 ar
     5     4     5 ar
     6     4     7 1
     7     5     6 ar
     8     7    11 1
     9     7     8 2
    10     8     9 1
    11     9    10 2
    12    10    11 1
    13    10    12 1
    14    12    13 1
    15    13    14 1
    16    14    15 1
    17    15    19 1
    18    15    16 2
    19    16    17 1
    20    17    18 2
    21    18    19 1

@<TRIPOS>MOLECULE
ZINC62543359_replica-1.pdb
 20 20 0 0 0
SMALL
GASTEIGER

@<TRIPOS>ATOM
       1  C1          7.8050   34.1700   60.1140  C.3       1 <0>        -0.1472
       2  C2          8.7590   33.9170   58.9450  C.3       1 <0>        -0.0845
       3  C3          9.7730   35.0590   58.8580  C.3       1 <0>        -0.1151
       4  C4          9.0350   36.3810   58.6360  C.3       1 <0>        -0.1152
       5  C5          8.2380   36.3070   57.3330  C.3       1 <0>        -0.0756
       6  C6          7.2240   35.1650   57.4200  C.3       1 <0>         0.0974
       7  C7          7.9620   33.8430   57.6420  C.3       1 <0>        -0.1378
       8  O1          6.3320   35.4020   58.5110  O.3       1 <0>        -0.3667
       9  C8          5.0190   34.8750   58.3140  C.3       1 <0>         0.0693
      10  C9          4.2610   35.7550   57.3180  C.3       1 <0>        -0.0994
      11  C10         2.9630   35.0560   56.9040  C.3       1 <0>         0.0990
      12  C11         1.7910   35.7530   57.5440  C.2       1 <0>         0.4342
      13  O2          0.8860   36.1660   56.8590  O.2       1 <0>        -0.5043
      14  O3          1.7530   35.9150   58.8760  O.3       1 <0>        -0.3510
      15  C12         1.1190   34.8840   59.6370  C.3       1 <0>         0.0304
      16  N1          2.8250   35.1070   55.4420  N.3       1 <0>        -0.6640
      17  C13         4.1030   35.4550   54.8060  C.3       1 <0>         0.0190
      18  C14         7.5000   37.6290   57.1110  C.3       1 <0>        -0.0894
      19  C15         8.4150   38.7940   57.4940  C.3       1 <0>        -0.1500
      20  C16         7.1070   37.7520   55.6380  C.3       1 <0>        -0.1490
@<TRIPOS>BOND
     1     1     2 1
     2     2     7 1
     3     2     3 1
     4     3     4 1
     5     4     5 1
     6     5     6 1
     7     5    18 1
     8     6     7 1
     9     6     8 1
    10     8     9 1
    11     9    10 1
    12    10    11 1
    13    11    12 1
    14    11    16 1
    15    12    13 2
    16    12    14 1
    17    14    15 1
    18    16    17 1
    19    18    19 1
    20    18    20 1

@<TRIPOS>MOLECULE
ZINC43198560_replica-1.pdb
 23 24 0 0 0
SMALL
GASTEIGER

@<TRIPOS>ATOM
       1  C1          4.1500   32.9190   57.6370  C.3       1 <0>        -0.1270
       2  C2          4.5440   34.0930   56.7380  C.3       1 <0>        -0.0457
       3  C3          4.0780   33.9990   55.2530  C.3       1 <0>        -0.1096
       4  C4          4.1340   35.4550   54.7340  C.3       1 <0>        -0.1192
       5  C5          4.6270   36.2900   55.9550  C.3       1 <0>        -0.1170
       6  C6          3.9660   35.4960   57.1360  C.3       1 <0>        -0.0565
       7  C7          4.4790   35.9630   58.5000  C.3       1 <0>        -0.1856
       8  C8          2.4380   35.5280   57.0640  C.3       1 <0>        -0.1375
       9  C9          6.1270   35.8930   56.1180  C.3       1 <0>         0.1118
      10  C10         6.0680   34.4170   56.6700  C.3       1 <0>         0.1612
      11  C11         6.6980   34.3100   58.0600  C.3       1 <0>        -0.1730
      12  C12         7.8390   33.2910   58.0250  C.3       1 <0>        -0.1194
      13  C13         8.8770   33.6520   59.0900  C.3       1 <0>        -0.1205
      14  C14         9.5520   34.9730   58.7150  C.3       1 <0>        -0.1197
      15  C15        10.1540   35.6120   59.9700  C.3       1 <0>        -0.1154
      16  C16         9.5010   36.9740   60.2130  C.3       1 <0>        -0.0963
      17  C17         8.4090   36.8310   61.2420  C.2       1 <0>        -0.1558
      18  C18         7.1650   36.6870   60.8610  C.2       1 <0>        -0.1957
      19  O1          6.7240   33.5380   55.7540  O.3       1 <0>        -0.5362
      20  C19         6.8100   36.8020   57.1420  C.3       1 <0>        -0.1452
      21  C20         7.5070   37.9300   56.4270  C.2       1 <0>        -0.1524
      22  C21         8.4390   38.6160   57.0390  C.2       1 <0>        -0.1913
      23  O2          6.8000   35.9620   54.8600  O.3       1 <0>        -0.5419
@<TRIPOS>BOND
     1     1     2 1
     2     2     6 1
     3     2    10 1
     4     2     3 1
     5     3     4 1
     6     4     5 1
     7     5     6 1
     8     5     9 1
     9     6     7 1
    10     6     8 1
    11     9    10 1
    12     9    20 1
    13     9    23 1
    14    10    11 1
    15    10    19 1
    16    11    12 1
    17    12    13 1
    18    13    14 1
    19    14    15 1
    20    15    16 1
    21    16    17 1
    22    17    18 2
    23    20    21 1
    24    21    22 2

@<TRIPOS>MOLECULE
ZINC18276776_replica-1.pdb
 23 26 0 0 0
SMALL
GASTEIGER

@<TRIPOS>ATOM
       1  C1         12.9090   30.2600   63.7500  C.1       1 <0>        -0.1910
       2  C2         12.1260   31.0740   63.4300  C.1       1 <0>        -0.1649
       3  C3         11.1450   32.0960   63.0290  C.3       1 <0>         0.0068
       4  S1         12.0050   33.6560   62.6830  S.3       1 <0>        -0.0331
       5  C4         10.9510   34.4770   61.5360  C.ar      1 <0>         0.3262
       6  N1         10.3090   33.7600   60.6220  N.ar      1 <0>        -0.5657
       7  C5          9.5080   34.3510   59.7440  C.ar      1 <0>         0.2075
       8  C6          9.3300   35.7330   59.8030  C.ar      1 <0>        -0.2582
       9  C7         10.0260   36.4510   60.7670  C.ar      1 <0>         0.4557
      10  N2         10.8160   35.7950   61.6110  N.ar      1 <0>        -0.6084
      11  O1          9.8980   37.7980   60.8500  O.3       1 <0>        -0.6503
      12  C8          8.3820   36.4120   58.8580  C.3       1 <0>         0.0228
      13  C9          6.9560   36.3760   59.4320  C.3       1 <0>        -0.1019
      14  C10         6.5210   37.8450   59.6210  C.3       1 <0>        -0.1148
      15  C11         7.4060   38.6330   58.6230  C.3       1 <0>        -0.1122
      16  C12         8.7660   37.8990   58.7160  C.3       1 <0>        -0.2225
      17  C13         8.4030   35.7450   57.4870  C.3       1 <0>        -0.0689
      18  C14         8.2320   34.2550   57.6200  C.ar      1 <0>        -0.0543
      19  C15         8.7810   33.5810   58.7100  C.ar      1 <0>        -0.0269
      20  C16         8.6400   32.2010   58.8180  C.ar      1 <0>        -0.0807
      21  C17         7.9440   31.5050   57.8500  C.ar      1 <0>        -0.1372
      22  C18         7.3910   32.1780   56.7760  C.ar      1 <0>        -0.1176
      23  C19         7.5330   33.5490   56.6610  C.ar      1 <0>        -0.1293
@<TRIPOS>BOND
     1     1     2 3
     2     2     3 1
     3     3     4 1
     4     4     5 1
     5     5    10 ar
     6     5     6 ar
     7     6     7 ar
     8     7     8 ar
     9     7    19 1
    10     8     9 ar
    11     8    12 1
    12     9    10 ar
    13     9    11 1
    14    12    16 1
    15    12    13 1
    16    12    17 1
    17    13    14 1
    18    14    15 1
    19    15    16 1
    20    17    18 1
    21    18    23 ar
    22    18    19 ar
    23    19    20 ar
    24    20    21 ar
    25    21    22 ar
    26    22    23 ar

@<TRIPOS>MOLECULE
ZINC06187304_replica-1.pdb
 17 18 0 0 0
SMALL
GASTEIGER

@<TRIPOS>ATOM
       1  C1          7.0800   37.8570   55.6350  C.3       1 <0>        -0.1536
       2  C2          8.2680   36.9620   55.9950  C.3       1 <0>         0.0539
       3  O1          7.9030   36.0970   57.0730  O.3       1 <0>        -0.3136
       4  C3          8.5860   36.2440   58.2390  C.ar      1 <0>         0.1517
       5  C4          8.4730   37.4250   58.9650  C.ar      1 <0>        -0.2033
       6  C5          9.1610   37.5860   60.1470  C.ar      1 <0>        -0.0226
       7  C6          9.9770   36.5570   60.6230  C.ar      1 <0>         0.0217
       8  C7         10.0890   35.3660   59.8880  C.ar      1 <0>         0.0981
       9  C8          9.3890   35.2140   58.7010  C.ar      1 <0>        -0.1558
      10  N1         10.9540   34.5520   60.6020  N.pl3     1 <0>        -0.5875
      11  C9         11.3340   35.2450   61.7170  C.2       1 <0>         0.2570
      12  N2         10.7590   36.4220   61.7280  N.2       1 <0>        -0.4845
      13  S1         12.4330   34.6440   62.9560  S.3       1 <0>        -0.0046
      14  C10        11.9430   32.9030   62.9940  C.3       1 <0>        -0.0599
      15  C11        13.1530   32.0450   63.2580  C.2       1 <0>        -0.1277
      16  C12        13.0170   30.7520   63.4170  C.2       1 <0>        -0.1578
      17  C13        14.5210   32.6740   63.3390  C.3       1 <0>        -0.1209
@<TRIPOS>BOND
     1     1     2 1
     2     2     3 1
     3     3     4 1
     4     4     9 ar
     5     4     5 ar
     6     5     6 ar
     7     6     7 ar
     8     7    12 1
     9     7     8 ar
    10     8     9 ar
    11     8    10 1
    12    10    11 1
    13    11    12 2
    14    11    13 1
    15    13    14 1
    16    14    15 1
    17    15    16 2
    18    15    17 1

@<TRIPOS>MOLECULE
ZINC50328690_replica-1.pdb
 17 18 0 0 0
SMALL
GASTEIGER

@<TRIPOS>ATOM
       1  C1          3.9580   35.4680   58.9630  C.3       1 <0>        -0.1559
       2  C2          4.5360   34.1300   58.5010  C.3       1 <0>        -0.1501
       3  C3          5.6850   34.3800   57.5210  C.3       1 <0>        -0.0097
       4  N1          6.3720   35.6270   57.8790  N.4       1 <0>        -0.5070
       5  C4          7.8230   35.4450   57.7390  C.3       1 <0>         0.0853
       6  C5          8.4050   36.5990   56.9230  C.3       1 <0>        -0.1438
       7  C6          7.8530   37.9540   57.4270  C.3       1 <0>        -0.1735
       8  C7          7.6110   38.7210   56.1020  C.3       1 <0>         0.0481
       9  O1          7.1450   37.6950   55.1990  O.3       1 <0>        -0.3664
      10  C8          7.9320   36.5170   55.4580  C.3       1 <0>         0.0598
      11  C9          8.4600   35.4230   59.1050  C.2       1 <0>        -0.2019
      12  C10         9.7480   35.3280   59.2120  C.2       1 <0>        -0.0669
      13  C11        10.4010   35.3060   60.5770  C.3       1 <0>        -0.1031
      14  C12        10.3100   36.7060   61.1870  C.3       1 <0>        -0.1164
      15  C13         8.9850   36.8960   61.9030  C.3       1 <0>        -0.1255
      16  C14         7.7840   36.8910   60.9740  C.3       1 <0>        -0.1184
      17  C15         7.5940   35.5170   60.3410  C.3       1 <0>        -0.0824
@<TRIPOS>BOND
     1     1     2 1
     2     2     3 1
     3     3     4 1
     4     4     5 1
     5     5     6 1
     6     5    11 1
     7     6    10 1
     8     6     7 1
     9     7     8 1
    10     8     9 1
    11     9    10 1
    12    11    17 1
    13    11    12 2
    14    12    13 1
    15    13    14 1
    16    14    15 1
    17    15    16 1
    18    16    17 1

@<TRIPOS>MOLECULE
ZINC02451181_replica-1.pdb
 26 28 0 0 0
SMALL
GASTEIGER

@<TRIPOS>ATOM
       1  C1         13.1220   30.8900   63.6350  C.3       1 <0>        -0.1464
       2  C2         13.1950   32.3000   63.0450  C.3       1 <0>        -0.1121
       3  C3         11.7820   32.7910   62.7220  C.3       1 <0>        -0.1103
       4  S1         11.8740   34.4270   61.9510  S.3       1 <0>         0.0131
       5  C4         10.4790   34.3380   60.8790  C.ar      1 <0>         0.3582
       6  N1         10.2510   35.3480   60.0540  N.ar      1 <0>        -0.5791
       7  C5          9.2300   35.3940   59.2010  C.ar      1 <0>         0.5094
       8  C6          8.3580   34.2660   59.2080  C.ar      1 <0>        -0.2561
       9  C7          7.1820   34.0620   58.3840  C.2       1 <0>        -0.0584
      10  C8          6.5040   32.9030   58.5660  C.2       1 <0>        -0.2131
      11  S2          7.3910   32.0370   59.8330  S.3       1 <0>         0.1421
      12  C9          8.6680   33.2220   60.1180  C.ar      1 <0>         0.1504
      13  N2          9.7010   33.2540   60.9340  N.ar      1 <0>        -0.5081
      14  C10         5.2690   32.4750   57.8350  C.3       1 <0>         0.1449
      15  O1          5.1040   33.3380   56.6990  O.3       1 <0>        -0.3538
      16  C11         5.2270   34.7280   57.0170  C.3       1 <0>         0.1190
      17  C12         6.6830   35.0660   57.3470  C.3       1 <0>        -0.0925
      18  C13         4.3450   35.0470   58.2260  C.3       1 <0>        -0.1857
      19  C14         4.7700   35.5640   55.8200  C.3       1 <0>        -0.1105
      20  C15         4.3340   34.6350   54.6850  C.3       1 <0>        -0.1533
      21  N3          9.0280   36.4710   58.3560  N.pl3     1 <0>        -0.6815
      22  C16         8.7980   37.8050   58.9150  C.3       1 <0>         0.1513
      23  C17         7.9030   37.6920   60.1510  C.3       1 <0>        -0.1291
      24  C18         6.4360   37.8070   59.7300  C.3       1 <0>        -0.1552
      25  C19         8.1100   38.6850   57.8690  C.3       1 <0>         0.0619
      26  O2          9.0190   38.9520   56.7980  O.3       1 <0>        -0.5712
@<TRIPOS>BOND
     1     1     2 1
     2     2     3 1
     3     3     4 1
     4     4     5 1
     5     5    13 ar
     6     5     6 ar
     7     6     7 ar
     8     7     8 ar
     9     7    21 1
    10     8    12 ar
    11     8     9 1
    12     9    17 1
    13     9    10 2
    14    10    11 1
    15    10    14 1
    16    11    12 1
    17    12    13 ar
    18    14    15 1
    19    15    16 1
    20    16    17 1
    21    16    18 1
    22    16    19 1
    23    19    20 1
    24    21    22 1
    25    22    23 1
    26    22    25 1
    27    23    24 1
    28    25    26 1

@<TRIPOS>MOLECULE
ZINC62751960_replica-1.pdb
 19 20 0 0 0
SMALL
GASTEIGER

@<TRIPOS>ATOM
       1  C1          8.8310   36.9490   61.4010  C.3       1 <0>        -0.1541
       2  C2          9.0740   37.4700   59.9820  C.3       1 <0>        -0.1318
       3  C3          7.8540   38.2670   59.5160  C.3       1 <0>        -0.0783
       4  C4          8.2020   39.0290   58.2350  C.3       1 <0>        -0.1231
       5  C5          8.6080   38.0360   57.1450  C.3       1 <0>        -0.0967
       6  C6          7.4490   37.0770   56.8700  C.3       1 <0>        -0.2021
       7  C7          7.1020   36.3150   58.1500  C.3       1 <0>         0.0461
       8  C8          6.6940   37.3090   59.2400  C.3       1 <0>        -0.1329
       9  N1          5.9870   35.3950   57.8860  N.4       1 <0>        -0.3793
      10  C9          5.9050   34.4030   58.9650  C.3       1 <0>        -0.0097
      11  C10         7.2600   33.7110   59.1260  C.3       1 <0>        -0.1930
      12  C11         4.7310   36.1530   57.8200  C.3       1 <0>         0.0184
      13  C12         3.7100   35.5720   58.8200  C.3       1 <0>        -0.1534
      14  C13         2.3510   35.6900   58.0870  C.3       1 <0>        -0.1240
      15  C14         2.7240   35.3560   56.6210  C.3       1 <0>        -0.1221
      16  C15         4.1040   36.0160   56.4210  C.3       1 <0>        -0.1867
      17  C16         7.8490   36.0980   55.7960  C.2       1 <0>         0.4760
      18  O1          7.6120   36.3480   54.6260  O.co2     1 <0>        -0.6690
      19  O2          8.4080   35.0590   56.0960  O.co2     1 <0>        -0.6727
@<TRIPOS>BOND
     1     1     2 1
     2     2     3 1
     3     3     8 1
     4     3     4 1
     5     4     5 1
     6     5     6 1
     7     6     7 1
     8     6    17 1
     9     7     8 1
    10     7     9 1
    11     9    10 1
    12     9    12 1
    13    10    11 1
    14    12    16 1
    15    12    13 1
    16    13    14 1
    17    14    15 1
    18    15    16 1
    19    17    18 2
    20    17    19 1

@<TRIPOS>MOLECULE
ZINC12655184_replica-1.pdb
 24 25 0 0 0
SMALL
GASTEIGER

@<TRIPOS>ATOM
       1  C1         14.1470   32.5960   63.2680  C.3       1 <0>        -0.1535
       2  C2         12.8200   31.8750   63.0170  C.3       1 <0>        -0.1216
       3  C3         11.7000   32.9060   62.8700  C.3       1 <0>        -0.1329
       4  C4         12.2220   34.1200   62.0990  C.3       1 <0>         0.1348
       5  N1         11.1790   34.6110   61.1950  N.am      1 <0>        -0.7106
       6  C5         10.6580   35.8410   61.3710  C.2       1 <0>         0.6445
       7  O1         11.0540   36.5440   62.2810  O.2       1 <0>        -0.5719
       8  O2          9.6990   36.2910   60.5420  O.3       1 <0>        -0.3627
       9  C6          8.3550   35.7820   60.7470  C.3       1 <0>         0.0959
      10  C7          7.7000   35.5070   59.3890  C.3       1 <0>        -0.0733
      11  C8          6.5530   34.5320   59.5940  C.3       1 <0>         0.0784
      12  O3          5.8500   34.3090   58.3820  O.3       1 <0>        -0.3586
      13  C9          5.3350   35.4500   57.7110  C.3       1 <0>         0.1040
      14  C10         6.3930   36.5390   57.5520  C.3       1 <0>        -0.0665
      15  C11         7.1500   36.8340   58.8440  C.3       1 <0>        -0.0766
      16  C12         6.3210   37.5680   59.8840  C.3       1 <0>        -0.1574
      17  C13         7.4230   35.9830   56.5820  C.2       1 <0>        -0.1271
      18  C14         8.4470   35.3110   56.9970  C.2       1 <0>        -0.1409
      19  C15         8.7680   35.0070   58.4280  C.3       1 <0>        -0.0360
      20  C16         9.0000   33.5080   58.5910  C.3       1 <0>        -0.1437
      21  C17         7.2410   36.2320   55.1130  C.3       1 <0>        -0.1170
      22  C18         4.0540   35.9600   58.3650  C.3       1 <0>        -0.1488
      23  C19         2.9610   36.0990   57.3040  C.3       1 <0>        -0.1191
      24  C20         3.2860   35.1930   56.1150  C.3       1 <0>        -0.1533
@<TRIPOS>BOND
     1     1     2 1
     2     2     3 1
     3     3     4 1
     4     4     5 1
     5     5     6 am
     6     6     7 2
     7     6     8 1
     8     8     9 1
     9     9    10 1
    10    10    15 1
    11    10    19 1
    12    10    11 1
    13    11    12 1
    14    12    13 1
    15    13    14 1
    16    13    22 1
    17    14    15 1
    18    14    17 1
    19    15    16 1
    20    17    18 2
    21    17    21 1
    22    18    19 1
    23    19    20 1
    24    22    23 1
    25    23    24 1

@<TRIPOS>MOLECULE
ZINC65575983_replica-1.pdb
 22 23 0 0 0
SMALL
GASTEIGER

@<TRIPOS>ATOM
       1  C1         11.7870   32.7330   62.7720  C.3       1 <0>        -0.1526
       2  C2         12.4060   34.0980   63.0780  C.3       1 <0>        -0.1266
       3  C3         11.8550   35.1390   62.1020  C.3       1 <0>        -0.1181
       4  C4         11.0330   34.4390   61.0190  C.3       1 <0>        -0.1122
       5  C5         10.2330   35.4780   60.2320  C.3       1 <0>        -0.0961
       6  C6         10.1470   36.7950   61.0330  C.3       1 <0>        -0.1170
       7  C7          8.7210   37.3240   60.7410  C.3       1 <0>        -0.1247
       8  C8          7.8730   36.0280   60.7180  C.3       1 <0>        -0.1365
       9  C9          8.7880   34.9910   60.0310  C.3       1 <0>         0.1481
      10  N1          8.4770   34.9150   58.6010  N.am      1 <0>        -0.7269
      11  C10         8.3730   33.7150   57.9970  C.2       1 <0>         0.5062
      12  O1          8.5360   32.6970   58.6370  O.2       1 <0>        -0.5089
      13  C11         8.0540   33.6370   56.5270  C.3       1 <0>         0.1042
      14  N2          6.7900   34.3290   56.2630  N.pl3     1 <0>        -0.4772
      15  C12         6.6290   35.5830   55.7400  C.2       1 <0>         0.1288
      16  N3          5.3480   35.8110   55.6700  N.2       1 <0>        -0.2978
      17  N4          4.6940   34.7950   56.1090  N.2       1 <0>        -0.3474
      18  C13         5.5290   33.8530   56.4800  C.2       1 <0>         0.3824
      19  S1          5.1040   32.2760   57.1410  S.3       1 <0>        -0.8169
      20  C14         7.7280   36.5260   55.3250  C.3       1 <0>        -0.0154
      21  C15         7.4890   37.8980   55.9580  C.3       1 <0>        -0.1197
      22  C16         8.5420   38.1520   57.0380  C.3       1 <0>        -0.1467
@<TRIPOS>BOND
     1     1     2 1
     2     2     3 1
     3     3     4 1
     4     4     5 1
     5     5     9 1
     6     5     6 1
     7     6     7 1
     8     7     8 1
     9     8     9 1
    10     9    10 1
    11    10    11 am
    12    11    12 2
    13    11    13 1
    14    13    14 1
    15    14    18 1
    16    14    15 1
    17    15    16 2
    18    15    20 1
    19    16    17 1
    20    17    18 2
    21    18    19 1
    22    20    21 1
    23    21    22 1

@<TRIPOS>MOLECULE
ZINC40805898_replica-1.pdb
 24 27 0 0 0
SMALL
GASTEIGER

@<TRIPOS>ATOM
       1  C1         15.0280   33.5680   63.6630  C.3       1 <0>        -0.1139
       2  C2         13.6520   33.3950   63.0730  C.ar      1 <0>        -0.0649
       3  C3         12.9230   32.2410   63.3250  C.ar      1 <0>        -0.1064
       4  C4         11.6700   32.0580   62.8010  C.ar      1 <0>        -0.0589
       5  C5         11.0770   33.0470   61.9830  C.ar      1 <0>         0.0944
       6  C6         11.8480   34.2090   61.7490  C.ar      1 <0>        -0.1424
       7  C7         13.1010   34.3850   62.2830  C.ar      1 <0>        -0.0646
       8  S1         10.7770   35.1710   60.7090  S.3       1 <0>         0.0141
       9  C8          9.4180   34.0120   60.6520  C.2       1 <0>         0.3703
      10  N1          9.8620   33.0240   61.3950  N.2       1 <0>        -0.5030
      11  N2          8.2070   34.1260   59.9930  N.am      1 <0>        -0.6054
      12  C9          7.4310   35.2100   60.1940  C.2       1 <0>         0.5906
      13  O1          7.7500   36.0420   61.0230  O.2       1 <0>        -0.4674
      14  C10         6.2050   35.3870   59.4130  C.2       1 <0>        -0.0009
      15  C11         4.9190   35.2470   59.8880  C.2       1 <0>        -0.0867
      16  C12         4.0580   35.4990   58.8320  C.2       1 <0>        -0.1923
      17  C13         4.8060   35.8000   57.6870  C.2       1 <0>         0.0590
      18  N3          6.1410   35.7270   58.0780  N.pl3     1 <0>        -0.3907
      19  C14         7.2940   35.9720   57.2090  C.3       1 <0>         0.1039
      20  C15         7.2890   34.9620   56.0590  C.3       1 <0>        -0.1643
      21  C16         7.2150   37.3910   56.6420  C.3       1 <0>        -0.1608
      22  C17         4.0660   36.0790   56.5310  C.2       1 <0>        -0.1420
      23  C18         2.7160   36.0490   56.5660  C.2       1 <0>        -0.1432
      24  S2          2.3810   35.6160   58.2640  S.3       1 <0>         0.0826
@<TRIPOS>BOND
     1     1     2 1
     2     2     7 ar
     3     2     3 ar
     4     3     4 ar
     5     4     5 ar
     6     5    10 1
     7     5     6 ar
     8     6     7 ar
     9     6     8 1
    10     8     9 1
    11     9    10 2
    12     9    11 1
    13    11    12 am
    14    12    13 2
    15    12    14 1
    16    14    18 1
    17    14    15 2
    18    15    16 1
    19    16    24 1
    20    16    17 2
    21    17    18 1
    22    17    22 1
    23    18    19 1
    24    19    20 1
    25    19    21 1
    26    22    23 2
    27    23    24 1

@<TRIPOS>MOLECULE
ZINC39457090_replica-1.pdb
 24 27 0 0 0
SMALL
GASTEIGER

@<TRIPOS>ATOM
       1  C1          4.8930   32.2490   57.1850  C.3       1 <0>        -0.0888
       2  C2          6.1120   33.0820   57.4870  C.2       1 <0>         0.0302
       3  C3          6.7070   33.9530   56.6350  C.2       1 <0>         0.0407
       4  C4          7.7970   34.5210   57.2990  C.2       1 <0>        -0.1345
       5  C5          7.8280   33.9780   58.5600  C.2       1 <0>         0.0666
       6  N1          6.7990   33.0910   58.6680  N.pl3     1 <0>        -0.4256
       7  S1          6.4440   32.1750   60.0020  S.3       1 <0>         0.1515
       8  C6          7.3400   30.6240   59.7190  C.3       1 <0>        -0.1835
       9  C7          8.8260   34.3790   59.5690  C.ar      1 <0>         0.2843
      10  C8          9.0790   35.8220   59.7010  C.ar      1 <0>        -0.2265
      11  C9         10.0380   36.2550   60.6080  C.ar      1 <0>         0.2012
      12  C10        10.7070   35.2760   61.3750  C.ar      1 <0>        -0.1264
      13  C11        11.6900   35.6500   62.3050  C.ar      1 <0>        -0.0870
      14  C12        12.3150   34.6960   63.0490  C.ar      1 <0>        -0.1073
      15  C13        11.9920   33.3500   62.8990  C.ar      1 <0>        -0.0830
      16  C14        11.0490   32.9500   62.0020  C.ar      1 <0>        -0.0920
      17  C15        10.3850   33.9060   61.2110  C.ar      1 <0>         0.1587
      18  N2          9.4680   33.5110   60.3160  N.ar      1 <0>        -0.4493
      19  F1         10.3230   37.5680   60.7490  F         1 <0>        -0.1064
      20  C16         8.2920   36.7420   58.8880  C.2       1 <0>         0.4131
      21  O1          7.4080   37.3900   59.4090  O.2       1 <0>        -0.4276
      22  C17         8.5570   36.9040   57.4080  C.3       1 <0>        -0.1528
      23  C18         8.7870   35.5240   56.7790  C.3       1 <0>        -0.0492
      24  F2          6.3160   34.2240   55.3710  F         1 <0>        -0.1156
@<TRIPOS>BOND
     1     1     2 1
     2     2     6 1
     3     2     3 2
     4     3     4 1
     5     3    24 1
     6     4    23 1
     7     4     5 2
     8     5     6 1
     9     5     9 1
    10     6     7 1
    11     7     8 1
    12     9    18 ar
    13     9    10 ar
    14    10    11 ar
    15    10    20 1
    16    11    12 ar
    17    11    19 1
    18    12    17 ar
    19    12    13 ar
    20    13    14 ar
    21    14    15 ar
    22    15    16 ar
    23    16    17 ar
    24    17    18 ar
    25    20    21 2
    26    20    22 1
    27    22    23 1

@<TRIPOS>MOLECULE
ZINC22325589_replica-1.pdb
 24 25 0 0 0
SMALL
GASTEIGER

@<TRIPOS>ATOM
       1  C1         14.4920   32.8600   63.1260  C.3       1 <0>        -0.1554
       2  C2         13.3440   33.7400   62.6280  C.3       1 <0>        -0.1284
       3  C3         12.0350   32.9490   62.6800  C.3       1 <0>        -0.1152
       4  C4         10.9160   33.7720   62.0390  C.3       1 <0>        -0.0828
       5  C5         11.5240   34.8560   61.1430  C.3       1 <0>        -0.1133
       6  C6         10.4340   35.8320   60.6960  C.3       1 <0>        -0.0635
       7  C7          9.2840   35.0390   60.0900  C.2       1 <0>        -0.0593
       8  C8          9.1460   33.7180   60.3310  C.2       1 <0>        -0.2085
       9  S1          7.6970   33.2410   59.4330  S.3       1 <0>         0.2370
      10  C9          7.2760   34.7750   58.7460  C.2       1 <0>         0.0919
      11  C10         8.2710   35.6190   59.2220  C.2       1 <0>        -0.2162
      12  C11         8.2970   37.0390   58.8680  C.2       1 <0>         0.5334
      13  O1          7.8100   37.8620   59.6200  O.2       1 <0>        -0.4955
      14  O2          8.8610   37.4340   57.7080  O.3       1 <0>        -0.3506
      15  C12         8.1770   38.4780   56.9650  C.3       1 <0>         0.0557
      16  C13         7.3860   37.8490   55.8150  C.3       1 <0>        -0.1551
      17  N1          6.2100   35.0830   57.9170  N.am      1 <0>        -0.6307
      18  C14         5.0060   35.3730   58.4480  C.2       1 <0>         0.5551
      19  O3          4.8550   35.3640   59.6550  O.2       1 <0>        -0.5055
      20  C15         3.8740   35.7010   57.5690  C.2       1 <0>        -0.1999
      21  C16         2.6360   35.7100   58.0540  C.2       1 <0>        -0.0501
      22  C17         1.4750   36.0450   57.1530  C.3       1 <0>        -0.1393
      23  C18         4.1170   36.0260   56.1180  C.3       1 <0>        -0.1303
      24  C19        10.0340   32.8570   61.1770  C.3       1 <0>        -0.0303
@<TRIPOS>BOND
     1     1     2 1
     2     2     3 1
     3     3     4 1
     4     4    24 1
     5     4     5 1
     6     5     6 1
     7     6     7 1
     8     7    11 1
     9     7     8 2
    10     8     9 1
    11     8    24 1
    12     9    10 1
    13    10    11 2
    14    10    17 1
    15    11    12 1
    16    12    13 2
    17    12    14 1
    18    14    15 1
    19    15    16 1
    20    17    18 am
    21    18    19 2
    22    18    20 1
    23    20    21 2
    24    20    23 1
    25    21    22 1

@<TRIPOS>MOLECULE
ZINC03474616_replica-1.pdb
 25 26 0 0 0
SMALL
GASTEIGER

@<TRIPOS>ATOM
       1  C1          2.3910   35.7830   58.3220  C.3       1 <0>        -0.1542
       2  C2          2.0650   35.7990   56.8270  C.3       1 <0>        -0.1260
       3  C3          3.0350   34.8800   56.0830  C.3       1 <0>        -0.1284
       4  C4          2.8950   33.4530   56.6150  C.3       1 <0>         0.1422
       5  C5          4.2700   32.7810   56.6450  C.3       1 <0>        -0.1660
       6  N1          1.9990   32.6920   55.7410  N.am      1 <0>        -0.7204
       7  C6          0.7810   32.3190   56.1840  C.2       1 <0>         0.5162
       8  O1          0.4290   32.6140   57.3060  O.2       1 <0>        -0.5108
       9  C7         -0.1410   31.5370   55.2850  C.3       1 <0>         0.0431
      10  O2          0.3120   30.1600   55.2080  O.3       1 <0>        -0.3199
      11  C8         -0.6250   29.2010   55.3350  C.2       1 <0>         0.5233
      12  O3         -1.6300   29.4140   55.9830  O.2       1 <0>        -0.4825
      13  C9         -0.4300   27.8870   54.6870  C.ar      1 <0>        -0.0533
      14  C10         0.1830   26.8380   55.3610  C.ar      1 <0>        -0.0801
      15  C11         0.3520   25.6140   54.7190  C.ar      1 <0>         0.1657
      16  N2         -0.0540   25.4150   53.4890  N.ar      1 <0>        -0.4501
      17  C12        -0.6500   26.3770   52.7800  C.ar      1 <0>         0.1303
      18  C13        -0.8620   27.6530   53.3560  C.ar      1 <0>        -0.0670
      19  C14        -1.4880   28.6590   52.6070  C.ar      1 <0>        -0.1053
      20  C15        -1.8880   28.3980   51.3300  C.ar      1 <0>        -0.0989
      21  C16        -1.6820   27.1420   50.7600  C.ar      1 <0>        -0.1003
      22  C17        -1.0780   26.1440   51.4600  C.ar      1 <0>        -0.0837
      23  C18         1.0190   24.4830   55.4610  C.3       1 <0>        -0.0809
      24  C19         0.5280   23.1470   54.9020  C.3       1 <0>        -0.1462
      25  C20         0.6630   27.0230   56.7780  C.3       1 <0>        -0.1254
@<TRIPOS>BOND
     1     1     2 1
     2     2     3 1
     3     3     4 1
     4     4     5 1
     5     4     6 1
     6     6     7 am
     7     7     8 2
     8     7     9 1
     9     9    10 1
    10    10    11 1
    11    11    12 2
    12    11    13 1
    13    13    18 ar
    14    13    14 ar
    15    14    15 ar
    16    14    25 1
    17    15    16 ar
    18    15    23 1
    19    16    17 ar
    20    17    22 ar
    21    17    18 ar
    22    18    19 ar
    23    19    20 ar
    24    20    21 ar
    25    21    22 ar
    26    23    24 1

@<TRIPOS>MOLECULE
ZINC04023380_replica-1.pdb
 23 24 0 0 0
SMALL
GASTEIGER

@<TRIPOS>ATOM
       1  C1         11.9730   34.7110   61.9860  C.3       1 <0>        -0.1533
       2  C2         10.8730   35.6750   61.5390  C.3       1 <0>        -0.1191
       3  C3         10.4240   35.3150   60.1220  C.3       1 <0>        -0.1491
       4  C4          9.2980   36.2510   59.6910  C.3       1 <0>         0.1052
       5  C5          8.8470   36.0060   58.2550  C.3       1 <0>        -0.0670
       6  C6          7.8920   34.8190   58.1220  C.3       1 <0>        -0.0738
       7  C7          6.7460   35.0160   59.1140  C.3       1 <0>        -0.0775
       8  C8          7.3000   35.1450   60.5290  C.3       1 <0>         0.0777
       9  O1          8.2160   36.2250   60.6080  O.3       1 <0>        -0.3618
      10  C9          5.9400   36.2520   58.7300  C.3       1 <0>        -0.0376
      11  C10         6.7710   37.3010   58.0600  C.2       1 <0>        -0.1386
      12  C11         8.0430   37.2260   57.8380  C.2       1 <0>        -0.1276
      13  C12         8.7490   38.3580   57.1500  C.3       1 <0>        -0.1166
      14  C13         4.8020   35.8380   57.7940  C.3       1 <0>        -0.1503
      15  C14         5.8280   33.7930   59.0590  C.3       1 <0>         0.0937
      16  O2          5.4680   33.3960   60.4080  O.3       1 <0>        -0.3649
      17  C15         4.2130   32.9480   60.6000  C.2       1 <0>         0.6452
      18  O3          4.0100   31.7610   60.7630  O.2       1 <0>        -0.5711
      19  N1          3.1810   33.8160   60.6100  N.am      1 <0>        -0.7108
      20  C16         1.8160   33.3280   60.8190  C.3       1 <0>         0.1343
      21  C17         0.8190   34.3700   60.3070  C.3       1 <0>        -0.1365
      22  C18         1.4270   35.1150   59.1180  C.3       1 <0>        -0.1505
      23  C19         8.5770   33.4740   58.3110  C.3       1 <0>        -0.1580
@<TRIPOS>BOND
     1     1     2 1
     2     2     3 1
     3     3     4 1
     4     4     9 1
     5     4     5 1
     6     5    12 1
     7     5     6 1
     8     6     7 1
     9     6    23 1
    10     7     8 1
    11     7    10 1
    12     7    15 1
    13     8     9 1
    14    10    11 1
    15    10    14 1
    16    11    12 2
    17    12    13 1
    18    15    16 1
    19    16    17 1
    20    17    18 2
    21    17    19 am
    22    19    20 1
    23    20    21 1
    24    21    22 1

@<TRIPOS>MOLECULE
ZINC44271780_replica-1.pdb
 20 21 0 0 0
SMALL
GASTEIGER

@<TRIPOS>ATOM
       1  C1          9.3040   36.7670   61.8860  C.3       1 <0>        -0.1470
       2  C2         10.7730   36.3670   61.7400  C.3       1 <0>        -0.0972
       3  C3         11.5410   36.7790   62.9980  C.3       1 <0>        -0.1497
       4  C4         10.8740   34.8510   61.5560  C.3       1 <0>         0.2452
       5  C5         10.0010   34.4260   60.4030  C.2       1 <0>        -0.1656
       6  C6          9.8920   34.9740   59.1690  C.2       1 <0>        -0.1474
       7  C7          9.0160   34.4090   58.2600  C.2       1 <0>        -0.1584
       8  C8          8.2940   33.3240   58.6310  C.2       1 <0>        -0.1736
       9  S1          8.8510   33.0640   60.3070  S.3       1 <0>         0.0570
      10  N1         12.2650   34.4840   61.2770  N.pl3     1 <0>        -0.7137
      11  C9         12.9640   33.6790   62.1680  C.ar      1 <0>         0.4146
      12  C10        14.2200   34.0760   62.6170  C.ar      1 <0>        -0.2031
      13  C11        14.9040   33.2650   63.5040  C.ar      1 <0>        -0.0304
      14  C12        14.3070   32.0810   63.9150  C.ar      1 <0>        -0.1802
      15  C13        13.0590   31.7490   63.4310  C.ar      1 <0>         0.0888
      16  N2         12.4260   32.5450   62.5880  N.ar      1 <0>        -0.5061
      17  C14        12.4060   30.4650   63.8720  C.3       1 <0>         0.5221
      18  F1         12.9310   29.3980   63.1350  F         1 <0>        -0.1703
      19  F2         12.6540   30.2590   65.2330  F         1 <0>        -0.1647
      20  F3         11.0250   30.5450   63.6580  F         1 <0>        -0.1702
@<TRIPOS>BOND
     1     1     2 1
     2     2     3 1
     3     2     4 1
     4     4     5 1
     5     4    10 1
     6     5     9 1
     7     5     6 2
     8     6     7 1
     9     7     8 2
    10     8     9 1
    11    10    11 1
    12    11    16 ar
    13    11    12 ar
    14    12    13 ar
    15    13    14 ar
    16    14    15 ar
    17    15    16 ar
    18    15    17 1
    19    17    18 1
    20    17    19 1
    21    17    20 1

@<TRIPOS>MOLECULE
ZINC02413003_replica-1.pdb
 25 27 0 0 0
SMALL
GASTEIGER

@<TRIPOS>ATOM
       1  C1         12.6270   31.4800   63.3100  C.3       1 <0>        -0.1537
       2  C2         13.9050   32.3100   63.1800  C.3       1 <0>        -0.1176
       3  C3         13.5640   33.6840   62.5970  C.3       1 <0>        -0.1085
       4  C4         12.0540   33.7850   62.3790  C.3       1 <0>        -0.1110
       5  S1         11.5910   35.5200   62.1520  S.3       1 <0>         0.0208
       6  C5         10.2470   35.3350   61.0280  C.ar      1 <0>         0.3626
       7  N1          9.5500   36.4040   60.6650  N.ar      1 <0>        -0.5710
       8  C6          8.5290   36.3270   59.8280  C.ar      1 <0>         0.5008
       9  C7          8.1670   35.0610   59.2860  C.ar      1 <0>        -0.2529
      10  C8          7.0910   34.7390   58.3510  C.2       1 <0>        -0.0599
      11  C9          6.9580   33.4440   57.9890  C.2       1 <0>        -0.2078
      12  S2          8.2400   32.5880   58.8610  S.3       1 <0>         0.1404
      13  C10         8.9540   33.9720   59.7110  C.ar      1 <0>         0.1625
      14  N2          9.9560   34.1300   60.5550  N.ar      1 <0>        -0.5272
      15  C11         5.9330   32.8880   57.0500  C.3       1 <0>         0.1448
      16  O1          4.9270   33.8930   56.8480  O.3       1 <0>        -0.3538
      17  C12         5.4630   35.1820   56.5400  C.3       1 <0>         0.1189
      18  C13         6.1360   35.7830   57.7770  C.3       1 <0>        -0.0938
      19  C14         6.4940   35.0470   55.4170  C.3       1 <0>        -0.1851
      20  C15         4.3340   36.1050   56.0790  C.3       1 <0>        -0.1103
      21  C16         3.0400   35.7270   56.8040  C.3       1 <0>        -0.1523
      22  N3          7.8240   37.4640   59.4790  N.pl3     1 <0>        -0.6975
      23  C17         8.5180   38.5940   58.8560  C.3       1 <0>         0.0834
      24  C18         8.0530   38.7420   57.4070  C.3       1 <0>         0.0611
      25  O2          9.1820   38.9900   56.5660  O.3       1 <0>        -0.5676
@<TRIPOS>BOND
     1     1     2 1
     2     2     3 1
     3     3     4 1
     4     4     5 1
     5     5     6 1
     6     6    14 ar
     7     6     7 ar
     8     7     8 ar
     9     8     9 ar
    10     8    22 1
    11     9    13 ar
    12     9    10 1
    13    10    18 1
    14    10    11 2
    15    11    12 1
    16    11    15 1
    17    12    13 1
    18    13    14 ar
    19    15    16 1
    20    16    17 1
    21    17    18 1
    22    17    19 1
    23    17    20 1
    24    20    21 1
    25    22    23 1
    26    23    24 1
    27    24    25 1

@<TRIPOS>MOLECULE
ZINC50833384_replica-1.pdb
 18 19 0 0 0
SMALL
GASTEIGER

@<TRIPOS>ATOM
       1  C1          8.2660   38.3660   56.9050  C.3       1 <0>        -0.1511
       2  C2          7.2290   38.1430   55.8030  C.3       1 <0>        -0.1351
       3  C3          7.4160   36.7490   55.2010  C.3       1 <0>         0.1098
       4  N1          6.8700   35.7450   56.1160  N.pl3     1 <0>        -0.6690
       5  C4          5.5210   35.7790   56.4630  C.2       1 <0>         0.1117
       6  C5          4.9550   35.9490   57.6950  C.2       1 <0>        -0.0999
       7  N2          3.6410   35.9420   57.7370  N.2       1 <0>        -0.1849
       8  N3          2.9770   35.7800   56.6430  N.2       1 <0>        -0.2454
       9  S1          4.1700   35.6330   55.4750  S.3       1 <0>         0.2617
      10  C6          5.7890   36.1320   58.9350  C.3       1 <0>         0.1551
      11  O1          6.7040   35.0420   59.0600  O.3       1 <0>        -0.3766
      12  C7          7.8710   35.3470   59.8270  C.3       1 <0>         0.0928
      13  C8          9.0720   35.3980   58.9220  C.3       1 <0>        -0.1402
      14  C9         10.3540   34.8980   59.6150  C.3       1 <0>        -0.1158
      15  C10        10.4850   35.4010   61.0650  C.3       1 <0>        -0.1231
      16  C11        10.0880   36.8450   61.2110  C.3       1 <0>        -0.1210
      17  C12         8.6040   36.9060   61.6270  C.3       1 <0>        -0.1179
      18  C13         7.7040   36.7260   60.4980  C.3       1 <0>        -0.1140
@<TRIPOS>BOND
     1     1     2 1
     2     2     3 1
     3     3     4 1
     4     4     5 1
     5     5     9 1
     6     5     6 2
     7     6     7 1
     8     6    10 1
     9     7     8 2
    10     8     9 1
    11    10    11 1
    12    11    12 1
    13    12    18 1
    14    12    13 1
    15    13    14 1
    16    14    15 1
    17    15    16 1
    18    16    17 1
    19    17    18 1

@<TRIPOS>MOLECULE
ZINC66540792_replica-1.pdb
 22 22 0 0 0
SMALL
GASTEIGER

@<TRIPOS>ATOM
       1  C1         14.6440   33.1810   63.1420  C.3       1 <0>        -0.1534
       2  C2         13.2760   33.8630   63.0770  C.3       1 <0>         0.0801
       3  O1         12.2960   32.9240   62.6270  O.3       1 <0>        -0.3668
       4  C3         11.2150   33.4220   61.9970  C.2       1 <0>         0.6477
       5  O2         10.2110   32.7460   61.8870  O.2       1 <0>        -0.5691
       6  N1         11.2470   34.6700   61.4900  N.am      1 <0>        -0.7062
       7  C4         10.0710   35.2120   60.8050  C.3       1 <0>         0.1594
       8  C5         10.1550   34.8870   59.3130  C.3       1 <0>        -0.1291
       9  C6          8.9270   35.4540   58.5970  C.3       1 <0>        -0.1117
      10  C7          8.8810   36.9710   58.7870  C.3       1 <0>         0.0864
      11  C8          8.7980   37.2970   60.2800  C.3       1 <0>        -0.1328
      12  C9         10.0260   36.7310   60.9950  C.3       1 <0>        -0.1230
      13  O3          7.7340   37.5000   58.1190  O.3       1 <0>        -0.3415
      14  C10         7.9560   38.2340   57.0170  C.2       1 <0>         0.4786
      15  O4          8.8260   39.0730   57.0140  O.2       1 <0>        -0.4808
      16  C11         7.1190   38.0120   55.7830  C.3       1 <0>        -0.1052
      17  S1          7.4980   36.3830   55.0800  S.3       1 <0>        -0.1875
      18  C12         6.0190   35.3960   55.4390  C.3       1 <0>        -0.1018
      19  C13         4.9020   36.3130   55.9410  C.3       1 <0>        -0.0987
      20  C14         4.0950   35.5890   57.0190  C.3       1 <0>        -0.0911
      21  C15         4.6950   35.8910   58.3950  C.3       1 <0>        -0.1489
      22  C16         2.6430   36.0700   56.9790  C.3       1 <0>        -0.1522
@<TRIPOS>BOND
     1     1     2 1
     2     2     3 1
     3     3     4 1
     4     4     5 2
     5     4     6 am
     6     6     7 1
     7     7    12 1
     8     7     8 1
     9     8     9 1
    10     9    10 1
    11    10    11 1
    12    10    13 1
    13    11    12 1
    14    13    14 1
    15    14    15 2
    16    14    16 1
    17    16    17 1
    18    17    18 1
    19    18    19 1
    20    19    20 1
    21    20    21 1
    22    20    22 1

@<TRIPOS>MOLECULE
ZINC25344955_replica-1.pdb
 26 27 0 0 0
SMALL
GASTEIGER

@<TRIPOS>ATOM
       1  C1          0.1940   29.7520   56.9900  C.3       1 <0>        -0.1645
       2  C2          0.2250   30.8010   55.8760  C.3       1 <0>         0.1411
       3  C3          0.0360   30.1130   54.5220  C.3       1 <0>        -0.1260
       4  C4         -0.8360   28.8690   54.6990  C.3       1 <0>        -0.1241
       5  C5         -1.1470   28.2650   53.3290  C.3       1 <0>        -0.1135
       6  C6         -0.1240   27.1720   53.0090  C.3       1 <0>        -0.0988
       7  C7          0.2510   26.4320   54.2950  C.3       1 <0>        -0.1508
       8  C8         -0.7290   26.1830   52.0100  C.3       1 <0>        -0.1475
       9  N1          1.5160   31.4940   55.8950  N.am      1 <0>        -0.7225
      10  C9          1.6220   32.7020   56.4830  C.2       1 <0>         0.5631
      11  O1          0.6480   33.2160   56.9980  O.2       1 <0>        -0.5326
      12  C10         2.9260   33.4050   56.5030  C.ar      1 <0>        -0.0918
      13  C11         3.5180   33.8040   55.2980  C.ar      1 <0>        -0.1573
      14  C12         4.7200   34.4520   55.2950  C.ar      1 <0>        -0.0295
      15  C13         5.3660   34.7210   56.5010  C.ar      1 <0>        -0.2233
      16  C14         4.7820   34.3250   57.7250  C.ar      1 <0>         0.1995
      17  C15         3.5490   33.6660   57.7150  C.ar      1 <0>        -0.0699
      18  N2          5.4290   34.5970   58.8830  N.2       1 <0>        -0.5601
      19  C16         6.5830   35.2180   58.8950  C.2       1 <0>         0.5337
      20  S1          7.3530   35.5300   60.4490  S.3       1 <0>        -0.7614
      21  N3          7.2160   35.6350   57.7590  N.am      1 <0>        -0.5339
      22  C17         6.6620   35.4160   56.5440  C.2       1 <0>         0.5489
      23  O2          7.2160   35.7820   55.5240  O.2       1 <0>        -0.5362
      24  C18         8.5050   36.3240   57.8570  C.3       1 <0>         0.1242
      25  C19         8.2720   37.8010   58.0540  C.2       1 <0>        -0.1441
      26  C20         8.5320   38.6400   57.0820  C.2       1 <0>        -0.1899
@<TRIPOS>BOND
     1     1     2 1
     2     2     3 1
     3     2     9 1
     4     3     4 1
     5     4     5 1
     6     5     6 1
     7     6     7 1
     8     6     8 1
     9     9    10 am
    10    10    11 2
    11    10    12 1
    12    12    17 ar
    13    12    13 ar
    14    13    14 ar
    15    14    15 ar
    16    15    22 1
    17    15    16 ar
    18    16    17 ar
    19    16    18 1
    20    18    19 2
    21    19    20 1
    22    19    21 1
    23    21    22 am
    24    21    24 1
    25    22    23 2
    26    24    25 1
    27    25    26 2

@<TRIPOS>MOLECULE
ZINC21529547_replica-1.pdb
 23 25 0 0 0
SMALL
GASTEIGER

@<TRIPOS>ATOM
       1  C1          1.4430   31.9600   56.4360  C.3       1 <0>        -0.1508
       2  C2          1.6380   32.6680   57.7780  C.3       1 <0>        -0.0940
       3  C3          1.7210   34.1790   57.5490  C.3       1 <0>        -0.1155
       4  C4          1.9160   34.8880   58.8910  C.3       1 <0>        -0.1292
       5  C5          3.2110   34.3980   59.5430  C.3       1 <0>         0.1473
       6  C6          3.1270   32.8870   59.7720  C.3       1 <0>        -0.1320
       7  C7          2.9320   32.1790   58.4300  C.3       1 <0>        -0.1139
       8  N1          4.3440   34.6980   58.6650  N.am      1 <0>        -0.7263
       9  C8          4.9480   35.9000   58.7310  C.2       1 <0>         0.5802
      10  O1          4.5530   36.7360   59.5180  O.2       1 <0>        -0.5164
      11  C9          6.0910   36.2010   57.8450  C.2       1 <0>        -0.1638
      12  C10         6.0620   36.2820   56.5070  C.2       1 <0>        -0.1039
      13  C11         7.4080   36.6030   56.0100  C.2       1 <0>         0.4981
      14  O2          7.7040   36.7470   54.8410  O.2       1 <0>        -0.4359
      15  O3          8.2630   36.7090   57.0400  O.3       1 <0>        -0.3040
      16  C12         7.5200   36.4690   58.2770  C.3       1 <0>         0.1454
      17  C13         8.0720   35.1650   58.9010  C.3       1 <0>        -0.1153
      18  C14         9.5730   35.1880   58.8330  C.3       1 <0>        -0.1261
      19  C15        10.2200   35.7360   60.1220  C.3       1 <0>        -0.1202
      20  C16         9.4820   36.9660   60.6840  C.3       1 <0>        -0.1255
      21  C17         9.0640   37.9220   59.5990  C.3       1 <0>        -0.1205
      22  C18         7.6140   37.5970   59.1980  C.3       1 <0>        -0.1233
      23  C19         4.8400   36.0790   55.6470  C.3       1 <0>        -0.1014
@<TRIPOS>BOND
     1     1     2 1
     2     2     7 1
     3     2     3 1
     4     3     4 1
     5     4     5 1
     6     5     6 1
     7     5     8 1
     8     6     7 1
     9     8     9 am
    10     9    10 2
    11     9    11 1
    12    11    16 1
    13    11    12 2
    14    12    13 1
    15    12    23 1
    16    13    14 2
    17    13    15 1
    18    15    16 1
    19    16    22 1
    20    16    17 1
    21    17    18 1
    22    18    19 1
    23    19    20 1
    24    20    21 1
    25    21    22 1

@<TRIPOS>MOLECULE
ZINC51689643_replica-1.pdb
 26 27 0 0 0
SMALL
GASTEIGER

@<TRIPOS>ATOM
       1  C1         13.3910   31.8030   63.2200  C.3       1 <0>        -0.1535
       2  C2         14.4470   32.8970   63.0520  C.3       1 <0>        -0.1218
       3  C3         13.8370   34.0840   62.3020  C.3       1 <0>        -0.1330
       4  C4         12.5050   34.4660   62.9510  C.3       1 <0>         0.1168
       5  N1         11.6520   35.1280   61.9600  N.am      1 <0>        -0.7308
       6  C5         10.7060   34.4240   61.3070  C.2       1 <0>         0.5204
       7  O1         10.5610   33.2420   61.5390  O.2       1 <0>        -0.5338
       8  C6          9.8290   35.1050   60.2880  C.3       1 <0>        -0.1230
       9  C7          9.8580   36.6170   60.5200  C.3       1 <0>        -0.0995
      10  C8          8.9950   37.3140   59.4660  C.3       1 <0>        -0.1349
      11  C9          7.5470   36.8310   59.5990  C.3       1 <0>         0.1081
      12  N2          7.5280   35.3640   59.5220  N.am      1 <0>        -0.6268
      13  C10         8.3910   34.5970   60.4300  C.3       1 <0>         0.1418
      14  C11         6.7330   34.7330   58.6350  C.2       1 <0>         0.7130
      15  O2          6.7960   33.5240   58.5140  O.2       1 <0>        -0.5777
      16  N3          5.8690   35.4410   57.8810  N.am      1 <0>        -0.7383
      17  C12         4.9380   34.7470   56.9860  C.3       1 <0>         0.2608
      18  C13         3.5350   34.8870   57.5160  C.2       1 <0>        -0.1508
      19  C14         3.0520   35.7590   58.4340  C.2       1 <0>        -0.1413
      20  C15         1.7120   35.7050   58.7700  C.2       1 <0>        -0.1552
      21  C16         0.9220   34.7800   58.1740  C.2       1 <0>        -0.1698
      22  S1          2.0750   33.9510   57.0920  S.3       1 <0>         0.0383
      23  C17         5.0200   35.3650   55.5880  C.3       1 <0>        -0.0743
      24  C18         4.6490   34.3100   54.5430  C.3       1 <0>        -0.1280
      25  C19         4.0470   36.5420   55.4920  C.3       1 <0>        -0.1420
      26  C20         6.4450   35.8580   55.3300  C.3       1 <0>        -0.1486
@<TRIPOS>BOND
     1     1     2 1
     2     2     3 1
     3     3     4 1
     4     4     5 1
     5     5     6 am
     6     6     7 2
     7     6     8 1
     8     8    13 1
     9     8     9 1
    10     9    10 1
    11    10    11 1
    12    11    12 1
    13    12    13 1
    14    12    14 am
    15    14    15 2
    16    14    16 am
    17    16    17 1
    18    17    18 1
    19    17    23 1
    20    18    22 1
    21    18    19 2
    22    19    20 1
    23    20    21 2
    24    21    22 1
    25    23    24 1
    26    23    25 1
    27    23    26 1

@<TRIPOS>MOLECULE
ZINC29131272_replica-1.pdb
 23 23 0 0 0
SMALL
GASTEIGER

@<TRIPOS>ATOM
       1  C1          7.6760   36.7020   55.0650  C.3       1 <0>        -0.1489
       2  C2          6.6550   35.6370   55.4760  C.3       1 <0>        -0.1180
       3  C3          6.5540   35.5910   57.0020  C.3       1 <0>        -0.0241
       4  C4          6.9980   34.2370   57.4930  C.2       1 <0>        -0.4294
       5  C5          8.2630   34.0930   58.0610  C.2       1 <0>         0.3282
       6  N1          8.7420   32.9630   58.5170  N.2       1 <0>        -0.6722
       7  C6          8.0550   31.8190   58.4820  C.2       1 <0>         0.5027
       8  C7          6.6620   31.8370   57.8880  C.3       1 <0>         0.0421
       9  C8          6.1580   33.1750   57.3810  C.2       1 <0>         0.3625
      10  O1          4.9330   33.3040   56.8380  O.3       1 <0>        -0.6139
      11  C9          5.6850   31.3420   58.9560  C.3       1 <0>        -0.1582
      12  O2          6.6310   30.9090   56.8020  O.3       1 <0>        -0.5378
      13  O3          8.5350   30.7900   58.9160  O.2       1 <0>        -0.5281
      14  C10         9.1350   35.3190   58.1570  C.3       1 <0>        -0.0651
      15  C11         9.9750   35.2410   59.4050  C.2       1 <0>        -0.0979
      16  C12         9.9320   36.2110   60.2860  C.2       1 <0>        -0.1592
      17  C13         9.1530   37.4660   59.9860  C.3       1 <0>        -0.1111
      18  C14        10.6600   36.0700   61.5970  C.3       1 <0>        -0.0487
      19  C15        11.5130   34.8280   61.5670  C.2       1 <0>        -0.1329
      20  C16        12.4730   34.6720   62.4440  C.2       1 <0>        -0.1702
      21  C17        13.3260   33.4290   62.4130  C.3       1 <0>        -0.0661
      22  C18        14.6220   33.6800   63.1850  C.3       1 <0>        -0.1427
      23  C19        12.5630   32.2710   63.0600  C.3       1 <0>        -0.1433
@<TRIPOS>BOND
     1     1     2 1
     2     2     3 1
     3     3     4 1
     4     4     9 2
     5     4     5 1
     6     5     6 2
     7     5    14 1
     8     6     7 1
     9     7     8 1
    10     7    13 2
    11     8     9 1
    12     8    11 1
    13     8    12 1
    14     9    10 1
    15    14    15 1
    16    15    16 2
    17    16    17 1
    18    16    18 1
    19    18    19 1
    20    19    20 2
    21    20    21 1
    22    21    22 1
    23    21    23 1

@<TRIPOS>MOLECULE
ZINC66335528_replica-1.pdb
 21 21 0 0 0
SMALL
GASTEIGER

@<TRIPOS>ATOM
       1  C1          3.7040   32.6180   56.8250  C.3       1 <0>        -0.1436
       2  C2          2.6680   33.5690   56.2210  C.3       1 <0>        -0.1370
       3  C3          1.4370   33.6240   57.1280  C.3       1 <0>         0.1489
       4  C4          1.0960   35.0830   57.4390  C.3       1 <0>        -0.1041
       5  C5          1.1530   35.3080   58.9510  C.3       1 <0>        -0.1491
       6  C6          2.1060   36.0010   56.7480  C.3       1 <0>        -0.1516
       7  N1          0.3020   32.9910   56.4510  N.am      1 <0>        -0.7281
       8  C7         -0.1770   31.8130   56.8970  C.2       1 <0>         0.5074
       9  O1          0.3310   31.2770   57.8600  O.2       1 <0>        -0.5185
      10  C8         -1.3430   31.1610   56.2000  C.3       1 <0>        -0.1538
      11  C9         -1.1930   29.6400   56.2680  C.3       1 <0>         0.1587
      12  C10        -2.3610   29.0460   57.0570  C.3       1 <0>        -0.1643
      13  N2         -1.1910   29.0900   54.9110  N.am      1 <0>        -0.7170
      14  C11        -0.2840   28.1530   54.5640  C.2       1 <0>         0.5259
      15  O2          0.5280   27.7680   55.3770  O.2       1 <0>        -0.5387
      16  C12        -0.2820   27.5870   53.1680  C.3       1 <0>        -0.1051
      17  C13        -1.4950   28.1180   52.4000  C.3       1 <0>        -0.1086
      18  C14        -1.4930   27.5420   50.9830  C.3       1 <0>        -0.1182
      19  C15        -1.5600   26.0160   51.0510  C.3       1 <0>        -0.1224
      20  C16        -0.3470   25.4840   51.8190  C.3       1 <0>        -0.1206
      21  C17        -0.3490   26.0600   53.2370  C.3       1 <0>        -0.0988
@<TRIPOS>BOND
     1     1     2 1
     2     2     3 1
     3     3     4 1
     4     3     7 1
     5     4     5 1
     6     4     6 1
     7     7     8 am
     8     8     9 2
     9     8    10 1
    10    10    11 1
    11    11    12 1
    12    11    13 1
    13    13    14 am
    14    14    15 2
    15    14    16 1
    16    16    21 1
    17    16    17 1
    18    17    18 1
    19    18    19 1
    20    19    20 1
    21    20    21 1

@<TRIPOS>MOLECULE
ZINC02295560_replica-1.pdb
 28 31 0 0 0
SMALL
GASTEIGER

@<TRIPOS>ATOM
       1  C1         -1.2060   21.5540   57.1520  C.3       1 <0>        -0.1547
       2  C2         -0.2220   21.6230   55.9830  C.3       1 <0>        -0.1236
       3  C3          0.5690   22.9300   56.0570  C.3       1 <0>        -0.1117
       4  C4          0.6740   23.5430   54.6580  C.3       1 <0>        -0.0794
       5  C5          0.4080   25.0240   54.7380  C.ar      1 <0>         0.1923
       6  C6         -0.0780   25.6960   53.6190  C.ar      1 <0>        -0.1342
       7  C7         -0.3250   27.0430   53.6900  C.ar      1 <0>         0.0461
       8  C8         -0.0750   27.7280   54.9040  C.ar      1 <0>        -0.1560
       9  C9         -0.2740   29.1630   55.1810  C.ar      1 <0>         0.2341
      10  C10         0.0540   29.5880   56.4740  C.ar      1 <0>        -0.2930
      11  C11        -0.0920   30.9170   56.8470  C.ar      1 <0>         0.4933
      12  N1         -0.5510   31.7800   55.9420  N.ar      1 <0>        -0.5605
      13  C12        -0.8560   31.3640   54.7260  C.ar      1 <0>         0.3459
      14  N2         -0.7320   30.1180   54.3410  N.ar      1 <0>        -0.5262
      15  N3          0.2330   31.3360   58.1280  N.pl3     1 <0>        -0.7128
      16  C13         1.5790   31.8410   58.4140  C.3       1 <0>         0.1358
      17  C14         1.4880   32.9900   59.4200  C.3       1 <0>        -0.1684
      18  C15         0.6050   34.1000   58.8470  C.3       1 <0>        -0.0005
      19  C16         0.5250   35.5580   56.9160  C.3       1 <0>        -0.0480
      20  C17         2.1630   35.9430   58.6570  C.3       1 <0>        -0.0427
      21  S1          0.6080   28.1220   57.3000  S.3       1 <0>         0.1207
      22  C18         0.4160   26.9590   55.9710  C.ar      1 <0>         0.1319
      23  N4          0.6380   25.6660   55.8640  N.ar      1 <0>        -0.4515
      24  C19        -0.8610   27.8400   52.5340  C.3       1 <0>        -0.0866
      25  C20        -0.6790   27.0770   51.2230  C.3       1 <0>        -0.1227
      26  C21        -1.2290   25.6590   51.4090  C.3       1 <0>        -0.1241
      27  C22        -0.3110   24.8980   52.3630  C.3       1 <0>        -0.0776
      28  N5          1.4090   34.9140   57.9110  N.4       1 <0>        -0.3980
@<TRIPOS>BOND
     1     1     2 1
     2     2     3 1
     3     3     4 1
     4     4     5 1
     5     5    23 ar
     6     5     6 ar
     7     6    27 1
     8     6     7 ar
     9     7     8 ar
    10     7    24 1
    11     8    22 ar
    12     8     9 1
    13     9    14 ar
    14     9    10 ar
    15    10    11 ar
    16    10    21 1
    17    11    12 ar
    18    11    15 1
    19    12    13 ar
    20    13    14 ar
    21    15    16 1
    22    16    17 1
    23    17    18 1
    24    18    28 1
    25    19    28 1
    26    20    28 1
    27    21    22 1
    28    22    23 ar
    29    24    25 1
    30    25    26 1
    31    26    27 1

@<TRIPOS>MOLECULE
ZINC65515678_replica-1.pdb
 22 22 0 0 0
SMALL
GASTEIGER

@<TRIPOS>ATOM
       1  C1         -0.4920   24.6850   52.1570  C.3       1 <0>        -0.1546
       2  C2         -0.3220   26.0980   52.7180  C.3       1 <0>        -0.1112
       3  C3         -0.8780   27.1140   51.7180  C.3       1 <0>        -0.0836
       4  C4         -1.8870   26.4240   50.7980  C.3       1 <0>        -0.1475
       5  C5         -1.5590   28.2320   52.4620  C.2       1 <0>         0.4638
       6  O1         -2.2160   29.0470   51.8590  O.2       1 <0>        -0.5041
       7  O2         -1.4350   28.3250   53.7950  O.3       1 <0>        -0.3441
       8  C6         -1.3580   29.6400   54.3500  C.3       1 <0>         0.0837
       9  C7          0.1050   29.9950   54.6190  C.3       1 <0>        -0.1317
      10  C8          0.1880   31.4030   55.2140  C.3       1 <0>        -0.1235
      11  C9         -0.6000   31.4490   56.5250  C.3       1 <0>         0.1591
      12  C10        -2.0630   31.0950   56.2560  C.3       1 <0>        -0.1299
      13  C11        -2.1450   29.6860   55.6610  C.3       1 <0>        -0.1117
      14  N1         -0.5200   32.7980   57.0940  N.am      1 <0>        -0.6989
      15  C12         0.3500   33.0580   58.0900  C.2       1 <0>         0.6557
      16  O3          1.0690   32.1760   58.5160  O.2       1 <0>        -0.5595
      17  O4          0.4230   34.2960   58.6120  O.3       1 <0>        -0.3548
      18  C13         0.6370   35.3750   57.7000  C.3       1 <0>         0.0421
      19  C14         2.1040   35.8050   57.7520  C.3       1 <0>         0.4655
      20  F1          2.9230   34.6710   57.7090  F         1 <0>        -0.1727
      21  F2          2.3890   36.6270   56.6570  F         1 <0>        -0.1673
      22  F3          2.3430   36.5080   58.9380  F         1 <0>        -0.1727
@<TRIPOS>BOND
     1     1     2 1
     2     2     3 1
     3     3     4 1
     4     3     5 1
     5     5     6 2
     6     5     7 1
     7     7     8 1
     8     8    13 1
     9     8     9 1
    10     9    10 1
    11    10    11 1
    12    11    12 1
    13    11    14 1
    14    12    13 1
    15    14    15 am
    16    15    16 2
    17    15    17 1
    18    17    18 1
    19    18    19 1
    20    19    20 1
    21    19    21 1
    22    19    22 1

@<TRIPOS>MOLECULE
ZINC45331748_replica-1.pdb
 20 20 0 0 0
SMALL
GASTEIGER

@<TRIPOS>ATOM
       1  C1          4.6030   35.8650   58.6750  C.3       1 <0>        -0.1391
       2  C2          6.0610   36.2760   58.4610  C.3       1 <0>         0.0717
       3  C3          6.4570   37.3160   59.5100  C.3       1 <0>        -0.1722
       4  N1          6.9260   35.0960   58.5900  N.3       1 <0>        -0.6708
       5  C4          7.8420   34.9870   57.4460  C.3       1 <0>         0.2132
       6  C5          7.2320   35.6980   56.2350  C.3       1 <0>        -0.1852
       7  C6          9.1790   35.6410   57.8000  C.3       1 <0>        -0.1040
       8  C7          9.6790   35.0870   59.1360  C.3       1 <0>        -0.1232
       9  C8          9.9400   36.2450   60.1020  C.3       1 <0>        -0.1158
      10  C9         10.7140   35.7310   61.3170  C.3       1 <0>         0.0615
      11  O1         10.5750   34.3110   61.4040  O.3       1 <0>        -0.3859
      12  C10        11.3920   33.7070   62.4090  C.3       1 <0>         0.0983
      13  C11        12.8720   33.9920   62.0850  C.3       1 <0>        -0.1394
      14  C12        13.6780   33.8260   63.3460  C.3       1 <0>        -0.1190
      15  C13        14.2770   32.4120   63.4800  C.3       1 <0>        -0.1182
      16  C14        13.2890   31.3040   63.0670  C.3       1 <0>        -0.1226
      17  C15        11.8940   31.5590   63.5670  C.3       1 <0>        -0.1116
      18  C16        11.1000   32.2820   62.4600  C.3       1 <0>        -0.1226
      19  C17         8.0600   33.5680   57.1240  C.1       1 <0>         0.2194
      20  N2          8.2270   32.4720   56.8750  N.1       1 <0>        -0.4200
@<TRIPOS>BOND
     1     1     2 1
     2     2     3 1
     3     2     4 1
     4     4     5 1
     5     5     6 1
     6     5     7 1
     7     5    19 1
     8     7     8 1
     9     8     9 1
    10     9    10 1
    11    10    11 1
    12    11    12 1
    13    12    18 1
    14    12    13 1
    15    13    14 1
    16    14    15 1
    17    15    16 1
    18    16    17 1
    19    17    18 1
    20    19    20 3

@<TRIPOS>MOLECULE
ZINC36912700_replica-1.pdb
 19 20 0 0 0
SMALL
GASTEIGER

@<TRIPOS>ATOM
       1  C1         12.7990   31.2170   63.1250  C.3       1 <0>        -0.1527
       2  C2         11.7840   32.2890   62.7240  C.3       1 <0>        -0.1154
       3  C3         12.4010   33.6750   62.9210  C.3       1 <0>        -0.0435
       4  C4         13.8350   33.6750   62.3860  C.3       1 <0>        -0.1423
       5  C5         11.5860   34.7000   62.1740  C.ar      1 <0>        -0.1422
       6  C6         11.5940   36.0270   62.6010  C.ar      1 <0>        -0.0833
       7  C7         10.8690   36.9760   61.9490  C.ar      1 <0>        -0.1290
       8  C8         10.1010   36.6210   60.8270  C.ar      1 <0>         0.1762
       9  C9         10.0960   35.2710   60.3960  C.ar      1 <0>        -0.1881
      10  C10        10.8580   34.3200   61.0890  C.ar      1 <0>        -0.0335
      11  C11         9.3220   34.9160   59.2680  C.ar      1 <0>         0.3200
      12  O1          9.2870   33.6380   58.8200  O.3       1 <0>        -0.6772
      13  C12         8.6020   35.9140   58.6360  C.ar      1 <0>        -0.3236
      14  C13         8.6570   37.2150   59.1190  C.ar      1 <0>         0.1152
      15  N1          9.3800   37.5340   60.1670  N.ar      1 <0>        -0.5509
      16  C14         7.8670   38.2910   58.4190  C.3       1 <0>         0.5185
      17  F1          6.9870   37.7020   57.5050  F         1 <0>        -0.1810
      18  F2          7.1380   39.0230   59.3630  F         1 <0>        -0.1747
      19  F3          8.7420   39.1460   57.7410  F         1 <0>        -0.1781
@<TRIPOS>BOND
     1     1     2 1
     2     2     3 1
     3     3     4 1
     4     3     5 1
     5     5    10 ar
     6     5     6 ar
     7     6     7 ar
     8     7     8 ar
     9     8    15 ar
    10     8     9 ar
    11     9    10 ar
    12     9    11 ar
    13    11    12 1
    14    11    13 ar
    15    13    14 ar
    16    14    15 ar
    17    14    16 1
    18    16    17 1
    19    16    18 1
    20    16    19 1

@<TRIPOS>MOLECULE
ZINC44192443_replica-1.pdb
 19 19 0 0 0
SMALL
GASTEIGER

@<TRIPOS>ATOM
       1  C1          4.3980   35.0810   57.2320  C.3       1 <0>        -0.1237
       2  C2          3.8690   36.0420   58.2990  C.3       1 <0>        -0.1209
       3  C3          4.6950   35.8910   59.5770  C.3       1 <0>        -0.1247
       4  C4          5.2170   37.2620   60.0130  C.3       1 <0>        -0.1165
       5  C5          6.7340   37.1940   60.2000  C.3       1 <0>        -0.1459
       6  C6          7.3990   38.2990   59.3780  C.3       1 <0>        -0.1419
       7  C7          8.4750   37.6890   58.4780  C.3       1 <0>         0.0928
       8  C8          8.2330   38.1180   57.0300  C.3       1 <0>         0.1087
       9  C9          8.1780   36.8800   56.1330  C.3       1 <0>        -0.1665
      10  C10         6.8850   36.8990   55.3160  C.3       1 <0>        -0.1207
      11  C11         6.1390   35.5750   55.5100  C.3       1 <0>        -0.1230
      12  C12         4.7020   35.8600   55.9510  C.3       1 <0>        -0.1213
      13  O1          9.2970   38.9700   56.6010  O.3       1 <0>        -0.5707
      14  O2          8.4190   36.2630   58.5680  O.3       1 <0>        -0.3480
      15  C13         9.6970   35.6390   58.7120  C.3       1 <0>         0.0066
      16  C14        10.0520   35.5430   60.1970  C.3       1 <0>         0.4609
      17  F1         10.3310   36.8200   60.6940  F         1 <0>        -0.1747
      18  F2          8.9730   34.9950   60.9000  F         1 <0>        -0.1754
      19  F3         11.1760   34.7240   60.3550  F         1 <0>        -0.1740
@<TRIPOS>BOND
     1     1    12 1
     2     1     2 1
     3     2     3 1
     4     3     4 1
     5     4     5 1
     6     5     6 1
     7     6     7 1
     8     7     8 1
     9     7    14 1
    10     8     9 1
    11     8    13 1
    12     9    10 1
    13    10    11 1
    14    11    12 1
    15    14    15 1
    16    15    16 1
    17    16    17 1
    18    16    18 1
    19    16    19 1

@<TRIPOS>MOLECULE
ZINC02333318_replica-1.pdb
 26 28 0 0 0
SMALL
GASTEIGER

@<TRIPOS>ATOM
       1  C1         14.1280   32.9080   63.1000  C.3       1 <0>        -0.1475
       2  C2         13.6240   34.0680   62.2390  C.3       1 <0>        -0.1125
       3  C3         12.0950   34.0280   62.1730  C.3       1 <0>        -0.1107
       4  S1         11.4450   35.7180   62.1980  S.3       1 <0>         0.0235
       5  C4         10.3940   35.6610   60.7850  C.ar      1 <0>         0.3607
       6  N1         10.0860   34.4870   60.2490  N.ar      1 <0>        -0.5696
       7  C5          9.2990   34.3810   59.1910  C.ar      1 <0>         0.4989
       8  C6          8.7700   35.5610   58.5970  C.ar      1 <0>        -0.2465
       9  C7          7.8940   35.6880   57.4340  C.2       1 <0>        -0.0737
      10  C8          7.5320   36.9360   57.0690  C.2       1 <0>        -0.1977
      11  S2          8.3250   38.0060   58.2370  S.3       1 <0>         0.1599
      12  C9          9.1430   36.7720   59.2150  C.ar      1 <0>         0.1588
      13  N2          9.9310   36.7940   60.2730  N.ar      1 <0>        -0.5174
      14  C10         6.6480   37.3020   55.9180  C.3       1 <0>         0.1410
      15  O1          6.5070   36.1420   55.0820  O.3       1 <0>        -0.3542
      16  C11         6.1790   34.9530   55.8070  C.3       1 <0>         0.1122
      17  C12         7.3830   34.4910   56.6340  C.3       1 <0>        -0.0874
      18  C13         5.0020   35.2370   56.7400  C.3       1 <0>        -0.1843
      19  C14         5.7910   33.8490   54.8210  C.3       1 <0>        -0.1407
      20  N3          8.9970   33.1380   58.6660  N.pl3     1 <0>        -0.7132
      21  C15         8.1840   32.1940   59.4380  C.3       1 <0>         0.1295
      22  C16         8.0960   30.8640   58.6870  C.3       1 <0>        -0.1682
      23  C17         7.3560   31.0760   57.3640  C.3       1 <0>        -0.0009
      24  C18         6.0660   29.3410   58.4560  C.3       1 <0>        -0.0429
      25  C19         5.0020   31.4180   57.8120  C.3       1 <0>        -0.0482
      26  N4          6.0320   30.4230   57.4490  N.4       1 <0>        -0.3978
@<TRIPOS>BOND
     1     1     2 1
     2     2     3 1
     3     3     4 1
     4     4     5 1
     5     5    13 ar
     6     5     6 ar
     7     6     7 ar
     8     7     8 ar
     9     7    20 1
    10     8    12 ar
    11     8     9 1
    12     9    17 1
    13     9    10 2
    14    10    11 1
    15    10    14 1
    16    11    12 1
    17    12    13 ar
    18    14    15 1
    19    15    16 1
    20    16    17 1
    21    16    18 1
    22    16    19 1
    23    20    21 1
    24    21    22 1
    25    22    23 1
    26    23    26 1
    27    24    26 1
    28    25    26 1

@<TRIPOS>MOLECULE
ZINC61794625_replica-1.pdb
 19 19 0 0 0
SMALL
GASTEIGER

@<TRIPOS>ATOM
       1  C1         -1.2170   25.8420   51.3690  C.3       1 <0>        -0.1545
       2  C2         -0.5200   26.6430   52.4700  C.3       1 <0>        -0.1269
       3  C3         -1.1160   28.0510   52.5310  C.3       1 <0>        -0.1188
       4  C4         -1.2380   28.4910   53.9920  C.3       1 <0>        -0.0848
       5  C5         -2.1740   29.6950   54.0580  C.3       1 <0>        -0.1114
       6  C6         -2.8170   29.7520   55.4220  C.3       1 <0>        -0.1318
       7  C7         -1.9770   30.6320   56.3660  C.3       1 <0>         0.1275
       8  N1         -0.5280   30.4100   56.1910  N.am      1 <0>        -0.6193
       9  C8          0.0460   29.0930   56.0240  C.3       1 <0>         0.1099
      10  C9          0.1120   28.7430   54.5170  C.3       1 <0>        -0.1369
      11  C10         0.2930   31.4780   56.1880  C.2       1 <0>         0.7031
      12  O1         -0.1710   32.6010   56.2370  O.2       1 <0>        -0.5895
      13  N2          1.6280   31.3020   56.1280  N.am      1 <0>        -0.7463
      14  C11         2.5240   32.4560   56.2360  C.3       1 <0>         0.1399
      15  C12         3.3940   32.3080   57.4860  C.3       1 <0>        -0.1303
      16  C13         2.7830   33.1170   58.6320  C.3       1 <0>         0.0662
      17  O2          1.6710   32.4040   59.1780  O.3       1 <0>        -0.3907
      18  C14         0.6130   33.2450   59.6450  C.3       1 <0>         0.0574
      19  C15         0.8170   34.6650   59.1130  C.3       1 <0>        -0.1527
@<TRIPOS>BOND
     1     1     2 1
     2     2     3 1
     3     3     4 1
     4     4    10 1
     5     4     5 1
     6     5     6 1
     7     6     7 1
     8     7     8 1
     9     8     9 1
    10     8    11 am
    11     9    10 1
    12    11    12 2
    13    11    13 am
    14    13    14 1
    15    14    15 1
    16    15    16 1
    17    16    17 1
    18    17    18 1
    19    18    19 1

@<TRIPOS>MOLECULE
ZINC44139118_replica-1.pdb
 19 18 0 0 0
SMALL
GASTEIGER

@<TRIPOS>ATOM
       1  C1          9.9330   36.9340   61.1570  C.3       1 <0>        -0.1576
       2  C2         10.0530   35.9500   59.9910  C.3       1 <0>        -0.0947
       3  C3         10.6830   34.6470   60.4860  C.3       1 <0>        -0.1461
       4  C4          8.6620   35.6610   59.4230  C.3       1 <0>        -0.1428
       5  C5          8.6700   35.8920   57.9110  C.3       1 <0>         0.1878
       6  C6          7.7640   37.0770   57.5710  C.3       1 <0>        -0.0604
       7  C7          6.9590   37.4740   58.8090  C.3       1 <0>        -0.1376
       8  C8          8.6210   38.2610   57.1190  C.3       1 <0>        -0.1428
       9  C9          6.8210   36.6870   56.4630  C.2       1 <0>         0.4712
      10  O1          7.1860   36.7430   55.3120  O.2       1 <0>        -0.4950
      11  O2          5.5760   36.2770   56.7520  O.3       1 <0>        -0.3497
      12  C10         4.6400   36.2340   55.6740  C.3       1 <0>         0.0318
      13  N1          8.1770   34.6900   57.2320  N.pl3     1 <0>        -1.0103
      14  S1          7.6620   33.3910   58.1180  S.o       1 <0>         1.4939
      15  O3          8.8200   32.5770   58.2430  O.2       1 <0>        -0.8862
      16  C11         6.4590   32.5690   57.0360  C.3       1 <0>        -0.4243
      17  C12         5.0410   32.9020   57.5050  C.3       1 <0>        -0.1360
      18  C13         6.6480   33.0590   55.5990  C.3       1 <0>        -0.1239
      19  C14         6.6730   31.0560   57.0920  C.3       1 <0>        -0.1194
@<TRIPOS>BOND
     1     1     2 1
     2     2     3 1
     3     2     4 1
     4     4     5 1
     5     5     6 1
     6     5    13 1
     7     6     7 1
     8     6     8 1
     9     6     9 1
    10     9    10 2
    11     9    11 1
    12    11    12 1
    13    13    14 1
    14    14    15 2
    15    14    16 1
    16    16    17 1
    17    16    18 1
    18    16    19 1

@<TRIPOS>MOLECULE
ZINC14103791_replica-1.pdb
 19 21 0 0 0
SMALL
GASTEIGER

@<TRIPOS>ATOM
       1  C1         -1.0230   25.7210   51.3370  C.ar      1 <0>        -0.1142
       2  C2         -0.3250   25.6410   52.5290  C.ar      1 <0>        -0.1248
       3  C3         -0.2890   26.7230   53.3850  C.ar      1 <0>        -0.0849
       4  C4         -0.9580   27.8980   53.0470  C.ar      1 <0>        -0.0270
       5  C5         -1.6640   27.9710   51.8480  C.ar      1 <0>        -0.1033
       6  C6         -1.6890   26.8850   50.9960  C.ar      1 <0>        -0.1218
       7  C7         -0.9240   29.0630   53.9630  C.2       1 <0>         0.1403
       8  C8         -2.0860   29.6510   54.3750  C.2       1 <0>        -0.2359
       9  S1         -1.4480   30.9530   55.4230  S.3       1 <0>        -0.0122
      10  C9          0.2870   30.5850   55.2090  C.2       1 <0>         0.3859
      11  N1          0.2390   29.5480   54.3930  N.2       1 <0>        -0.5706
      12  N2          1.3910   31.2200   55.7540  N.pl3     1 <0>        -0.6763
      13  C10         1.2140   32.4240   56.5700  C.3       1 <0>         0.1271
      14  C11         2.5530   32.8130   57.2020  C.3       1 <0>        -0.0429
      15  C12         3.1200   34.0090   56.4800  C.2       1 <0>        -0.1505
      16  C13         3.6610   34.0780   55.2400  C.2       1 <0>        -0.1471
      17  C14         4.1180   35.2980   54.7760  C.2       1 <0>        -0.1594
      18  C15         4.0220   36.3850   55.5800  C.2       1 <0>        -0.1670
      19  S2          3.2580   35.6980   57.0400  S.3       1 <0>         0.0417
@<TRIPOS>BOND
     1     1     6 ar
     2     1     2 ar
     3     2     3 ar
     4     3     4 ar
     5     4     5 ar
     6     4     7 1
     7     5     6 ar
     8     7    11 1
     9     7     8 2
    10     8     9 1
    11     9    10 1
    12    10    11 2
    13    10    12 1
    14    12    13 1
    15    13    14 1
    16    14    15 1
    17    15    19 1
    18    15    16 2
    19    16    17 1
    20    17    18 2
    21    18    19 1

@<TRIPOS>MOLECULE
ZINC62442562_replica-1.pdb
 20 20 0 0 0
SMALL
GASTEIGER

@<TRIPOS>ATOM
       1  C1          3.9000   35.2360   54.9300  C.3       1 <0>        -0.1529
       2  C2          3.8230   36.2900   56.0360  C.3       1 <0>        -0.1230
       3  C3          2.5240   36.1080   56.8250  C.3       1 <0>         0.0524
       4  N1          2.8200   36.1110   58.2640  N.3       1 <0>        -0.6832
       5  C4          2.7820   34.7490   58.8110  C.3       1 <0>         0.1895
       6  C5          3.9320   34.5670   59.8040  C.3       1 <0>        -0.1208
       7  C6          5.2660   34.6660   59.0620  C.3       1 <0>         0.0625
       8  O1          5.7160   36.0220   59.0680  O.3       1 <0>        -0.3737
       9  C7          7.1270   36.1670   59.2360  C.3       1 <0>         0.0941
      10  C8          7.6080   35.2250   60.3420  C.3       1 <0>        -0.1367
      11  C9          9.1200   35.3790   60.5210  C.3       1 <0>        -0.0895
      12  C10         9.8280   35.0300   59.2110  C.3       1 <0>        -0.1186
      13  C11         9.3470   35.9720   58.1050  C.3       1 <0>        -0.1187
      14  C12         7.8350   35.8170   57.9250  C.3       1 <0>        -0.0763
      15  C13         7.3540   36.7600   56.8200  C.3       1 <0>        -0.0908
      16  C14         7.9520   38.1510   57.0400  C.3       1 <0>        -0.1516
      17  C15         7.8040   36.2210   55.4600  C.3       1 <0>        -0.1490
      18  C16         9.4420   36.8240   60.9070  C.3       1 <0>        -0.1544
      19  C17         1.5000   34.5330   59.5020  C.1       1 <0>         0.2161
      20  N2          0.5100   34.3650   60.0340  N.1       1 <0>        -0.4183
@<TRIPOS>BOND
     1     1     2 1
     2     2     3 1
     3     3     4 1
     4     4     5 1
     5     5     6 1
     6     5    19 1
     7     6     7 1
     8     7     8 1
     9     8     9 1
    10     9    14 1
    11     9    10 1
    12    10    11 1
    13    11    12 1
    14    11    18 1
    15    12    13 1
    16    13    14 1
    17    14    15 1
    18    15    16 1
    19    15    17 1
    20    19    20 3

@<TRIPOS>MOLECULE
ZINC66368286_replica-1.pdb
 20 20 0 0 0
SMALL
GASTEIGER

@<TRIPOS>ATOM
       1  C1          2.4270   36.0810   57.0860  C.3       1 <0>        -0.1428
       2  C2          2.4210   35.9470   58.6100  C.3       1 <0>        -0.1377
       3  C3          3.3620   34.8140   59.0250  C.3       1 <0>         0.1679
       4  C4          2.6970   33.9740   60.1180  C.3       1 <0>        -0.1039
       5  C5          1.1880   34.2280   60.1090  C.3       1 <0>        -0.1518
       6  C6          2.9670   32.4910   59.8570  C.3       1 <0>        -0.1478
       7  N1          4.6120   35.3800   59.5380  N.am      1 <0>        -0.7395
       8  C7          5.7280   35.3400   58.7820  C.2       1 <0>         0.7078
       9  O1          5.6970   34.8360   57.6770  O.2       1 <0>        -0.5809
      10  N2          6.8790   35.8610   59.2530  N.am      1 <0>        -0.7435
      11  C8          8.0920   35.8190   58.4340  C.3       1 <0>         0.1705
      12  C9          8.9930   34.6800   58.9140  C.3       1 <0>        -0.1276
      13  C10         9.3750   34.9140   60.3770  C.3       1 <0>        -0.1210
      14  C11        10.1220   36.2430   60.5020  C.3       1 <0>        -0.1163
      15  C12         9.2200   37.3830   60.0210  C.3       1 <0>        -0.1194
      16  C13         8.8390   37.1480   58.5590  C.3       1 <0>        -0.1423
      17  C14         7.9380   38.2870   58.0780  C.3       1 <0>         0.4550
      18  F1          7.0860   37.8150   57.0740  F         1 <0>        -0.1804
      19  F2          7.1770   38.7640   59.1500  F         1 <0>        -0.1824
      20  F3          8.7290   39.3240   57.5700  F         1 <0>        -0.1795
@<TRIPOS>BOND
     1     1     2 1
     2     2     3 1
     3     3     4 1
     4     3     7 1
     5     4     5 1
     6     4     6 1
     7     7     8 am
     8     8     9 2
     9     8    10 am
    10    10    11 1
    11    11    16 1
    12    11    12 1
    13    12    13 1
    14    13    14 1
    15    14    15 1
    16    15    16 1
    17    16    17 1
    18    17    18 1
    19    17    19 1
    20    17    20 1

@<TRIPOS>MOLECULE
ZINC02412122_replica-1.pdb
 29 32 0 0 0
SMALL
GASTEIGER

@<TRIPOS>ATOM
       1  C1         11.2000   36.3710   62.2290  C.3       1 <0>        -0.1546
       2  C2         11.2500   34.9700   61.6160  C.3       1 <0>        -0.1236
       3  C3         10.6090   34.9980   60.2270  C.3       1 <0>        -0.1116
       4  C4          9.7260   36.2400   60.0970  C.3       1 <0>        -0.0749
       5  C5          8.5850   35.9490   59.1560  C.ar      1 <0>         0.2011
       6  C6          8.2940   36.8400   58.1340  C.ar      1 <0>        -0.1533
       7  C7          7.2510   36.5760   57.2720  C.ar      1 <0>         0.0277
       8  C8          6.4900   35.3990   57.4440  C.ar      1 <0>        -0.1418
       9  C9          5.3430   34.9390   56.6400  C.ar      1 <0>         0.2340
      10  C10         4.7700   33.7230   57.0310  C.ar      1 <0>        -0.2939
      11  C11         3.6860   33.1920   56.3460  C.ar      1 <0>         0.4933
      12  N1          3.2020   33.8700   55.3040  N.ar      1 <0>        -0.5602
      13  C12         3.7540   35.0160   54.9490  C.ar      1 <0>         0.3463
      14  N2          4.7780   35.5440   55.5720  N.ar      1 <0>        -0.5258
      15  N3          3.1200   31.9870   56.7330  N.pl3     1 <0>        -0.7124
      16  C13         1.6670   31.8120   56.6910  C.3       1 <0>         0.1362
      17  C14         1.0680   32.1820   58.0490  C.3       1 <0>        -0.1666
      18  C15        -0.0850   33.1680   57.8450  C.3       1 <0>        -0.0053
      19  C16         0.9890   34.0650   59.8210  C.3       1 <0>        -0.0144
      20  C17         0.1090   34.0950   61.0720  C.3       1 <0>        -0.1872
      21  C18         0.9310   35.3640   57.7790  C.3       1 <0>        -0.0120
      22  C19         2.1460   35.8680   58.5590  C.3       1 <0>        -0.1888
      23  S1          5.7260   33.2070   58.4300  S.3       1 <0>         0.1244
      24  C20         6.8690   34.5640   58.5100  C.ar      1 <0>         0.1334
      25  N4          7.8720   34.8510   59.3110  N.ar      1 <0>        -0.4481
      26  C21         7.1280   37.6810   56.2490  C.3       1 <0>        -0.0862
      27  C22         7.9300   38.8630   56.8370  C.3       1 <0>        -0.1225
      28  C23         8.9510   38.1490   57.7480  C.3       1 <0>        -0.0760
      29  N5          0.1960   34.3960   58.6200  N.4       1 <0>        -0.3955
@<TRIPOS>BOND
     1     1     2 1
     2     2     3 1
     3     3     4 1
     4     4     5 1
     5     5    25 ar
     6     5     6 ar
     7     6    28 1
     8     6     7 ar
     9     7     8 ar
    10     7    26 1
    11     8    24 ar
    12     8     9 1
    13     9    14 ar
    14     9    10 ar
    15    10    11 ar
    16    10    23 1
    17    11    12 ar
    18    11    15 1
    19    12    13 ar
    20    13    14 ar
    21    15    16 1
    22    16    17 1
    23    17    18 1
    24    18    29 1
    25    19    20 1
    26    19    29 1
    27    21    22 1
    28    21    29 1
    29    23    24 1
    30    24    25 ar
    31    26    27 1
    32    27    28 1

@<TRIPOS>MOLECULE
ZINC02803260_replica-1.pdb
 29 32 0 0 0
SMALL
GASTEIGER

@<TRIPOS>ATOM
       1  C1          6.2290   28.6930   58.8640  C.2       1 <0>        -0.1729
       2  C2          6.8150   29.9320   58.9720  C.2       1 <0>        -0.0694
       3  C3          6.0130   31.0230   59.1900  C.2       1 <0>        -0.1681
       4  S1          4.3890   30.2850   59.2290  S.3       1 <0>         0.1046
       5  C4          4.8770   28.5880   58.9630  C.2       1 <0>        -0.1369
       6  C5          6.3950   32.4400   59.3450  C.ar      1 <0>         0.3177
       7  C6          5.5310   33.4600   58.9240  C.ar      1 <0>        -0.1863
       8  C7          5.9320   34.7720   59.0900  C.ar      1 <0>         0.1398
       9  N1          7.1100   35.0240   59.6430  N.ar      1 <0>        -0.5050
      10  C8          7.9090   34.0410   60.0270  C.ar      1 <0>         0.5810
      11  N2          7.5670   32.7720   59.8890  N.ar      1 <0>        -0.4780
      12  N3          9.1410   34.3530   60.6000  N.pl3     1 <0>        -0.2927
      13  C9          9.6800   35.5970   60.7060  C.2       1 <0>         0.0102
      14  C10        10.8750   35.4790   61.3230  C.2       1 <0>        -0.1569
      15  C11        11.0880   34.1110   61.5980  C.2       1 <0>         0.1788
      16  N4         10.0410   33.4400   61.1650  N.2       1 <0>        -0.1960
      17  C12        12.2760   33.5340   62.2640  C.2       1 <0>        -0.1139
      18  C13        13.5380   34.0520   62.3760  C.2       1 <0>        -0.1034
      19  C14        14.4930   33.3270   63.0540  C.2       1 <0>        -0.1641
      20  C15        14.1580   32.1210   63.5810  C.2       1 <0>        -0.1542
      21  S2         12.4370   31.9810   63.1290  S.3       1 <0>         0.1007
      22  C16         9.0530   36.8810   60.2290  C.3       1 <0>         0.5491
      23  F1          7.8430   37.0870   60.9010  F         1 <0>        -0.1557
      24  F2          9.9180   37.9490   60.4870  F         1 <0>        -0.1607
      25  F3          8.8120   36.7980   58.8530  F         1 <0>        -0.1572
      26  C17         5.0390   35.9040   58.6510  C.3       1 <0>         0.5291
      27  F4          3.7120   35.4600   58.6110  F         1 <0>        -0.1580
      28  F5          5.1490   36.9630   59.5580  F         1 <0>        -0.1510
      29  F6          5.4250   36.3360   57.3790  F         1 <0>        -0.1594
@<TRIPOS>BOND
     1     1     5 2
     2     1     2 1
     3     2     3 2
     4     3     4 1
     5     3     6 1
     6     4     5 1
     7     6    11 ar
     8     6     7 ar
     9     7     8 ar
    10     8     9 ar
    11     8    26 1
    12     9    10 ar
    13    10    11 ar
    14    10    12 1
    15    12    16 1
    16    12    13 1
    17    13    14 2
    18    13    22 1
    19    14    15 1
    20    15    16 2
    21    15    17 1
    22    17    21 1
    23    17    18 2
    24    18    19 1
    25    19    20 2
    26    20    21 1
    27    22    23 1
    28    22    24 1
    29    22    25 1
    30    26    27 1
    31    26    28 1
    32    26    29 1

@<TRIPOS>MOLECULE
ZINC37137404_replica-1.pdb
 19 20 0 0 0
SMALL
GASTEIGER

@<TRIPOS>ATOM
       1  C1         -0.6120   24.9280   51.9270  C.3       1 <0>        -0.1540
       2  C2         -1.5080   25.8730   51.1240  C.3       1 <0>        -0.1257
       3  C3         -1.2100   27.3200   51.5250  C.3       1 <0>        -0.1207
       4  C4         -0.5580   27.3410   52.9090  C.3       1 <0>        -0.1172
       5  C5         -1.0080   28.5920   53.6660  C.3       1 <0>        -0.1260
       6  C6         -0.2800   28.6640   55.0100  C.3       1 <0>         0.1626
       7  C7          0.4800   27.3580   55.2490  C.3       1 <0>        -0.1697
       8  N1          0.6640   29.7840   54.9940  N.pl3     1 <0>        -0.7388
       9  C8          0.5440   30.8200   55.9400  C.2       1 <0>         0.0656
      10  C9         -0.1930   30.7690   57.1320  C.2       1 <0>         0.0092
      11  N2         -0.0650   31.9170   57.7450  N.2       1 <0>        -0.2741
      12  N3          0.7570   32.7430   56.9680  N.pl3     1 <0>        -0.3645
      13  C10         1.1250   32.0440   55.8620  C.2       1 <0>        -0.0255
      14  C11         1.1540   34.1150   57.2930  C.3       1 <0>         0.1456
      15  C12         2.5720   34.3710   56.7780  C.3       1 <0>         0.0681
      16  C13         2.8280   35.8920   56.6380  C.3       1 <0>        -0.1507
      17  C14         4.3750   35.9450   56.7590  C.3       1 <0>        -0.1549
      18  C15         4.6640   34.8030   57.7570  C.3       1 <0>         0.0490
      19  O1          3.5400   33.9130   57.7350  O.3       1 <0>        -0.3737
@<TRIPOS>BOND
     1     1     2 1
     2     2     3 1
     3     3     4 1
     4     4     5 1
     5     5     6 1
     6     6     7 1
     7     6     8 1
     8     8     9 1
     9     9    13 2
    10     9    10 1
    11    10    11 2
    12    11    12 1
    13    12    13 1
    14    12    14 1
    15    14    15 1
    16    15    19 1
    17    15    16 1
    18    16    17 1
    19    17    18 1
    20    18    19 1

@<TRIPOS>MOLECULE
ZINC04286360_replica-1.pdb
 19 20 0 0 0
SMALL
GASTEIGER

@<TRIPOS>ATOM
       1  C1         10.0460   35.1220   59.4540  C.3       1 <0>        -0.1483
       2  C2         10.3350   36.0030   60.6710  C.3       1 <0>        -0.1075
       3  C3          9.0730   36.7820   61.0490  C.3       1 <0>        -0.1675
       4  S1          8.6650   37.9460   59.7240  S.3       1 <0>         0.1040
       5  C4          7.2140   37.1810   59.0810  C.2       1 <0>        -0.1407
       6  C5          6.9030   36.8890   57.7370  C.2       1 <0>        -0.2291
       7  C6          5.6640   36.2650   57.4900  C.2       1 <0>         0.0393
       8  C7          4.8720   36.0020   58.5780  C.2       1 <0>        -0.2626
       9  S2          5.8310   36.6090   59.9480  S.3       1 <0>         0.2353
      10  C8          3.5530   35.3720   58.6060  C.2       1 <0>         0.5565
      11  O1          3.4540   34.1760   58.8100  O.2       1 <0>        -0.4910
      12  O2          2.4460   36.1160   58.4080  O.3       1 <0>        -0.3495
      13  C9          1.2000   35.4210   58.3400  C.3       1 <0>         0.0627
      14  C10         0.5960   35.5870   56.9430  C.3       1 <0>        -0.1534
      15  C11         5.2300   35.8990   56.0730  C.3       1 <0>        -0.0790
      16  C12         6.4900   35.6520   55.2400  C.3       1 <0>        -0.1175
      17  C13         7.3770   36.8970   55.2530  C.3       1 <0>        -0.1538
      18  C14         7.7990   37.2140   56.6650  C.2       1 <0>         0.4106
      19  O3          8.8740   37.7340   56.8900  O.2       1 <0>        -0.4497
@<TRIPOS>BOND
     1     1     2 1
     2     2     3 1
     3     3     4 1
     4     4     5 1
     5     5     9 1
     6     5     6 2
     7     6    18 1
     8     6     7 1
     9     7     8 2
    10     7    15 1
    11     8     9 1
    12     8    10 1
    13    10    11 2
    14    10    12 1
    15    12    13 1
    16    13    14 1
    17    15    16 1
    18    16    17 1
    19    17    18 1
    20    18    19 2

@<TRIPOS>MOLECULE
ZINC14022107_replica-1.pdb
 23 24 0 0 0
SMALL
GASTEIGER

@<TRIPOS>ATOM
       1  C1         10.0110   36.2780   60.3690  C.3       1 <0>        -0.1524
       2  C2         10.0830   34.9650   59.5870  C.3       1 <0>        -0.1221
       3  C3          9.3090   35.1090   58.2760  C.3       1 <0>        -0.1410
       4  C4          7.8710   34.6270   58.4770  C.3       1 <0>         0.1139
       5  N1          6.9910   35.3030   57.5200  N.am      1 <0>        -0.5944
       6  C5          6.3100   36.5430   57.9000  C.3       1 <0>         0.1258
       7  C6          5.6840   36.3760   59.2870  C.3       1 <0>        -0.1682
       8  C7          7.3210   37.6910   57.9320  C.3       1 <0>        -0.1363
       9  C8          7.2450   38.4010   59.2850  C.3       1 <0>        -0.1558
      10  C9          6.8090   34.7830   56.2890  C.2       1 <0>         0.5330
      11  O1          7.3730   33.7570   55.9750  O.2       1 <0>        -0.5218
      12  C10         5.9030   35.4790   55.3050  C.3       1 <0>        -0.1498
      13  S1          4.6320   34.3230   54.7350  S.3       1 <0>         0.1031
      14  C11         3.4650   34.4830   56.0460  C.2       1 <0>         0.3640
      15  N2          2.3220   35.2030   55.8450  N.am      1 <0>        -0.6189
      16  C12         1.4060   35.3420   56.8200  C.2       1 <0>         0.5635
      17  O2          0.3880   35.9850   56.6230  O.2       1 <0>        -0.5180
      18  C13         1.6440   34.7330   58.0930  C.2       1 <0>        -0.2604
      19  C14         0.8170   34.7480   59.2880  C.2       1 <0>        -0.0843
      20  C15         1.2400   34.1010   60.3840  C.2       1 <0>        -0.1869
      21  S2          2.8070   33.4150   59.8810  S.3       1 <0>         0.1407
      22  C16         2.8480   34.0160   58.2120  C.2       1 <0>         0.1202
      23  N3          3.7090   33.9120   57.2070  N.2       1 <0>        -0.5031
@<TRIPOS>BOND
     1     1     2 1
     2     2     3 1
     3     3     4 1
     4     4     5 1
     5     5     6 1
     6     5    10 am
     7     6     7 1
     8     6     8 1
     9     8     9 1
    10    10    11 2
    11    10    12 1
    12    12    13 1
    13    13    14 1
    14    14    23 2
    15    14    15 1
    16    15    16 am
    17    16    17 2
    18    16    18 1
    19    18    22 2
    20    18    19 1
    21    19    20 2
    22    20    21 1
    23    21    22 1
    24    22    23 1

@<TRIPOS>MOLECULE
ZINC50732387_replica-1.pdb
 22 22 0 0 0
SMALL
GASTEIGER

@<TRIPOS>ATOM
       1  C1         13.0530   30.4640   63.7390  C.3       1 <0>        -0.1543
       2  C2         13.2550   31.8680   63.1650  C.3       1 <0>        -0.1246
       3  C3         11.9110   32.5950   63.1100  C.3       1 <0>        -0.1290
       4  C4         12.1170   34.0100   62.5670  C.3       1 <0>         0.1395
       5  C5         13.4970   34.1110   61.9150  C.3       1 <0>        -0.1646
       6  N1         11.0830   34.3070   61.5710  N.am      1 <0>        -0.7237
       7  C6         10.5930   35.5570   61.4620  C.2       1 <0>         0.5219
       8  O1         11.0050   36.4370   62.1880  O.2       1 <0>        -0.5315
       9  C7          9.5310   35.8620   60.4380  C.3       1 <0>        -0.1235
      10  C8          9.4360   37.3770   60.2350  C.3       1 <0>        -0.1014
      11  C9          8.3350   37.6890   59.2200  C.3       1 <0>        -0.1367
      12  C10         8.6860   37.0420   57.8760  C.3       1 <0>         0.0989
      13  N2          8.9210   35.6080   58.0890  N.am      1 <0>        -0.6033
      14  C11         9.8950   35.1950   59.1080  C.3       1 <0>         0.1243
      15  C12         8.2550   34.6880   57.3630  C.2       1 <0>         0.5414
      16  O2          8.4570   33.5070   57.5490  O.2       1 <0>        -0.5140
      17  C13         7.2580   35.1270   56.3210  C.3       1 <0>        -0.1428
      18  S1          5.6380   34.4030   56.6920  S.3       1 <0>        -0.0775
      19  C14         5.1280   35.2270   58.2250  C.3       1 <0>         0.4485
      20  F1          3.7550   35.0410   58.4210  F         1 <0>        -0.1701
      21  F2          5.8320   34.6800   59.3040  F         1 <0>        -0.1455
      22  F3          5.4060   36.5960   58.1330  F         1 <0>        -0.1703
@<TRIPOS>BOND
     1     1     2 1
     2     2     3 1
     3     3     4 1
     4     4     5 1
     5     4     6 1
     6     6     7 am
     7     7     8 2
     8     7     9 1
     9     9    14 1
    10     9    10 1
    11    10    11 1
    12    11    12 1
    13    12    13 1
    14    13    14 1
    15    13    15 am
    16    15    16 2
    17    15    17 1
    18    17    18 1
    19    18    19 1
    20    19    20 1
    21    19    21 1
    22    19    22 1

@<TRIPOS>MOLECULE
ZINC02435198_replica-1.pdb
 25 27 0 0 0
SMALL
GASTEIGER

@<TRIPOS>ATOM
       1  C1         12.2640   33.8160   62.8980  C.3       1 <0>        -0.1536
       2  C2         11.7880   34.4980   61.6130  C.3       1 <0>        -0.1176
       3  C3         11.2190   35.8780   61.9490  C.3       1 <0>        -0.1084
       4  C4         10.1870   36.2750   60.8920  C.3       1 <0>        -0.1112
       5  S1         10.0200   34.9420   59.6800  S.3       1 <0>         0.0210
       6  C5          8.2720   34.9510   59.4540  C.ar      1 <0>         0.3635
       7  N1          7.7470   35.6580   58.4600  N.ar      1 <0>        -0.5712
       8  C6          6.4440   35.7030   58.2420  C.ar      1 <0>         0.5022
       9  C7          5.5690   34.9710   59.0940  C.ar      1 <0>        -0.2537
      10  C8          4.1120   34.8730   59.0450  C.2       1 <0>        -0.0593
      11  C9          3.5160   34.1030   59.9800  C.2       1 <0>        -0.2098
      12  S2          4.8400   33.4710   60.9700  S.3       1 <0>         0.1402
      13  C10         6.1960   34.2430   60.1260  C.ar      1 <0>         0.1632
      14  N2          7.5060   34.2500   60.2790  N.ar      1 <0>        -0.5280
      15  C11         2.0440   33.8600   60.1200  C.3       1 <0>         0.1454
      16  O1          1.3580   34.8220   59.3050  O.3       1 <0>        -0.3574
      17  C12         1.8790   34.9210   57.9770  C.3       1 <0>         0.1144
      18  C13         3.2570   35.5890   58.0010  C.3       1 <0>        -0.0942
      19  C14         2.0050   33.5200   57.3750  C.3       1 <0>        -0.1832
      20  C15         0.9280   35.7580   57.1190  C.3       1 <0>        -0.1405
      21  N3          5.9370   36.4530   57.1960  N.pl3     1 <0>        -0.6957
      22  C16         6.1350   36.0110   55.8140  C.3       1 <0>         0.1296
      23  C17         7.2490   36.8360   55.1690  C.3       1 <0>         0.0873
      24  C18         7.2200   38.2590   55.7280  C.3       1 <0>        -0.1839
      25  O2          8.5140   36.2370   55.4580  O.3       1 <0>        -0.5661
@<TRIPOS>BOND
     1     1     2 1
     2     2     3 1
     3     3     4 1
     4     4     5 1
     5     5     6 1
     6     6    14 ar
     7     6     7 ar
     8     7     8 ar
     9     8     9 ar
    10     8    21 1
    11     9    13 ar
    12     9    10 1
    13    10    18 1
    14    10    11 2
    15    11    12 1
    16    11    15 1
    17    12    13 1
    18    13    14 ar
    19    15    16 1
    20    16    17 1
    21    17    18 1
    22    17    19 1
    23    17    20 1
    24    21    22 1
    25    22    23 1
    26    23    24 1
    27    23    25 1

@<TRIPOS>MOLECULE
ZINC28165384_replica-1.pdb
 25 29 0 0 0
SMALL
GASTEIGER

@<TRIPOS>ATOM
       1  C1         12.4550   29.5850   64.6420  C.3       1 <0>        -0.1143
       2  C2         12.5710   30.8930   63.9010  C.ar      1 <0>        -0.0935
       3  C3         13.7910   31.5510   63.8570  C.ar      1 <0>        -0.0944
       4  C4         13.9150   32.7470   63.1830  C.ar      1 <0>        -0.1094
       5  C5         12.8100   33.2960   62.5460  C.ar      1 <0>         0.0423
       6  C6         11.5740   32.6290   62.5930  C.ar      1 <0>         0.0470
       7  C7         11.4720   31.4180   63.2810  C.ar      1 <0>        -0.0635
       8  N1         10.6890   33.3890   61.8990  N.2       1 <0>        -0.4713
       9  C8         11.2880   34.4470   61.4360  C.2       1 <0>         0.2969
      10  N2         12.5970   34.4430   61.8090  N.pl3     1 <0>        -0.6023
      11  C9         10.6280   35.5250   60.6140  C.3       1 <0>        -0.0407
      12  S1          8.8320   35.4140   60.8070  S.3       1 <0>         0.0169
      13  C10         8.4270   34.4830   59.3670  C.ar      1 <0>         0.2067
      14  C11         8.1140   35.1410   58.1450  C.ar      1 <0>        -0.1654
      15  C12         8.0690   36.5870   57.8700  C.2       1 <0>        -0.1154
      16  C13         7.7470   36.9570   56.6210  C.2       1 <0>        -0.1629
      17  S2          7.4810   35.4350   55.7400  S.3       1 <0>         0.1577
      18  C14         7.8080   34.2990   57.0610  C.ar      1 <0>         0.1318
      19  N3          7.8140   32.9850   57.1850  N.ar      1 <0>        -0.4819
      20  C15         8.1110   32.4290   58.3440  C.ar      1 <0>         0.3558
      21  N4          8.4040   33.1590   59.4060  N.ar      1 <0>        -0.5349
      22  C16         8.1110   30.9270   58.4610  C.3       1 <0>        -0.0874
      23  C17         7.7360   38.4540   56.4560  C.3       1 <0>        -0.0420
      24  C18         8.5250   38.9820   57.6750  C.3       1 <0>        -0.1113
      25  C19         8.3130   37.8510   58.6990  C.3       1 <0>        -0.0616
@<TRIPOS>BOND
     1     1     2 1
     2     2     7 ar
     3     2     3 ar
     4     3     4 ar
     5     4     5 ar
     6     5    10 1
     7     5     6 ar
     8     6     7 ar
     9     6     8 1
    10     8     9 2
    11     9    10 1
    12     9    11 1
    13    11    12 1
    14    12    13 1
    15    13    21 ar
    16    13    14 ar
    17    14    18 ar
    18    14    15 1
    19    15    25 1
    20    15    16 2
    21    16    17 1
    22    16    23 1
    23    17    18 1
    24    18    19 ar
    25    19    20 ar
    26    20    21 ar
    27    20    22 1
    28    23    24 1
    29    24    25 1

@<TRIPOS>MOLECULE
ZINC05070399_replica-1.pdb
 21 23 0 0 0
SMALL
GASTEIGER

@<TRIPOS>ATOM
       1  C1         11.1400   34.4590   61.0010  C.3       1 <0>        -0.1497
       2  C2         10.4560   35.5670   60.1970  C.3       1 <0>        -0.0836
       3  C3          9.9900   36.6720   61.1480  C.3       1 <0>        -0.1187
       4  C4          9.3050   37.7810   60.3440  C.3       1 <0>        -0.1170
       5  C5          8.0980   37.2020   59.6030  C.3       1 <0>        -0.1303
       6  C6          8.5640   36.0970   58.6530  C.3       1 <0>         0.1525
       7  C7          9.2480   34.9890   59.4560  C.3       1 <0>        -0.0933
       8  C8          8.2590   34.4080   60.4690  C.3       1 <0>        -0.1558
       9  N1          7.4080   35.5430   57.9440  N.am      1 <0>        -0.7234
      10  C9          6.9390   36.1550   56.8370  C.2       1 <0>         0.5722
      11  O1          7.4770   37.1660   56.4280  O.2       1 <0>        -0.5303
      12  C10         5.7780   35.5980   56.1250  C.2       1 <0>        -0.1690
      13  C11         5.8810   35.1850   54.8170  C.2       1 <0>        -0.1812
      14  S1          4.2850   34.6210   54.4550  S.3       1 <0>         0.1255
      15  C12         3.5120   34.9300   56.0190  C.2       1 <0>        -0.1674
      16  C13         4.4880   35.4680   56.7830  C.2       1 <0>        -0.0676
      17  C14         4.2500   35.9210   58.2190  C.3       1 <0>        -0.0608
      18  C15         3.1010   35.1260   58.8300  C.3       1 <0>        -0.1274
      19  C16         1.7640   35.8300   58.5700  C.3       1 <0>        -0.1225
      20  C17         1.4980   35.9020   57.0700  C.3       1 <0>        -0.1142
      21  C18         2.0930   34.6530   56.4050  C.3       1 <0>        -0.0416
@<TRIPOS>BOND
     1     1     2 1
     2     2     7 1
     3     2     3 1
     4     3     4 1
     5     4     5 1
     6     5     6 1
     7     6     7 1
     8     6     9 1
     9     7     8 1
    10     9    10 am
    11    10    11 2
    12    10    12 1
    13    12    16 1
    14    12    13 2
    15    13    14 1
    16    14    15 1
    17    15    21 1
    18    15    16 2
    19    16    17 1
    20    17    18 1
    21    18    19 1
    22    19    20 1
    23    20    21 1

@<TRIPOS>MOLECULE
ZINC52250279_replica-1.pdb
 19 19 0 0 0
SMALL
GASTEIGER

@<TRIPOS>ATOM
       1  C1          5.5670   33.4790   57.7190  C.3       1 <0>        -0.1575
       2  C2          6.9020   34.1090   57.3190  C.3       1 <0>        -0.1282
       3  C3          7.5750   34.7080   58.5570  C.3       1 <0>        -0.1176
       4  C4          7.7340   33.6400   59.6080  C.2       1 <0>         0.4064
       5  O1          7.1760   33.7550   60.6740  O.2       1 <0>        -0.3859
       6  O2          8.4940   32.5630   59.3610  O.3       1 <0>        -0.3388
       7  C5          7.9290   31.2860   59.6640  C.3       1 <0>         0.0444
       8  C6          7.8030   30.4660   58.3780  C.3       1 <0>        -0.1524
       9  C7          8.9510   35.2570   58.1740  C.3       1 <0>         0.1559
      10  C8          9.9660   34.8930   59.2610  C.3       1 <0>        -0.1465
      11  C9          9.5250   35.5030   60.5940  C.3       1 <0>        -0.1546
      12  C10         9.4470   37.0240   60.4580  C.3       1 <0>        -0.0827
      13  C11         8.4330   37.3880   59.3710  C.3       1 <0>        -0.2372
      14  C12         8.8720   36.7790   58.0380  C.3       1 <0>        -0.0594
      15  C13         7.8580   37.1430   56.9530  C.3       1 <0>        -0.0629
      16  C14         6.4440   36.8410   57.4540  C.3       1 <0>        -0.2197
      17  C15         7.9750   38.6320   56.6230  C.3       1 <0>        -0.1414
      18  C16         8.1400   36.3180   55.6950  C.3       1 <0>        -0.1504
      19  O3          9.3610   34.6890   56.9290  O.3       1 <0>        -0.5338
@<TRIPOS>BOND
     1     1     2 1
     2     2     3 1
     3     3     4 1
     4     3     9 1
     5     4     5 2
     6     4     6 1
     7     6     7 1
     8     7     8 1
     9     9    14 1
    10     9    10 1
    11     9    19 1
    12    10    11 1
    13    11    12 1
    14    12    13 1
    15    13    14 1
    16    14    15 1
    17    15    16 1
    18    15    17 1
    19    15    18 1

@<TRIPOS>MOLECULE
ZINC66540901_replica-1.pdb
 23 25 0 0 0
SMALL
GASTEIGER

@<TRIPOS>ATOM
       1  C1         12.3630   30.3280   64.1520  C.3       1 <0>        -0.1533
       2  C2         12.9600   31.1770   63.0270  C.3       1 <0>         0.0801
       3  O1         13.0660   32.5340   63.4600  O.3       1 <0>        -0.3671
       4  C3         12.7630   33.4880   62.5590  C.2       1 <0>         0.6474
       5  O2         13.6500   34.1310   62.0330  O.2       1 <0>        -0.5690
       6  N1         11.4750   33.7310   62.2410  N.am      1 <0>        -0.7060
       7  C4         11.1460   34.7690   61.2610  C.3       1 <0>         0.1596
       8  C5         10.1790   34.2000   60.2210  C.3       1 <0>        -0.1286
       9  C6          9.8340   35.2840   59.1980  C.3       1 <0>        -0.1125
      10  C7          9.1780   36.4690   59.9110  C.3       1 <0>         0.0881
      11  C8         10.1460   37.0380   60.9510  C.3       1 <0>        -0.1314
      12  C9         10.4900   35.9530   61.9730  C.3       1 <0>        -0.1224
      13  O3          8.8570   37.4810   58.9550  O.3       1 <0>        -0.3449
      14  C10         7.5580   37.8220   58.8380  C.2       1 <0>         0.4925
      15  O4          7.2240   38.9870   58.9300  O.2       1 <0>        -0.4951
      16  C11         6.5450   36.7840   58.5990  C.2       1 <0>        -0.1993
      17  C12         6.2370   36.4280   57.3550  C.2       1 <0>         0.0445
      18  C13         5.0830   35.4940   57.1010  C.3       1 <0>        -0.1384
      19  C14         3.8080   36.0900   56.5010  C.3       1 <0>        -0.1721
      20  C15         3.8350   35.6600   57.9690  C.3       1 <0>        -0.1590
      21  C16         7.0440   36.9600   56.1980  C.3       1 <0>        -0.1201
      22  C17         7.0440   36.1450   54.9030  C.3       1 <0>        -0.1817
      23  C18         8.2920   36.1750   55.7880  C.3       1 <0>        -0.1425
@<TRIPOS>BOND
     1     1     2 1
     2     2     3 1
     3     3     4 1
     4     4     5 2
     5     4     6 am
     6     6     7 1
     7     7    12 1
     8     7     8 1
     9     8     9 1
    10     9    10 1
    11    10    11 1
    12    10    13 1
    13    11    12 1
    14    13    14 1
    15    14    15 2
    16    14    16 1
    17    16    17 2
    18    17    18 1
    19    17    21 1
    20    18    20 1
    21    18    19 1
    22    19    20 1
    23    21    23 1
    24    21    22 1
    25    22    23 1

@<TRIPOS>MOLECULE
ZINC67589665_replica-1.pdb
 19 19 0 0 0
SMALL
GASTEIGER

@<TRIPOS>ATOM
       1  C1          8.5640   38.6440   57.0110  C.3       1 <0>        -0.1541
       2  C2          7.5600   37.8850   57.8820  C.3       1 <0>        -0.1259
       3  C3          7.5500   38.4840   59.2900  C.3       1 <0>        -0.1204
       4  C4          7.8880   37.3960   60.3090  C.3       1 <0>        -0.1196
       5  C5          9.3690   37.0280   60.1920  C.3       1 <0>        -0.1273
       6  C6          9.5190   35.5060   60.1970  C.3       1 <0>         0.1566
       7  C7          9.9530   35.0320   58.8080  C.3       1 <0>        -0.1644
       8  N1         10.5290   35.1170   61.1840  N.am      1 <0>        -0.7393
       9  C8         10.5220   33.8730   61.7020  C.2       1 <0>         0.7091
      10  O1          9.6240   33.1030   61.4210  O.2       1 <0>        -0.5873
      11  N2         11.5100   33.4830   62.5310  N.am      1 <0>        -0.6274
      12  C9         12.5370   34.4360   62.9720  C.3       1 <0>         0.1092
      13  C10        13.9180   33.8510   62.6630  C.3       1 <0>        -0.1324
      14  C11        14.0340   32.4630   63.2990  C.3       1 <0>        -0.1169
      15  C12        12.9720   31.5360   62.7020  C.3       1 <0>         0.0780
      16  C13        11.5760   32.0980   63.0160  C.3       1 <0>         0.1100
      17  O2         13.1010   30.2340   63.2740  O.3       1 <0>        -0.3783
      18  C14        11.9750   29.8280   64.0550  C.3       1 <0>         0.0549
      19  C15        12.4630   29.1620   65.3440  C.3       1 <0>        -0.1518
@<TRIPOS>BOND
     1     1     2 1
     2     2     3 1
     3     3     4 1
     4     4     5 1
     5     5     6 1
     6     6     7 1
     7     6     8 1
     8     8     9 am
     9     9    10 2
    10     9    11 am
    11    11    16 1
    12    11    12 1
    13    12    13 1
    14    13    14 1
    15    14    15 1
    16    15    16 1
    17    15    17 1
    18    17    18 1
    19    18    19 1

@<TRIPOS>MOLECULE
ZINC35257340_replica-1.pdb
 17 17 0 0 0
SMALL
GASTEIGER

@<TRIPOS>ATOM
       1  C1         13.6160   34.0380   62.3800  C.3       1 <0>        -0.1542
       2  C2         12.1920   34.4600   62.7420  C.3       1 <0>        -0.1213
       3  C3         11.5610   35.1970   61.5580  C.3       1 <0>        -0.0854
       4  C4         10.6620   36.3210   62.0770  C.3       1 <0>        -0.1175
       5  C5         10.0320   37.0570   60.8920  C.3       1 <0>        -0.1295
       6  C6          9.1970   36.0770   60.0680  C.3       1 <0>        -0.0550
       7  C7         10.0960   34.9520   59.5490  C.3       1 <0>        -0.1190
       8  C8         10.7260   34.2150   60.7330  C.3       1 <0>        -0.1174
       9  N1          8.5930   36.7830   58.9310  N.4       1 <0>        -0.4290
      10  C9          7.1310   36.6570   58.9970  C.3       1 <0>        -0.0224
      11  C10         6.7600   35.2420   59.4450  C.3       1 <0>        -0.1440
      12  C11         6.5770   37.6710   60.0010  C.3       1 <0>        -0.1721
      13  C12         6.5310   36.9280   57.6160  C.3       1 <0>        -0.1044
      14  C13         7.6460   37.3180   56.6440  C.3       1 <0>        -0.0682
      15  C14         8.4960   38.4310   57.2610  C.3       1 <0>        -0.1738
      16  C15         8.5280   36.0990   56.3640  C.3       1 <0>        -0.1422
      17  C16         7.0300   37.8130   55.3340  C.3       1 <0>        -0.1640
@<TRIPOS>BOND
     1     1     2 1
     2     2     3 1
     3     3     8 1
     4     3     4 1
     5     4     5 1
     6     5     6 1
     7     6     7 1
     8     6     9 1
     9     7     8 1
    10     9    10 1
    11    10    11 1
    12    10    12 1
    13    10    13 1
    14    13    14 1
    15    14    15 1
    16    14    16 1
    17    14    17 1

@<TRIPOS>MOLECULE
ZINC66368291_replica-1.pdb
 20 20 0 0 0
SMALL
GASTEIGER

@<TRIPOS>ATOM
       1  C1         -0.7120   28.7030   53.7820  C.3       1 <0>        -0.1428
       2  C2         -1.1060   30.1620   54.0240  C.3       1 <0>        -0.1374
       3  C3         -0.6090   30.6020   55.4020  C.3       1 <0>         0.1673
       4  C4         -1.7850   30.6350   56.3810  C.3       1 <0>        -0.1048
       5  C5         -3.0940   30.7720   55.6010  C.3       1 <0>        -0.1513
       6  C6         -1.8090   29.3390   57.1940  C.3       1 <0>        -0.1477
       7  N1         -0.0180   31.9390   55.3040  N.am      1 <0>        -0.7393
       8  C7          1.0600   32.2540   56.0500  C.2       1 <0>         0.7082
       9  O1          1.5410   31.4310   56.8020  O.2       1 <0>        -0.5801
      10  N2          1.6040   33.4840   55.9600  N.am      1 <0>        -0.7487
      11  C8          2.7750   33.8290   56.7700  C.3       1 <0>         0.1697
      12  C9          4.0170   33.8710   55.8760  C.3       1 <0>        -0.1251
      13  C10         5.2400   34.2310   56.7220  C.3       1 <0>        -0.1218
      14  C11         5.0300   35.6000   57.3690  C.3       1 <0>        -0.1171
      15  C12         3.7890   35.5580   58.2620  C.3       1 <0>        -0.1171
      16  C13         2.5640   35.1980   57.4160  C.3       1 <0>        -0.1405
      17  C14         1.3230   35.1560   58.3100  C.3       1 <0>         0.4546
      18  F1          0.1820   35.3860   57.5340  F         1 <0>        -0.1781
      19  F2          1.2280   33.8990   58.9170  F         1 <0>        -0.1823
      20  F3          1.4240   36.1440   59.2940  F         1 <0>        -0.1816
@<TRIPOS>BOND
     1     1     2 1
     2     2     3 1
     3     3     4 1
     4     3     7 1
     5     4     5 1
     6     4     6 1
     7     7     8 am
     8     8     9 2
     9     8    10 am
    10    10    11 1
    11    11    16 1
    12    11    12 1
    13    12    13 1
    14    13    14 1
    15    14    15 1
    16    15    16 1
    17    16    17 1
    18    17    18 1
    19    17    19 1
    20    17    20 1

@<TRIPOS>MOLECULE
ZINC67589672_replica-1.pdb
 20 20 0 0 0
SMALL
GASTEIGER

@<TRIPOS>ATOM
       1  C1         -0.4280   33.7850   62.1860  C.3       1 <0>        -0.1518
       2  C2          0.6370   33.4550   61.1380  C.3       1 <0>         0.0548
       3  O1          0.6910   34.5030   60.1680  O.3       1 <0>        -0.3782
       4  C3          0.7470   34.0400   58.8170  C.3       1 <0>         0.0779
       5  C4          1.8720   34.7660   58.0750  C.3       1 <0>        -0.1168
       6  C5          1.9120   34.2940   56.6190  C.3       1 <0>        -0.1325
       7  C6          2.2010   32.7910   56.5820  C.3       1 <0>         0.1093
       8  N1          1.2070   32.0970   57.4140  N.am      1 <0>        -0.6271
       9  C7          1.0210   32.5330   58.8040  C.3       1 <0>         0.1099
      10  C8          0.4770   31.0820   56.9090  C.2       1 <0>         0.7091
      11  O2         -0.2760   30.4570   57.6310  O.2       1 <0>        -0.5873
      12  N2          0.5840   30.7590   55.6040  N.am      1 <0>        -0.7392
      13  C9         -0.2880   29.7310   55.0310  C.3       1 <0>         0.1569
      14  C10        -1.1630   30.3530   53.9420  C.3       1 <0>        -0.1645
      15  C11         0.5670   28.6180   54.4240  C.3       1 <0>        -0.1273
      16  C12        -0.2360   27.3150   54.3960  C.3       1 <0>        -0.1204
      17  C13         0.2590   26.4360   53.2450  C.3       1 <0>        -0.1151
      18  C14        -0.9020   26.1400   52.2940  C.3       1 <0>        -0.0977
      19  C15        -1.1600   27.3590   51.4070  C.3       1 <0>        -0.1505
      20  C16        -0.5490   24.9370   51.4170  C.3       1 <0>        -0.1489
@<TRIPOS>BOND
     1     1     2 1
     2     2     3 1
     3     3     4 1
     4     4     9 1
     5     4     5 1
     6     5     6 1
     7     6     7 1
     8     7     8 1
     9     8     9 1
    10     8    10 am
    11    10    11 2
    12    10    12 am
    13    12    13 1
    14    13    14 1
    15    13    15 1
    16    15    16 1
    17    16    17 1
    18    17    18 1
    19    18    19 1
    20    18    20 1

@<TRIPOS>MOLECULE
ZINC13783700_replica-1.pdb
 22 23 0 0 0
SMALL
GASTEIGER

@<TRIPOS>ATOM
       1  C1          8.1040   38.6330   58.0910  C.3       1 <0>        -0.1468
       2  C2          7.4490   37.2510   58.0420  C.3       1 <0>        -0.0441
       3  C3          6.3060   37.1690   59.0520  C.3       1 <0>        -0.1019
       4  C4          6.8260   37.0940   60.4820  C.3       1 <0>        -0.1212
       5  C5          7.7490   35.8840   60.6420  C.3       1 <0>        -0.1063
       6  C6          8.9360   36.0040   59.6910  C.3       1 <0>        -0.0304
       7  C7          8.4430   36.1070   58.2500  C.3       1 <0>        -0.0492
       8  C8          7.7390   34.8080   57.8330  C.3       1 <0>        -0.1188
       9  C9          8.6590   33.5890   57.9590  C.3       1 <0>        -0.0911
      10  C10         9.1740   33.5500   59.3810  C.2       1 <0>        -0.1063
      11  C11         9.0240   32.5000   60.1420  C.2       1 <0>        -0.2072
      12  C12         9.8740   34.7970   59.8550  C.3       1 <0>        -0.0475
      13  C13        10.3150   34.6460   61.3080  C.3       1 <0>        -0.1162
      14  C14        11.8350   34.7920   61.3970  C.3       1 <0>        -0.1504
      15  C15        12.3470   34.0440   62.6290  C.3       1 <0>         0.1586
      16  C16        13.7970   33.6140   62.4000  C.3       1 <0>        -0.1373
      17  C17        11.4920   32.8250   62.8670  C.2       1 <0>        -0.1874
      18  C18        12.0540   31.6730   63.1300  C.2       1 <0>        -0.1830
      19  O1         12.2800   34.9020   63.7700  O.3       1 <0>        -0.5539
      20  C19         9.7890   37.2150   60.1000  C.3       1 <0>        -0.1612
      21  C20         6.8240   37.1430   56.6330  C.3       1 <0>         0.0736
      22  O2          7.7040   37.7330   55.6730  O.3       1 <0>        -0.5696
@<TRIPOS>BOND
     1     1     2 1
     2     2     7 1
     3     2     3 1
     4     2    21 1
     5     3     4 1
     6     4     5 1
     7     5     6 1
     8     6    12 1
     9     6     7 1
    10     6    20 1
    11     7     8 1
    12     8     9 1
    13     9    10 1
    14    10    11 2
    15    10    12 1
    16    12    13 1
    17    13    14 1
    18    14    15 1
    19    15    16 1
    20    15    17 1
    21    15    19 1
    22    17    18 2
    23    21    22 1

@<TRIPOS>MOLECULE
ZINC04024383_replica-1.pdb
 24 25 0 0 0
SMALL
GASTEIGER

@<TRIPOS>ATOM
       1  C1         13.6280   31.9720   63.4790  C.3       1 <0>        -0.1535
       2  C2         14.5600   33.0420   62.9060  C.3       1 <0>        -0.1216
       3  C3         13.7290   34.1310   62.2250  C.3       1 <0>        -0.1329
       4  C4         12.2630   33.9880   62.6380  C.3       1 <0>         0.1346
       5  N1         11.4040   34.5500   61.5920  N.am      1 <0>        -0.7108
       6  C5         11.0060   35.8350   61.6660  C.2       1 <0>         0.6430
       7  O1         11.3600   36.5290   62.5990  O.2       1 <0>        -0.5717
       8  O2         10.2160   36.3510   60.7060  O.3       1 <0>        -0.3603
       9  C6          8.7940   36.0750   60.8030  C.3       1 <0>         0.0954
      10  C7          8.2060   35.9230   59.3980  C.3       1 <0>        -0.0788
      11  C8          6.8730   35.1960   59.5010  C.3       1 <0>         0.0734
      12  O3          6.1870   35.1690   58.2730  O.3       1 <0>        -0.3575
      13  C9          5.9230   36.4670   57.7310  C.3       1 <0>         0.1230
      14  C10         7.2780   37.1440   57.4530  C.3       1 <0>        -0.0670
      15  C11         7.9930   37.3170   58.8000  C.3       1 <0>        -0.0781
      16  C12         7.1290   38.1580   59.7420  C.3       1 <0>        -0.1633
      17  C13         8.0840   36.2050   56.5920  C.2       1 <0>        -0.1065
      18  C14         8.9090   35.3340   57.0770  C.2       1 <0>        -0.1444
      19  C15         9.1980   35.1500   58.5360  C.3       1 <0>        -0.0379
      20  C16         9.1070   33.6620   58.8790  C.3       1 <0>        -0.1517
      21  C17         7.9230   36.2860   55.0960  C.3       1 <0>        -0.1214
      22  C18         5.1450   36.3360   56.4460  C.2       1 <0>        -0.1688
      23  C19         4.5330   35.2130   56.1640  C.2       1 <0>        -0.1331
      24  C20         3.7540   35.0810   54.8800  C.3       1 <0>        -0.1292
@<TRIPOS>BOND
     1     1     2 1
     2     2     3 1
     3     3     4 1
     4     4     5 1
     5     5     6 am
     6     6     7 2
     7     6     8 1
     8     8     9 1
     9     9    10 1
    10    10    15 1
    11    10    19 1
    12    10    11 1
    13    11    12 1
    14    12    13 1
    15    13    14 1
    16    13    22 1
    17    14    15 1
    18    14    17 1
    19    15    16 1
    20    17    18 2
    21    17    21 1
    22    18    19 1
    23    19    20 1
    24    22    23 2
    25    23    24 1

@<TRIPOS>MOLECULE
ZINC17032039_replica-1.pdb
 21 21 0 0 0
SMALL
GASTEIGER

@<TRIPOS>ATOM
       1  C1         -1.5800   30.6060   54.5650  C.3       1 <0>        -0.1509
       2  C2         -0.0710   30.3540   54.6180  C.3       1 <0>        -0.0864
       3  C3          0.2050   28.8670   54.3880  C.3       1 <0>        -0.1076
       4  C4         -0.8790   28.2810   53.4820  C.3       1 <0>        -0.0959
       5  C5         -0.4530   26.9150   53.0070  C.2       1 <0>        -0.1691
       6  C6         -0.8960   26.4510   51.8650  C.2       1 <0>        -0.1326
       7  C7         -1.7330   27.3270   50.9690  C.3       1 <0>        -0.1195
       8  C8         -0.5670   25.0410   51.4470  C.3       1 <0>        -0.1191
       9  C9          0.4670   30.7670   55.9880  C.3       1 <0>        -0.0713
      10  C10         1.0040   32.1730   55.9150  C.2       1 <0>         0.1161
      11  N1          2.2020   32.4220   56.2920  N.2       1 <0>        -0.2899
      12  N2          3.0070   33.2880   55.5410  N.pl3     1 <0>        -0.5467
      13  C11         4.2240   33.6440   55.9990  C.2       1 <0>         0.5929
      14  S1          5.0920   32.5880   57.0300  S.2       1 <0>        -0.6231
      15  N3          4.7600   34.8270   55.6400  N.pl3     1 <0>        -0.6593
      16  C12         6.0830   35.2120   56.1370  C.3       1 <0>         0.1384
      17  C13         5.9250   36.1860   57.3070  C.3       1 <0>        -0.1276
      18  C14         7.3060   36.5900   57.8250  C.3       1 <0>        -0.1147
      19  C15         8.0960   37.2650   56.7020  C.3       1 <0>        -0.1238
      20  C16         8.2550   36.2900   55.5340  C.3       1 <0>        -0.1142
      21  C17         6.8730   35.8880   55.0140  C.3       1 <0>        -0.1269
@<TRIPOS>BOND
     1     1     2 1
     2     2     3 1
     3     2     9 1
     4     3     4 1
     5     4     5 1
     6     5     6 2
     7     6     7 1
     8     6     8 1
     9     9    10 1
    10    10    11 2
    11    11    12 1
    12    12    13 1
    13    13    14 2
    14    13    15 1
    15    15    16 1
    16    16    21 1
    17    16    17 1
    18    17    18 1
    19    18    19 1
    20    19    20 1
    21    20    21 1

@<TRIPOS>MOLECULE
ZINC43735636_replica-1.pdb
 28 31 0 0 0
SMALL
GASTEIGER

@<TRIPOS>ATOM
       1  C1          8.5370   38.6470   57.6910  C.3       1 <0>        -0.1351
       2  C2          8.2450   37.2810   57.0670  C.3       1 <0>        -0.1045
       3  C3          6.7480   37.1900   56.6620  C.3       1 <0>        -0.1112
       4  C4          6.3950   35.7320   56.9760  C.3       1 <0>        -0.0805
       5  C5          4.9210   35.4390   57.1820  C.3       1 <0>        -0.0673
       6  C6          4.1620   35.6820   55.8710  C.3       1 <0>        -0.0839
       7  C7          2.7400   35.2300   56.0330  C.2       1 <0>        -0.1464
       8  C8          2.3810   34.3070   56.8760  C.2       1 <0>        -0.1070
       9  C9          0.9120   33.9240   56.9420  C.3       1 <0>        -0.0993
      10  C10         0.8020   32.4030   56.8080  C.3       1 <0>         0.0906
      11  C11         1.6660   31.7320   57.8770  C.3       1 <0>        -0.1175
      12  C12         3.1380   32.0790   57.6430  C.3       1 <0>        -0.1030
      13  C13         3.3330   33.5910   57.7880  C.3       1 <0>        -0.0132
      14  C14         4.7910   33.9580   57.5650  C.3       1 <0>        -0.0675
      15  C15         5.6230   33.6170   58.7990  C.3       1 <0>        -0.1182
      16  C16         7.0920   34.0360   58.6280  C.3       1 <0>        -0.1030
      17  C17         7.1180   35.5200   58.3330  C.3       1 <0>        -0.0691
      18  C18         8.4860   36.1580   58.1060  C.3       1 <0>         0.1577
      19  N1          8.9950   36.7260   59.3570  N.am      1 <0>        -0.7218
      20  C19         9.9330   36.0650   60.0640  C.2       1 <0>         0.5092
      21  O1         10.3550   35.0010   59.6660  O.2       1 <0>        -0.5461
      22  C20        10.4560   36.6490   61.3510  C.3       1 <0>        -0.1739
      23  C21         6.3690   36.2610   59.4420  C.3       1 <0>        -0.1563
      24  C22         2.9970   33.9780   59.2290  C.3       1 <0>        -0.1525
      25  O2         -0.5600   32.0070   56.9780  O.3       1 <0>        -0.3487
      26  C23        -1.1370   31.3520   55.9580  C.2       1 <0>         0.4575
      27  O3         -2.3260   31.1380   55.9700  O.2       1 <0>        -0.5118
      28  C24        -0.2990   30.8840   54.7950  C.3       1 <0>        -0.1479
@<TRIPOS>BOND
     1     1     2 1
     2     2    18 1
     3     2     3 1
     4     3     4 1
     5     4    17 1
     6     4     5 1
     7     5    14 1
     8     5     6 1
     9     6     7 1
    10     7     8 2
    11     8    13 1
    12     8     9 1
    13     9    10 1
    14    10    11 1
    15    10    25 1
    16    11    12 1
    17    12    13 1
    18    13    14 1
    19    13    24 1
    20    14    15 1
    21    15    16 1
    22    16    17 1
    23    17    18 1
    24    17    23 1
    25    18    19 1
    26    19    20 am
    27    20    21 2
    28    20    22 1
    29    25    26 1
    30    26    27 2
    31    26    28 1

@<TRIPOS>MOLECULE
ZINC52254656_replica-1.pdb
 17 17 0 0 0
SMALL
GASTEIGER

@<TRIPOS>ATOM
       1  C1         10.9550   35.6750   61.5150  C.3       1 <0>        -0.1527
       2  C2         10.4020   34.5790   60.6020  C.3       1 <0>         0.0558
       3  O1         10.0890   35.1370   59.3240  O.3       1 <0>        -0.3423
       4  C3          8.8170   35.5170   59.1200  C.2       1 <0>         0.4767
       5  O2          7.9620   35.2200   59.9210  O.2       1 <0>        -0.5093
       6  C4          8.4570   36.3130   57.8920  C.3       1 <0>        -0.1097
       7  C5          8.1330   37.7530   58.2960  C.3       1 <0>        -0.0829
       8  C6          8.8520   38.0910   59.6040  C.3       1 <0>        -0.1633
       9  C7          8.6010   38.7080   57.1950  C.3       1 <0>        -0.1575
      10  C8          7.2350   35.6860   57.2190  C.3       1 <0>         0.1600
      11  C9          5.9630   36.3490   57.7520  C.3       1 <0>        -0.1057
      12  C10         4.7410   35.7210   57.0780  C.3       1 <0>        -0.1176
      13  C11         4.8290   35.9290   55.5650  C.3       1 <0>        -0.1165
      14  C12         6.1000   35.2660   55.0330  C.3       1 <0>        -0.0818
      15  C13         7.3230   35.8940   55.7060  C.3       1 <0>        -0.1516
      16  C14         6.0620   33.7680   55.3390  C.3       1 <0>        -0.1555
      17  O3          7.1980   34.2860   57.5060  O.3       1 <0>        -0.5454
@<TRIPOS>BOND
     1     1     2 1
     2     2     3 1
     3     3     4 1
     4     4     5 2
     5     4     6 1
     6     6     7 1
     7     6    10 1
     8     7     8 1
     9     7     9 1
    10    10    15 1
    11    10    11 1
    12    10    17 1
    13    11    12 1
    14    12    13 1
    15    13    14 1
    16    14    15 1
    17    14    16 1

@<TRIPOS>MOLECULE
ZINC20524304_replica-1.pdb
 17 17 0 0 0
SMALL
GASTEIGER

@<TRIPOS>ATOM
       1  C1          7.8580   33.1710   56.5990  C.3       1 <0>        -0.1886
       2  C2          7.2410   34.5590   56.7850  C.3       1 <0>         0.0309
       3  C3          6.3150   34.5460   58.0030  C.3       1 <0>        -0.1279
       4  C4          5.0040   35.2540   57.6560  C.3       1 <0>         0.1188
       5  C5          3.9670   34.2180   57.2170  C.3       1 <0>        -0.1860
       6  C6          4.4880   36.0030   58.8870  C.3       1 <0>        -0.1942
       7  O1          5.2310   36.1820   56.5940  O.3       1 <0>        -0.3769
       8  C7          4.1450   36.2850   55.6710  C.3       1 <0>         0.0154
       9  N1          8.3080   35.5470   56.9910  N.4       1 <0>        -0.5421
      10  C8          8.5280   35.7930   58.4220  C.3       1 <0>         0.0225
      11  C9          8.6300   37.3000   58.6700  C.3       1 <0>        -0.1472
      12  C10         7.6450   37.7050   59.7680  C.3       1 <0>        -0.1242
      13  C11         7.7120   36.6900   60.9120  C.3       1 <0>        -0.1430
      14  C12         8.9780   36.9350   61.7360  C.3       1 <0>        -0.1271
      15  C13        10.1920   36.3980   60.9750  C.3       1 <0>        -0.1341
      16  C14         9.8620   35.0240   60.3890  C.3       1 <0>        -0.1278
      17  C15         9.8270   35.1140   58.8620  C.3       1 <0>        -0.1399
@<TRIPOS>BOND
     1     1     2 1
     2     2     3 1
     3     2     9 1
     4     3     4 1
     5     4     5 1
     6     4     6 1
     7     4     7 1
     8     7     8 1
     9     9    10 1
    10    10    17 1
    11    10    11 1
    12    11    12 1
    13    12    13 1
    14    13    14 1
    15    14    15 1
    16    15    16 1
    17    16    17 1

@<TRIPOS>MOLECULE
ZINC48854936_replica-1.pdb
 20 20 0 0 0
SMALL
GASTEIGER

@<TRIPOS>ATOM
       1  C1          0.4290   27.6500   55.4670  C.3       1 <0>        -0.0865
       2  C2         -0.4380   28.1850   54.3570  C.2       1 <0>         0.0875
       3  C3         -1.0460   29.3960   54.4520  C.2       1 <0>        -0.2251
       4  S1         -1.8950   29.4620   52.8830  S.3       1 <0>         0.1006
       5  C4         -1.3940   27.9700   52.2860  C.2       1 <0>         0.0652
       6  N1         -0.6360   27.5030   53.2470  N.2       1 <0>        -0.5151
       7  C5         -1.7310   27.3300   50.9640  C.3       1 <0>        -0.0686
       8  C6         -1.0130   30.4040   55.5720  C.3       1 <0>         0.2587
       9  C7         -2.4230   30.9500   55.8080  C.3       1 <0>        -0.1620
      10  N2         -0.1160   31.5040   55.2120  N.am      1 <0>        -0.7401
      11  C8          0.9650   31.7680   55.9720  C.2       1 <0>         0.7114
      12  O1          1.1970   31.0930   56.9560  O.2       1 <0>        -0.5794
      13  N3          1.7910   32.7820   55.6400  N.am      1 <0>        -0.7436
      14  C9          2.9660   33.0680   56.4660  C.3       1 <0>         0.1579
      15  C10         2.7170   34.3340   57.2870  C.3       1 <0>        -0.1187
      16  S2          2.4860   33.8900   59.0300  S.3       1 <0>        -0.1360
      17  C11         0.6850   33.8640   59.2420  C.3       1 <0>         0.4659
      18  F1          0.0700   34.2510   58.0460  F         1 <0>        -0.1672
      19  F2          0.2730   32.5700   59.5800  F         1 <0>        -0.1449
      20  F3          0.3210   34.7510   60.2610  F         1 <0>        -0.1673
@<TRIPOS>BOND
     1     1     2 1
     2     2     6 1
     3     2     3 2
     4     3     4 1
     5     3     8 1
     6     4     5 1
     7     5     6 2
     8     5     7 1
     9     8     9 1
    10     8    10 1
    11    10    11 am
    12    11    12 2
    13    11    13 am
    14    13    14 1
    15    14    15 1
    16    15    16 1
    17    16    17 1
    18    17    18 1
    19    17    19 1
    20    17    20 1

@<TRIPOS>MOLECULE
ZINC17003458_replica-1.pdb
 29 32 0 0 0
SMALL
GASTEIGER

@<TRIPOS>ATOM
       1  C1         14.1130   32.9390   63.0810  C.3       1 <0>        -0.1440
       2  C2         13.6730   34.1020   62.1900  C.3       1 <0>        -0.1180
       3  C3         12.1720   34.0920   62.0560  C.2       1 <0>         0.4557
       4  O1         11.5080   33.3610   62.7520  O.2       1 <0>        -0.5081
       5  O2         11.5720   34.8950   61.1640  O.3       1 <0>        -0.3427
       6  C4         10.1840   35.2270   61.4070  C.3       1 <0>         0.0872
       7  C5          9.9680   36.7600   61.3510  C.3       1 <0>        -0.1395
       8  C6          8.7020   36.9960   60.4800  C.3       1 <0>        -0.1119
       9  C7          8.0710   35.5990   60.3990  C.3       1 <0>        -0.0714
      10  C8          9.3100   34.6940   60.2490  C.3       1 <0>        -0.0514
      11  C9          8.9500   33.2350   60.3620  C.3       1 <0>        -0.1057
      12  C10         7.5650   32.9550   59.7580  C.3       1 <0>        -0.1073
      13  C11         7.2210   33.9890   58.6980  C.3       1 <0>        -0.0715
      14  C12         7.0390   35.3600   59.3470  C.3       1 <0>        -0.0698
      15  C13         6.9720   36.4010   58.2330  C.3       1 <0>        -0.1111
      16  C14         5.6240   36.2370   57.5310  C.3       1 <0>        -0.1061
      17  C15         5.1970   34.8000   57.4240  C.2       1 <0>         0.0698
      18  C16         3.9830   34.5740   56.8490  C.2       1 <0>        -0.2570
      19  C17         3.4930   33.1870   56.7330  C.2       1 <0>         0.4006
      20  O3          2.5790   32.9420   55.9460  O.2       1 <0>        -0.4619
      21  C18         4.0770   32.0650   57.5440  C.3       1 <0>        -0.1427
      22  C19         5.1500   32.5570   58.5120  C.3       1 <0>        -0.1084
      23  C20         6.0050   33.6330   57.8760  C.3       1 <0>        -0.0294
      24  C21         6.5830   33.0130   56.6010  C.3       1 <0>        -0.1540
      25  S1          3.0130   35.9340   56.2440  S.3       1 <0>        -0.0157
      26  C22         1.6840   35.8540   57.3210  C.2       1 <0>         0.3151
      27  O4          0.5510   35.8510   56.8860  O.2       1 <0>        -0.4473
      28  C23         1.9220   35.7880   58.8070  C.3       1 <0>        -0.1694
      29  C24        10.0850   34.9710   58.9580  C.3       1 <0>        -0.1375
@<TRIPOS>BOND
     1     1     2 1
     2     2     3 1
     3     3     4 2
     4     3     5 1
     5     5     6 1
     6     6    10 1
     7     6     7 1
     8     7     8 1
     9     8     9 1
    10     9    14 1
    11     9    10 1
    12    10    11 1
    13    10    29 1
    14    11    12 1
    15    12    13 1
    16    13    23 1
    17    13    14 1
    18    14    15 1
    19    15    16 1
    20    16    17 1
    21    17    23 1
    22    17    18 2
    23    18    19 1
    24    18    25 1
    25    19    20 2
    26    19    21 1
    27    21    22 1
    28    22    23 1
    29    23    24 1
    30    25    26 1
    31    26    27 2
    32    26    28 1

@<TRIPOS>MOLECULE
ZINC05368215_replica-1.pdb
 20 20 0 0 0
SMALL
GASTEIGER

@<TRIPOS>ATOM
       1  C1          7.8970   34.8660   57.4800  C.3       1 <0>        -0.1597
       2  C2          6.8470   35.9590   57.6920  C.3       1 <0>        -0.1086
       3  C3          7.4930   37.1580   58.3890  C.3       1 <0>        -0.1013
       4  C4          8.8950   36.7750   58.8670  C.3       1 <0>        -0.1295
       5  C5          9.2150   37.5230   60.1640  C.3       1 <0>        -0.1193
       6  C6         10.0830   36.6390   61.0610  C.3       1 <0>        -0.1199
       7  C7         10.3850   35.3230   60.3410  C.3       1 <0>        -0.1194
       8  C8         11.3540   34.4910   61.1850  C.3       1 <0>        -0.1202
       9  C9         11.9390   35.3630   62.2960  C.3       1 <0>        -0.0988
      10  C10        12.5070   34.4690   63.4000  C.3       1 <0>        -0.1584
      11  C11        13.5440   33.5450   62.8150  C.2       1 <0>         0.4567
      12  O1         14.5300   34.0010   62.2840  O.co2     1 <0>        -0.6427
      13  S1          6.1860   36.4770   56.0890  S.3       1 <0>         0.1097
      14  C12         4.8980   35.2920   55.8910  C.2       1 <0>         0.0685
      15  N1          4.3530   34.8430   54.7900  N.2       1 <0>        -0.2491
      16  N2          3.3470   33.9060   54.8390  N.pl3     1 <0>        -0.4568
      17  C13         2.9330   33.4600   56.0530  C.2       1 <0>         0.2505
      18  S2          1.7200   32.3140   56.4330  S.2       1 <0>        -0.3979
      19  S3          4.0010   34.3860   57.1430  S.3       1 <0>         0.0643
      20  O2         13.3750   32.2150   62.8840  O.co2     1 <0>        -0.7796
@<TRIPOS>BOND
     1     1     2 1
     2     2     3 1
     3     2    13 1
     4     3     4 1
     5     4     5 1
     6     5     6 1
     7     6     7 1
     8     7     8 1
     9     8     9 1
    10     9    10 1
    11    10    11 1
    12    11    12 2
    13    11    20 1
    14    13    14 1
    15    14    19 1
    16    14    15 2
    17    15    16 1
    18    16    17 1
    19    17    18 2
    20    17    19 1

@<TRIPOS>MOLECULE
ZINC06563073_replica-1.pdb
 29 32 0 0 0
SMALL
GASTEIGER

@<TRIPOS>ATOM
       1  C1          0.1010   30.6620   55.0600  C.3       1 <0>        -0.1488
       2  C2         -1.1020   31.2260   55.7700  C.2       1 <0>         0.4580
       3  O1         -2.2080   31.0490   55.3170  O.2       1 <0>        -0.5142
       4  O2         -0.9440   31.9250   56.9050  O.3       1 <0>        -0.3551
       5  C3          0.4110   32.3230   57.2500  C.3       1 <0>         0.0925
       6  C4          0.6450   32.0850   58.7380  C.3       1 <0>        -0.1352
       7  C5          2.0330   32.5740   59.1680  C.3       1 <0>        -0.1001
       8  C6          2.1910   34.0460   58.8080  C.3       1 <0>        -0.0495
       9  C7          2.0170   34.2070   57.2980  C.3       1 <0>        -0.0754
      10  C8          0.6120   33.7980   56.8830  C.3       1 <0>        -0.1077
      11  C9          2.3980   35.6120   56.8540  C.3       1 <0>        -0.1106
      12  C10         3.9200   35.7750   57.0100  C.3       1 <0>        -0.1111
      13  C11         4.4400   34.7050   57.9590  C.3       1 <0>        -0.0688
      14  C12         3.5550   34.6110   59.2020  C.3       1 <0>        -0.0712
      15  C13         4.2360   33.7710   60.2710  C.3       1 <0>        -0.1068
      16  C14         5.5110   34.4550   60.7930  C.3       1 <0>        -0.1060
      17  C15         6.0940   35.3820   59.7620  C.3       1 <0>        -0.0251
      18  C16         5.8860   34.8550   58.3290  C.3       1 <0>        -0.0720
      19  C17         6.7070   35.8520   57.4960  C.3       1 <0>        -0.1164
      20  C18         7.9420   36.1480   58.3880  C.3       1 <0>        -0.1301
      21  C19         7.6230   35.5660   59.7900  C.3       1 <0>         0.2384
      22  C20         8.3350   34.3000   59.9820  C.1       1 <0>        -0.1971
      23  C21         8.9060   33.2860   60.1350  C.1       1 <0>        -0.1645
      24  O3          7.9810   36.5200   60.8230  O.3       1 <0>        -0.3376
      25  C22         9.1610   37.1470   60.6900  C.2       1 <0>         0.4533
      26  O4          9.2380   38.1570   60.0320  O.2       1 <0>        -0.5001
      27  C23        10.3900   36.5880   61.3600  C.3       1 <0>        -0.1486
      28  C24         5.5030   36.7920   59.9320  C.3       1 <0>        -0.1428
      29  C25         1.1320   34.8620   59.5530  C.3       1 <0>        -0.1470
@<TRIPOS>BOND
     1     1     2 1
     2     2     3 2
     3     2     4 1
     4     4     5 1
     5     5    10 1
     6     5     6 1
     7     6     7 1
     8     7     8 1
     9     8    14 1
    10     8     9 1
    11     8    29 1
    12     9    10 1
    13     9    11 1
    14    11    12 1
    15    12    13 1
    16    13    18 1
    17    13    14 1
    18    14    15 1
    19    15    16 1
    20    16    17 1
    21    17    21 1
    22    17    18 1
    23    17    28 1
    24    18    19 1
    25    19    20 1
    26    20    21 1
    27    21    22 1
    28    21    24 1
    29    22    23 3
    30    24    25 1
    31    25    26 2
    32    25    27 1

@<TRIPOS>MOLECULE
ZINC37011896_replica-1.pdb
 19 20 0 0 0
SMALL
GASTEIGER

@<TRIPOS>ATOM
       1  C1         12.9720   30.4950   63.6000  C.3       1 <0>        -0.1542
       2  C2         13.0580   31.9360   63.0920  C.3       1 <0>        -0.1283
       3  C3         11.6740   32.5840   63.1620  C.3       1 <0>        -0.1271
       4  C4         11.6870   33.8960   62.3750  C.3       1 <0>         0.1446
       5  C5         13.1330   34.3070   62.0910  C.3       1 <0>        -0.1743
       6  N1         10.9730   33.7140   61.1090  N.pl3     1 <0>        -0.6613
       7  C6         10.3420   34.7850   60.5120  C.2       1 <0>         0.4270
       8  N2          9.7890   34.8580   59.3220  N.2       1 <0>        -0.5868
       9  C7          9.1990   35.9840   58.8630  C.ar      1 <0>         0.1344
      10  C8          8.5730   36.1940   57.6140  C.ar      1 <0>        -0.0380
      11  C9          8.0190   37.4080   57.3030  C.ar      1 <0>        -0.1584
      12  C10         8.0500   38.4690   58.1970  C.ar      1 <0>        -0.0802
      13  C11         8.6550   38.2990   59.4290  C.ar      1 <0>        -0.0470
      14  C12         9.2120   37.0860   59.7480  C.ar      1 <0>        -0.1485
      15  S1         10.0590   36.4260   61.1640  S.3       1 <0>        -0.0003
      16  C13         7.3600   37.5950   55.9610  C.3       1 <0>         0.5105
      17  F1          7.4040   38.9490   55.6040  F         1 <0>        -0.1739
      18  F2          8.0370   36.8380   55.0000  F         1 <0>        -0.1737
      19  F3          6.0280   37.1760   56.0310  F         1 <0>        -0.1750
@<TRIPOS>BOND
     1     1     2 1
     2     2     3 1
     3     3     4 1
     4     4     5 1
     5     4     6 1
     6     6     7 1
     7     7    15 1
     8     7     8 2
     9     8     9 1
    10     9    14 ar
    11     9    10 ar
    12    10    11 ar
    13    11    12 ar
    14    11    16 1
    15    12    13 ar
    16    13    14 ar
    17    14    15 1
    18    16    17 1
    19    16    18 1
    20    16    19 1

@<TRIPOS>MOLECULE
ZINC37787516_replica-1.pdb
 19 19 0 0 0
SMALL
GASTEIGER

@<TRIPOS>ATOM
       1  C1          7.3550   38.4360   56.1960  C.3       1 <0>        -0.1531
       2  C2          8.3600   37.4400   56.7780  C.3       1 <0>        -0.1193
       3  C3          8.3320   36.1480   55.9580  C.3       1 <0>        -0.0851
       4  C4          6.9610   35.9930   55.2980  C.3       1 <0>        -0.1556
       5  C5          8.5930   34.9550   56.8780  C.3       1 <0>        -0.1293
       6  C6          8.5830   35.4220   58.3360  C.3       1 <0>         0.1442
       7  C7          9.9230   35.0800   58.9900  C.3       1 <0>        -0.1354
       8  C8         10.1310   35.9670   60.2200  C.3       1 <0>        -0.1526
       9  N1          7.5010   34.7480   59.0570  N.pl3     1 <0>        -0.7345
      10  C9          6.1750   35.2050   58.9250  C.2       1 <0>         0.0668
      11  C10         5.6670   36.4150   59.4180  C.2       1 <0>         0.0419
      12  N2          4.3990   36.4890   59.1000  N.2       1 <0>        -0.2735
      13  N3          4.0530   35.3300   58.3930  N.pl3     1 <0>        -0.3630
      14  C11         5.1650   34.5550   58.2930  C.2       1 <0>         0.0070
      15  C12         5.2580   33.2170   57.6080  C.3       1 <0>        -0.0801
      16  C13         2.7280   35.0130   57.8540  C.3       1 <0>         0.1640
      17  C14         1.6510   35.5700   58.7880  C.3       1 <0>        -0.1609
      18  C15         2.5770   35.6420   56.4680  C.3       1 <0>        -0.1611
      19  C16         6.4470   37.4540   60.1830  C.3       1 <0>        -0.0906
@<TRIPOS>BOND
     1     1     2 1
     2     2     3 1
     3     3     4 1
     4     3     5 1
     5     5     6 1
     6     6     7 1
     7     6     9 1
     8     7     8 1
     9     9    10 1
    10    10    14 2
    11    10    11 1
    12    11    12 2
    13    11    19 1
    14    12    13 1
    15    13    14 1
    16    13    16 1
    17    14    15 1
    18    16    17 1
    19    16    18 1

@<TRIPOS>MOLECULE
ZINC06046403_replica-1.pdb
 25 26 0 0 0
SMALL
GASTEIGER

@<TRIPOS>ATOM
       1  C1          0.8190   35.9150   57.0220  C.3       1 <0>        -0.1652
       2  C2          1.8090   34.7500   57.0740  C.3       1 <0>         0.1282
       3  N1          1.4380   33.8430   58.1630  N.pl3     1 <0>        -0.5757
       4  C3          1.4430   34.3190   59.5470  C.3       1 <0>         0.1287
       5  C4          2.8600   34.2210   60.1170  C.3       1 <0>        -0.1650
       6  C5          1.0830   32.5380   57.8830  C.ar      1 <0>         0.6528
       7  N2          1.0840   32.1040   56.6260  N.ar      1 <0>        -0.6801
       8  C6          0.7420   30.8480   56.3570  C.ar      1 <0>         0.6509
       9  N3          0.4000   30.0260   57.3440  N.ar      1 <0>        -0.6738
      10  C7          0.4000   30.4600   58.6000  C.ar      1 <0>         0.6519
      11  N4          0.7460   31.7140   58.8700  N.ar      1 <0>        -0.6734
      12  N5          0.0440   29.6070   59.6250  N.pl3     1 <0>        -0.5752
      13  C8         -0.3330   28.2230   59.3280  C.3       1 <0>         0.1286
      14  C9         -1.8490   28.0670   59.4600  C.3       1 <0>        -0.1647
      15  C10         0.0430   30.0850   61.0100  C.3       1 <0>         0.1286
      16  C11         0.9700   29.2080   61.8520  C.3       1 <0>        -0.1649
      17  N6          0.7430   30.3980   55.0520  N.pl3     1 <0>        -0.6917
      18  C12         0.3670   29.0130   54.7560  C.3       1 <0>         0.1476
      19  C13        -1.0280   28.9890   54.1270  C.3       1 <0>        -0.1006
      20  C14        -1.0710   27.9440   53.0420  C.2       1 <0>        -0.1187
      21  C15        -0.3910   26.8580   53.2170  C.2       1 <0>        -0.1472
      22  C16        -0.3270   25.7350   52.2230  C.3       1 <0>        -0.0911
      23  C17        -1.4740   25.8560   51.2170  C.3       1 <0>        -0.1219
      24  C18        -1.5000   27.2930   50.6820  C.3       1 <0>        -0.1202
      25  C19        -1.9070   28.2260   51.8270  C.3       1 <0>        -0.0833
@<TRIPOS>BOND
     1     1     2 1
     2     2     3 1
     3     3     4 1
     4     3     6 1
     5     4     5 1
     6     6    11 ar
     7     6     7 ar
     8     7     8 ar
     9     8     9 ar
    10     8    17 1
    11     9    10 ar
    12    10    11 ar
    13    10    12 1
    14    12    13 1
    15    12    15 1
    16    13    14 1
    17    15    16 1
    18    17    18 1
    19    18    19 1
    20    19    20 1
    21    20    25 1
    22    20    21 2
    23    21    22 1
    24    22    23 1
    25    23    24 1
    26    24    25 1

@<TRIPOS>MOLECULE
ZINC38173754_replica-1.pdb
 23 24 0 0 0
SMALL
GASTEIGER

@<TRIPOS>ATOM
       1  C1          6.5950   35.5450   55.2040  C.3       1 <0>        -0.1546
       2  C2          7.5330   36.7440   55.0420  C.3       1 <0>        -0.1262
       3  C3          7.0070   37.9180   55.8710  C.3       1 <0>        -0.1211
       4  C4          8.1440   38.4910   56.7190  C.3       1 <0>        -0.1227
       5  C5          7.8700   38.2100   58.1980  C.3       1 <0>        -0.1149
       6  C6          8.9730   37.3100   58.7590  C.3       1 <0>        -0.0927
       7  C7          8.7050   35.8600   58.3510  C.3       1 <0>        -0.1118
       8  C8          9.8080   34.9600   58.9120  C.3       1 <0>        -0.1321
       9  C9          9.8240   35.0650   60.4390  C.3       1 <0>         0.1108
      10  C10        10.0910   36.5150   60.8480  C.3       1 <0>        -0.1323
      11  C11         8.9890   37.4140   60.2850  C.3       1 <0>        -0.1107
      12  N1         10.8800   34.2030   60.9760  N.pl3     1 <0>        -0.6196
      13  C12        11.6290   34.6240   62.0060  C.2       1 <0>         0.3317
      14  C13        12.5810   33.7710   62.5710  C.ar      1 <0>        -0.3553
      15  C14        13.9270   34.1780   62.7010  C.ar      1 <0>         0.0619
      16  C15        14.8380   33.3350   63.2530  C.ar      1 <0>        -0.2434
      17  C16        14.4790   32.0670   63.7000  C.ar      1 <0>         0.0803
      18  C17        13.1980   31.6140   63.6040  C.ar      1 <0>        -0.2116
      19  C18        12.2030   32.4360   63.0490  C.ar      1 <0>         0.4243
      20  O1         11.0480   32.0450   62.9610  O.3       1 <0>        -0.5101
      21  N2         12.8540   30.2580   64.0900  N.pl3     1 <0>         0.0538
      22  O2         12.6860   30.0640   65.2710  O.2       1 <0>        -0.2054
      23  O3         12.7420   29.3450   63.3050  O.3       1 <0>        -0.1456
@<TRIPOS>BOND
     1     1     2 1
     2     2     3 1
     3     3     4 1
     4     4     5 1
     5     5     6 1
     6     6    11 1
     7     6     7 1
     8     7     8 1
     9     8     9 1
    10     9    10 1
    11     9    12 1
    12    10    11 1
    13    12    13 2
    14    13    14 1
    15    14    19 ar
    16    14    15 ar
    17    15    16 ar
    18    16    17 ar
    19    17    18 ar
    20    18    19 ar
    21    18    21 1
    22    19    20 1
    23    21    22 2
    24    21    23 1

@<TRIPOS>MOLECULE
ZINC55014415_replica-1.pdb
 19 19 0 0 0
SMALL
GASTEIGER

@<TRIPOS>ATOM
       1  C1          5.8140   37.3140   59.9290  C.3       1 <0>        -0.1662
       2  C2          6.5830   36.1730   59.2590  C.3       1 <0>         0.1469
       3  C3          8.0160   36.6240   58.9700  C.3       1 <0>        -0.1265
       4  C4          8.9760   35.9190   59.9300  C.3       1 <0>        -0.0972
       5  C5          9.9380   35.0350   59.1320  C.3       1 <0>        -0.1459
       6  C6          9.7740   36.9620   60.7130  C.3       1 <0>        -0.1521
       7  N1          5.9220   35.8110   58.0030  N.pl3     1 <0>        -0.5608
       8  C7          6.6960   35.7430   56.7610  C.3       1 <0>         0.0994
       9  C8          4.5650   35.5300   57.9900  C.2       1 <0>         0.3287
      10  N2          3.8800   34.7640   58.8120  N.2       1 <0>        -0.5840
      11  C9          2.5770   34.5970   58.6630  C.2       1 <0>         0.1497
      12  C10         1.9870   35.2470   57.6310  C.2       1 <0>        -0.2574
      13  S1          3.3910   36.0910   56.9220  S.3       1 <0>         0.0779
      14  C11         0.5420   35.2580   57.2030  C.3       1 <0>         0.1717
      15  O1          0.2500   36.4940   56.5470  O.3       1 <0>        -0.5654
      16  C12         1.7840   33.7220   59.5990  C.3       1 <0>         0.0012
      17  C13         0.6510   34.5380   60.2240  C.3       1 <0>        -0.1229
      18  C14         1.1940   32.5440   58.8190  C.3       1 <0>        -0.1435
      19  C15         2.7010   33.1940   60.7040  C.3       1 <0>        -0.1415
@<TRIPOS>BOND
     1     1     2 1
     2     2     3 1
     3     2     7 1
     4     3     4 1
     5     4     5 1
     6     4     6 1
     7     7     8 1
     8     7     9 1
     9     9    13 1
    10     9    10 2
    11    10    11 1
    12    11    12 2
    13    11    16 1
    14    12    13 1
    15    12    14 1
    16    14    15 1
    17    16    17 1
    18    16    18 1
    19    16    19 1

@<TRIPOS>MOLECULE
ZINC48856186_replica-1.pdb
 18 18 0 0 0
SMALL
GASTEIGER

@<TRIPOS>ATOM
       1  C1         -0.5010   24.9990   51.6010  C.3       1 <0>        -0.0752
       2  C2         -0.7870   26.3930   52.0950  C.2       1 <0>        -0.1276
       3  C3         -1.5200   27.3730   51.5120  C.2       1 <0>        -0.1732
       4  C4         -1.6480   28.5890   52.1570  C.2       1 <0>        -0.1212
       5  C5         -1.0380   28.7650   53.3530  C.2       1 <0>        -0.1831
       6  S1         -0.2550   27.1810   53.6070  S.3       1 <0>         0.0515
       7  C6         -1.0270   29.9820   54.2430  C.3       1 <0>         0.2276
       8  N1          0.3390   30.2350   54.7080  N.am      1 <0>        -0.7417
       9  C7          0.5890   31.2740   55.5300  C.2       1 <0>         0.7092
      10  O1         -0.3180   32.0010   55.8850  O.2       1 <0>        -0.5823
      11  N2          1.8460   31.5060   55.9570  N.am      1 <0>        -0.7437
      12  C8          2.1180   32.6360   56.8500  C.3       1 <0>         0.1578
      13  C9          2.4220   32.1120   58.2560  C.3       1 <0>        -0.1183
      14  S2          0.9380   32.2580   59.2890  S.3       1 <0>        -0.1364
      15  C10         0.7220   34.0460   59.4980  C.3       1 <0>         0.4659
      16  F1          1.9750   34.6570   59.6080  F         1 <0>        -0.1672
      17  F2          0.0430   34.5660   58.3910  F         1 <0>        -0.1450
      18  F3         -0.0210   34.2930   60.6580  F         1 <0>        -0.1673
@<TRIPOS>BOND
     1     1     2 1
     2     2     6 1
     3     2     3 2
     4     3     4 1
     5     4     5 2
     6     5     6 1
     7     5     7 1
     8     7     8 1
     9     8     9 am
    10     9    10 2
    11     9    11 am
    12    11    12 1
    13    12    13 1
    14    13    14 1
    15    14    15 1
    16    15    16 1
    17    15    17 1
    18    15    18 1

@<TRIPOS>MOLECULE
ZINC49889594_replica-1.pdb
 18 19 0 0 0
SMALL
GASTEIGER

@<TRIPOS>ATOM
       1  C1          8.4830   38.5270   56.7860  C.3       1 <0>        -0.1561
       2  C2          8.6630   38.6520   58.3010  C.3       1 <0>        -0.1499
       3  C3          7.2920   38.7860   58.9670  C.3       1 <0>        -0.0161
       4  N1          7.2520   37.9490   60.1740  N.4       1 <0>        -0.5059
       5  C4          8.3890   37.0190   60.1620  C.3       1 <0>         0.0411
       6  C5          8.8340   36.7760   61.5790  C.3       1 <0>        -0.1486
       7  C6         10.3680   36.6080   61.5900  C.3       1 <0>        -0.1131
       8  C7         10.7820   35.2730   61.1830  C.3       1 <0>        -0.1324
       9  C8         10.3570   34.9410   59.7380  C.3       1 <0>        -0.1227
      10  C9          8.9070   34.5400   59.7460  C.3       1 <0>        -0.1385
      11  C10         7.9650   35.7210   59.4490  C.3       1 <0>         0.0736
      12  O1          6.6430   35.3760   59.8690  O.3       1 <0>        -0.3918
      13  C11         5.7420   35.1100   58.7920  C.3       1 <0>         0.0912
      14  C12         6.4150   35.4660   57.4650  C.3       1 <0>        -0.1443
      15  C13         5.4500   35.1820   56.3110  C.3       1 <0>        -0.1196
      16  C14         4.1850   36.0260   56.4850  C.3       1 <0>        -0.1261
      17  C15         3.5130   35.6700   57.8120  C.3       1 <0>        -0.1211
      18  C16         4.4780   35.9540   58.9660  C.3       1 <0>        -0.1152
@<TRIPOS>BOND
     1     1     2 1
     2     2     3 1
     3     3     4 1
     4     4     5 1
     5     5    11 1
     6     5     6 1
     7     6     7 1
     8     7     8 1
     9     8     9 1
    10     9    10 1
    11    10    11 1
    12    11    12 1
    13    12    13 1
    14    13    18 1
    15    13    14 1
    16    14    15 1
    17    15    16 1
    18    16    17 1
    19    17    18 1

@<TRIPOS>MOLECULE
ZINC59343611_replica-1.pdb
 18 18 0 0 0
SMALL
GASTEIGER

@<TRIPOS>ATOM
       1  C1         12.2470   29.2360   64.0650  C.3       1 <0>        -0.1544
       2  C2         12.5040   30.7280   64.2900  C.3       1 <0>        -0.1248
       3  C3         12.7220   31.4170   62.9410  C.3       1 <0>        -0.1048
       4  C4         12.7860   32.9310   63.1460  C.3       1 <0>        -0.1013
       5  C5         14.1500   33.4500   62.6850  C.3       1 <0>        -0.1514
       6  C6         11.6980   33.5940   62.3410  C.2       1 <0>         0.5116
       7  O1         10.6950   32.9770   62.0520  O.2       1 <0>        -0.4631
       8  N1         11.8410   34.8740   61.9400  N.am      1 <0>        -0.6131
       9  C7         10.8360   35.4870   61.1970  C.2       1 <0>         0.2828
      10  N2         10.1520   36.5930   61.4400  N.2       1 <0>        -0.2720
      11  N3          9.2620   37.0160   60.6530  N.2       1 <0>        -0.2574
      12  C8          8.9570   36.3780   59.5330  C.2       1 <0>         0.0180
      13  S1         10.1040   35.0060   59.6350  S.3       1 <0>         0.0343
      14  S2          7.7670   36.7700   58.2940  S.3       1 <0>         0.0492
      15  C9          8.3340   35.8550   56.8350  C.3       1 <0>        -0.0795
      16  C10         7.6470   34.4880   56.7910  C.3       1 <0>        -0.1529
      17  C11         7.9850   36.6410   55.5700  C.3       1 <0>        -0.1064
      18  C12         7.3140   37.9600   55.9600  C.3       1 <0>        -0.1618
@<TRIPOS>BOND
     1     1     2 1
     2     2     3 1
     3     3     4 1
     4     4     5 1
     5     4     6 1
     6     6     7 2
     7     6     8 am
     8     8     9 1
     9     9    13 1
    10     9    10 2
    11    10    11 1
    12    11    12 2
    13    12    13 1
    14    12    14 1
    15    14    15 1
    16    15    16 1
    17    15    17 1
    18    17    18 1

@<TRIPOS>MOLECULE
ZINC43682654_replica-1.pdb
 20 21 0 0 0
SMALL
GASTEIGER

@<TRIPOS>ATOM
       1  C1          7.9870   38.7980   58.0650  C.3       1 <0>        -0.1538
       2  C2          7.8080   38.1680   59.4480  C.3       1 <0>        -0.1169
       3  C3          9.0450   37.3350   59.7910  C.3       1 <0>        -0.0803
       4  C4          9.1650   37.2040   61.3110  C.3       1 <0>        -0.1117
       5  C5         10.4010   36.3710   61.6560  C.3       1 <0>        -0.1194
       6  C6         10.2680   34.9790   61.0330  C.3       1 <0>        -0.1143
       7  C7         10.1480   35.1090   59.5130  C.3       1 <0>        -0.1420
       8  C8          8.9120   35.9430   59.1690  C.3       1 <0>         0.0946
       9  O1          7.7450   35.3000   59.6860  O.3       1 <0>        -0.3616
      10  C9          7.0630   34.4800   58.7340  C.3       1 <0>         0.1460
      11  C10         6.9770   35.2060   57.4160  C.2       1 <0>        -0.1294
      12  C11         5.9070   35.8490   56.8550  C.2       1 <0>         0.0006
      13  C12         6.0750   36.4530   55.6120  C.2       1 <0>        -0.1447
      14  C13         7.2810   36.3850   55.0070  C.2       1 <0>        -0.1655
      15  S1          8.2460   35.4560   56.1870  S.3       1 <0>         0.0797
      16  C14         4.6440   35.8980   57.5300  C.1       1 <0>        -0.1193
      17  C15         3.6100   35.9400   58.0840  C.1       1 <0>        -0.1540
      18  C16         2.3130   35.9900   58.7780  C.3       1 <0>        -0.0047
      19  C17         1.2340   35.3680   57.8890  C.3       1 <0>         0.0809
      20  O2          0.7910   36.3330   56.9320  O.3       1 <0>        -0.5735
@<TRIPOS>BOND
     1     1     2 1
     2     2     3 1
     3     3     8 1
     4     3     4 1
     5     4     5 1
     6     5     6 1
     7     6     7 1
     8     7     8 1
     9     8     9 1
    10     9    10 1
    11    10    11 1
    12    11    15 1
    13    11    12 2
    14    12    13 1
    15    12    16 1
    16    13    14 2
    17    14    15 1
    18    16    17 3
    19    17    18 1
    20    18    19 1
    21    19    20 1

@<TRIPOS>MOLECULE
ZINC66541658_replica-1.pdb
 22 23 0 0 0
SMALL
GASTEIGER

@<TRIPOS>ATOM
       1  C1         12.1850   30.4730   64.0680  C.3       1 <0>        -0.1533
       2  C2         12.6290   31.6050   63.1390  C.3       1 <0>         0.0804
       3  O1         11.6390   32.6360   63.1370  O.3       1 <0>        -0.3674
       4  C3         11.7950   33.6310   62.2440  C.2       1 <0>         0.6473
       5  O2         12.9100   34.0130   61.9480  O.2       1 <0>        -0.5702
       6  N1         10.7140   34.2040   61.6770  N.am      1 <0>        -0.7030
       7  C4         10.8840   35.2870   60.7050  C.3       1 <0>         0.1597
       8  C5         10.0880   34.9640   59.4390  C.3       1 <0>        -0.1305
       9  C6          8.6060   34.8230   59.7900  C.3       1 <0>        -0.1150
      10  C7          8.0960   36.1330   60.3930  C.3       1 <0>         0.0880
      11  C8          8.8920   36.4550   61.6600  C.3       1 <0>        -0.1393
      12  C9         10.3740   36.5970   61.3080  C.3       1 <0>        -0.1238
      13  O3          6.7120   36.0000   60.7210  O.3       1 <0>        -0.3442
      14  C10         5.8330   36.6810   59.9550  C.2       1 <0>         0.5049
      15  O4          5.4970   37.8080   60.2670  O.2       1 <0>        -0.5149
      16  C11         5.3030   36.0840   58.7880  C.2       1 <0>        -0.2203
      17  C12         5.8840   36.3170   57.5830  C.2       1 <0>         0.0631
      18  C13         5.3550   35.7200   56.4160  C.2       1 <0>        -0.2068
      19  C14         4.2310   36.0800   55.6790  C.2       1 <0>        -0.0962
      20  C15         3.9660   35.3000   54.5800  C.2       1 <0>        -0.1824
      21  C16         4.7900   34.2610   54.2930  C.2       1 <0>        -0.2287
      22  S1          5.9560   34.3130   55.5010  S.3       1 <0>         0.2140
@<TRIPOS>BOND
     1     1     2 1
     2     2     3 1
     3     3     4 1
     4     4     5 2
     5     4     6 am
     6     6     7 1
     7     7    12 1
     8     7     8 1
     9     8     9 1
    10     9    10 1
    11    10    11 1
    12    10    13 1
    13    11    12 1
    14    13    14 1
    15    14    15 2
    16    14    16 1
    17    16    17 2
    18    17    18 1
    19    18    22 1
    20    18    19 2
    21    19    20 1
    22    20    21 2
    23    21    22 1

@<TRIPOS>MOLECULE
ZINC33935899_replica-1.pdb
 22 23 0 0 0
SMALL
GASTEIGER

@<TRIPOS>ATOM
       1  C1          6.3770   32.5160   59.5160  C.3       1 <0>        -0.1535
       2  C2          6.8410   33.6950   60.3730  C.3       1 <0>        -0.1237
       3  C3          5.6610   34.6340   60.6310  C.3       1 <0>        -0.1139
       4  C4          5.9600   36.0070   60.0290  C.3       1 <0>        -0.0552
       5  C5          5.9550   35.9100   58.5260  C.2       1 <0>         0.0611
       6  C6          4.8930   35.5470   57.7580  C.2       1 <0>        -0.0638
       7  C7          5.3640   35.5990   56.3610  C.2       1 <0>        -0.2015
       8  C8          6.6720   35.9900   56.4180  C.2       1 <0>         0.0768
       9  N1          7.0120   36.1780   57.7080  N.pl3     1 <0>        -0.4269
      10  C9          8.3350   36.6060   58.1680  C.3       1 <0>         0.0954
      11  C10         9.2390   35.3820   58.3300  C.3       1 <0>        -0.1365
      12  C11         9.9900   35.4760   59.6590  C.3       1 <0>        -0.1220
      13  C12         9.6150   36.7810   60.3660  C.3       1 <0>        -0.1533
      14  C13         7.5820   36.1850   55.2330  C.3       1 <0>        -0.0930
      15  C14         4.5830   35.2910   55.1530  C.2       1 <0>         0.6024
      16  O1          4.8800   34.3320   54.4660  O.2       1 <0>        -0.5377
      17  N2          3.5400   36.0710   54.8080  N.am      1 <0>        -0.8484
      18  C15         3.5410   35.1760   58.2280  C.2       1 <0>        -0.0604
      19  C16         2.5140   35.9860   58.6320  C.2       1 <0>        -0.1471
      20  C17         1.3300   35.4050   59.0320  C.2       1 <0>        -0.1504
      21  C18         1.2170   34.0540   59.0130  C.2       1 <0>        -0.1799
      22  S1          2.8200   33.5520   58.4080  S.3       1 <0>         0.0307
@<TRIPOS>BOND
     1     1     2 1
     2     2     3 1
     3     3     4 1
     4     4     5 1
     5     5     9 1
     6     5     6 2
     7     6     7 1
     8     6    18 1
     9     7     8 2
    10     7    15 1
    11     8     9 1
    12     8    14 1
    13     9    10 1
    14    10    11 1
    15    11    12 1
    16    12    13 1
    17    15    16 2
    18    15    17 am
    19    18    22 1
    20    18    19 2
    21    19    20 1
    22    20    21 2
    23    21    22 1

@<TRIPOS>MOLECULE
ZINC05308153_replica-1.pdb
 18 18 0 0 0
SMALL
GASTEIGER

@<TRIPOS>ATOM
       1  C1         13.0430   34.3050   62.2170  C.3       1 <0>        -0.1540
       2  C2         11.8200   35.2170   62.1000  C.3       1 <0>        -0.1254
       3  C3         10.8380   34.6270   61.0870  C.3       1 <0>        -0.1147
       4  C4         10.2310   35.7540   60.2490  C.3       1 <0>        -0.0113
       5  C5          9.5760   35.1840   59.0610  C.1       1 <0>        -0.1501
       6  C6          9.0530   34.7280   58.1130  C.1       1 <0>        -0.1760
       7  C7          8.3970   34.1570   56.9250  C.3       1 <0>         0.2057
       8  C8          7.1660   35.0020   56.5490  C.3       1 <0>        -0.0990
       9  C9          5.9860   34.0010   56.6080  C.3       1 <0>        -0.1421
      10  C10         6.7110   32.6370   56.4700  C.3       1 <0>         0.0445
      11  O1          7.9330   32.8280   57.2160  O.3       1 <0>        -0.3653
      12  C11         6.9610   36.1300   57.5610  C.3       1 <0>         0.2618
      13  O2          5.7490   35.9070   58.2860  O.3       1 <0>        -0.3912
      14  C12         5.9060   35.9460   59.7050  C.3       1 <0>         0.0423
      15  C13         5.8420   37.3980   60.1840  C.3       1 <0>        -0.1509
      16  O3          6.8790   37.3800   56.8710  O.3       1 <0>        -0.3765
      17  C14         8.1410   38.0240   56.6840  C.3       1 <0>         0.0514
      18  C15         8.5580   38.7150   57.9840  C.3       1 <0>        -0.1536
@<TRIPOS>BOND
     1     1     2 1
     2     2     3 1
     3     3     4 1
     4     4     5 1
     5     5     6 3
     6     6     7 1
     7     7    11 1
     8     7     8 1
     9     8     9 1
    10     8    12 1
    11     9    10 1
    12    10    11 1
    13    12    13 1
    14    12    16 1
    15    13    14 1
    16    14    15 1
    17    16    17 1
    18    17    18 1

@<TRIPOS>MOLECULE
ZINC13842487_replica-1.pdb
 23 24 0 0 0
SMALL
GASTEIGER

@<TRIPOS>ATOM
       1  C1          0.6750   32.5690   59.4730  C.3       1 <0>        -0.1094
       2  C2          1.1450   33.7990   58.7410  C.ar      1 <0>         0.2081
       3  C3          0.2820   34.4910   57.9120  C.ar      1 <0>        -0.2512
       4  C4          0.7570   35.6250   57.2530  C.ar      1 <0>         0.3809
       5  N1          2.0180   35.9970   57.4390  N.ar      1 <0>        -0.5560
       6  C5          2.8140   35.3100   58.2460  C.ar      1 <0>         0.3094
       7  N2          2.3890   34.2290   58.8840  N.ar      1 <0>        -0.5070
       8  S1          4.4790   35.8430   58.4690  S.3       1 <0>         0.1016
       9  C6          5.3590   34.4090   57.8020  C.3       1 <0>        -0.1317
      10  C7          6.7070   34.2950   58.4660  C.2       1 <0>         0.4802
      11  O1          7.2360   33.2140   58.5780  O.2       1 <0>        -0.4914
      12  O2          7.3220   35.3930   58.9340  O.3       1 <0>        -0.3341
      13  C8          8.6040   35.7330   58.3430  C.3       1 <0>         0.0947
      14  C9          8.3780   36.4890   57.0330  C.3       1 <0>        -0.1327
      15  C10         7.5900   37.7710   57.3120  C.3       1 <0>        -0.0902
      16  C11         8.3790   38.6530   58.2810  C.3       1 <0>        -0.1151
      17  C12         8.6050   37.8970   59.5920  C.3       1 <0>        -0.1158
      18  C13         9.3930   36.6150   59.3130  C.3       1 <0>        -0.0765
      19  C14         9.6180   35.8600   60.6240  C.3       1 <0>        -0.0938
      20  C15        10.4210   34.5870   60.3470  C.3       1 <0>        -0.1540
      21  C16        10.3930   36.7480   61.5990  C.3       1 <0>        -0.1489
      22  C17         7.3660   38.5260   56.0020  C.3       1 <0>        -0.1490
      23  O3         -0.0540   36.3330   56.4310  O.3       1 <0>        -0.4733
@<TRIPOS>BOND
     1     1     2 1
     2     2     7 ar
     3     2     3 ar
     4     3     4 ar
     5     4     5 ar
     6     4    23 1
     7     5     6 ar
     8     6     7 ar
     9     6     8 1
    10     8     9 1
    11     9    10 1
    12    10    11 2
    13    10    12 1
    14    12    13 1
    15    13    18 1
    16    13    14 1
    17    14    15 1
    18    15    16 1
    19    15    22 1
    20    16    17 1
    21    17    18 1
    22    18    19 1
    23    19    20 1
    24    19    21 1

@<TRIPOS>MOLECULE
ZINC11592544_replica-1.pdb
 21 21 0 0 0
SMALL
GASTEIGER

@<TRIPOS>ATOM
       1  C1          7.8530   37.1370   56.0610  C.3       1 <0>        -0.1500
       2  C2          8.1960   37.1830   57.5280  C.2       1 <0>        -0.0958
       3  C3          8.6600   36.0840   58.0950  C.2       1 <0>        -0.0979
       4  C4          9.0330   35.9880   59.5450  C.3       1 <0>        -0.0154
       5  C5          9.2060   37.3870   60.1380  C.3       1 <0>        -0.1101
       6  C6          7.9770   38.2270   59.7730  C.3       1 <0>        -0.1205
       7  C7          7.9960   38.4780   58.2610  C.3       1 <0>        -0.0802
       8  C8          7.9290   35.2490   60.3040  C.3       1 <0>        -0.1470
       9  C9         10.3450   35.2130   59.6820  C.3       1 <0>        -0.1418
      10  C10         8.8210   34.8940   57.2620  C.2       1 <0>        -0.0972
      11  C11         7.7930   34.0210   57.1190  C.2       1 <0>        -0.1273
      12  C12         6.6190   34.1850   57.8830  C.2       1 <0>        -0.0688
      13  C13         5.6690   35.0750   57.4890  C.2       1 <0>        -0.1467
      14  C14         4.4970   35.2380   58.2530  C.2       1 <0>        -0.1039
      15  C15         3.3850   34.5240   57.9480  C.2       1 <0>        -0.1305
      16  C16         2.1680   34.6930   58.7400  C.2       1 <0>        -0.0845
      17  C17         1.1380   35.3800   58.2420  C.2       1 <0>        -0.1546
      18  C18         1.1690   35.8560   56.8120  C.3       1 <0>         0.1016
      19  O1         -0.1080   36.3930   56.4610  O.3       1 <0>        -0.5699
      20  C19         2.0770   34.0900   60.1190  C.3       1 <0>        -0.1198
      21  C20         6.4180   33.3740   59.1370  C.3       1 <0>        -0.1251
@<TRIPOS>BOND
     1     1     2 1
     2     2     7 1
     3     2     3 2
     4     3     4 1
     5     3    10 1
     6     4     5 1
     7     4     8 1
     8     4     9 1
     9     5     6 1
    10     6     7 1
    11    10    11 2
    12    11    12 1
    13    12    13 2
    14    12    21 1
    15    13    14 1
    16    14    15 2
    17    15    16 1
    18    16    17 2
    19    16    20 1
    20    17    18 1
    21    18    19 1

@<TRIPOS>MOLECULE
ZINC38587365_replica-1.pdb
 20 21 0 0 0
SMALL
GASTEIGER

@<TRIPOS>ATOM
       1  C1          1.9570   36.0960   56.9320  C.3       1 <0>        -0.1424
       2  C2          2.6220   34.7250   56.7880  C.3       1 <0>        -0.1358
       3  C3          1.6250   33.6320   57.1790  C.3       1 <0>         0.1622
       4  C4          0.4070   34.2700   57.8520  C.3       1 <0>        -0.1326
       5  C5          0.3190   33.7940   59.3030  C.3       1 <0>        -0.1519
       6  N1          1.1960   32.9100   55.9790  N.am      1 <0>        -0.7395
       7  C6          0.9640   31.5830   56.0370  C.2       1 <0>         0.7046
       8  O1          1.1110   30.9860   57.0870  O.2       1 <0>        -0.5837
       9  N2          0.5700   30.9190   54.9330  N.am      1 <0>        -0.7451
      10  C7          0.3180   29.4770   54.9970  C.3       1 <0>         0.1588
      11  C8         -1.0930   29.1820   54.4820  C.3       1 <0>         0.0109
      12  C9         -1.9780   28.6660   55.6340  C.3       1 <0>        -0.1065
      13  C10        -2.7190   29.9290   56.1400  C.3       1 <0>        -0.1255
      14  C11        -3.0090   30.7020   54.8290  C.3       1 <0>        -0.1230
      15  C12        -1.7480   30.4770   53.9690  C.3       1 <0>        -0.1202
      16  C13        -1.0350   28.1610   53.3760  C.2       1 <0>        -0.1282
      17  C14        -1.5710   28.2160   52.1320  C.2       1 <0>        -0.1535
      18  C15        -1.3880   27.1480   51.2750  C.2       1 <0>        -0.1523
      19  C16        -0.6760   26.0760   51.7020  C.2       1 <0>        -0.1785
      20  S1         -0.2350   26.5630   53.3620  S.3       1 <0>         0.0303
@<TRIPOS>BOND
     1     1     2 1
     2     2     3 1
     3     3     4 1
     4     3     6 1
     5     4     5 1
     6     6     7 am
     7     7     8 2
     8     7     9 am
     9     9    10 1
    10    10    11 1
    11    11    15 1
    12    11    12 1
    13    11    16 1
    14    12    13 1
    15    13    14 1
    16    14    15 1
    17    16    20 1
    18    16    17 2
    19    17    18 1
    20    18    19 2
    21    19    20 1

@<TRIPOS>MOLECULE
ZINC62752391_replica-1.pdb
 20 21 0 0 0
SMALL
GASTEIGER

@<TRIPOS>ATOM
       1  C1         10.7360   36.3720   61.7610  C.3       1 <0>        -0.1553
       2  C2          9.3420   36.8520   61.3540  C.3       1 <0>        -0.1243
       3  C3          9.3130   37.1130   59.8460  C.3       1 <0>        -0.1279
       4  C4          8.1570   38.0580   59.5150  C.3       1 <0>        -0.0783
       5  C5          8.3980   38.6990   58.1460  C.3       1 <0>        -0.1229
       6  C6          8.4840   37.6050   57.0800  C.3       1 <0>        -0.0962
       7  C7          7.1720   36.8170   57.0500  C.3       1 <0>        -0.1733
       8  C8          6.9320   36.1780   58.4190  C.3       1 <0>         0.0451
       9  C9          6.8450   37.2710   59.4850  C.3       1 <0>        -0.1327
      10  N1          5.6720   35.4210   58.3910  N.4       1 <0>        -0.3755
      11  C10         4.5660   36.3020   58.7810  C.3       1 <0>        -0.0130
      12  C11         3.2410   35.5420   58.6750  C.3       1 <0>        -0.1441
      13  C12         3.2810   34.3260   59.6070  C.3       1 <0>        -0.1296
      14  C13         4.4830   33.4530   59.2370  C.3       1 <0>        -0.1110
      15  C14         5.7610   34.2900   59.3230  C.3       1 <0>        -0.0054
      16  C15         4.5780   32.2750   60.2110  C.3       1 <0>        -0.1144
      17  C16         5.1410   32.7640   61.5470  C.3       1 <0>        -0.1569
      18  C17         7.2570   35.7400   56.0000  C.2       1 <0>         0.4766
      19  O1          6.9660   35.9930   54.8440  O.co2     1 <0>        -0.6751
      20  O2          7.6190   34.6170   56.3070  O.co2     1 <0>        -0.6760
@<TRIPOS>BOND
     1     1     2 1
     2     2     3 1
     3     3     4 1
     4     4     9 1
     5     4     5 1
     6     5     6 1
     7     6     7 1
     8     7     8 1
     9     7    18 1
    10     8     9 1
    11     8    10 1
    12    10    15 1
    13    10    11 1
    14    11    12 1
    15    12    13 1
    16    13    14 1
    17    14    15 1
    18    14    16 1
    19    16    17 1
    20    18    19 2
    21    18    20 1

@<TRIPOS>MOLECULE
ZINC33161866_replica-1.pdb
 19 19 0 0 0
SMALL
GASTEIGER

@<TRIPOS>ATOM
       1  C1         12.6250   34.4530   63.4760  C.3       1 <0>        -0.1659
       2  C2         12.1650   33.4530   62.4140  C.3       1 <0>        -0.1064
       3  C3         11.0830   34.0770   61.5710  C.2       1 <0>         0.5292
       4  O1         10.0820   33.4460   61.3050  O.2       1 <0>        -0.4775
       5  N1         11.2270   35.3360   61.1140  N.am      1 <0>        -0.6233
       6  C4         10.2300   35.9110   60.3370  C.2       1 <0>         0.0642
       7  C5          9.5140   37.0660   60.5770  C.2       1 <0>        -0.2320
       8  C6          8.5680   37.4550   59.6690  C.2       1 <0>        -0.0198
       9  C7          8.3890   36.6510   58.5520  C.2       1 <0>        -0.3034
      10  S1          9.5780   35.3500   58.8320  S.3       1 <0>         0.3045
      11  C8          7.4900   36.8170   57.4690  C.2       1 <0>         0.5562
      12  O2          6.3110   36.5530   57.6120  O.2       1 <0>        -0.5030
      13  O3          7.9420   37.2670   56.2800  O.3       1 <0>        -0.3527
      14  C9          7.7260   36.4260   55.1440  C.3       1 <0>         0.0326
      15  S2         11.5180   31.9640   63.2250  S.3       1 <0>        -0.0553
      16  C10        13.0000   30.9850   63.5930  C.3       1 <0>         0.4515
      17  F1         14.1410   31.7180   63.2460  F         1 <0>        -0.1646
      18  F2         13.0350   30.6880   64.9600  F         1 <0>        -0.1439
      19  F3         12.9680   29.7960   62.8570  F         1 <0>        -0.1682
@<TRIPOS>BOND
     1     1     2 1
     2     2     3 1
     3     2    15 1
     4     3     4 2
     5     3     5 am
     6     5     6 1
     7     6    10 1
     8     6     7 2
     9     7     8 1
    10     8     9 2
    11     9    10 1
    12     9    11 1
    13    11    12 2
    14    11    13 1
    15    13    14 1
    16    15    16 1
    17    16    17 1
    18    16    18 1
    19    16    19 1

@<TRIPOS>MOLECULE
ZINC53095326_replica-1.pdb
 21 22 0 0 0
SMALL
GASTEIGER

@<TRIPOS>ATOM
       1  C1         -0.8390   26.9250   52.1060  C.3       1 <0>        -0.1536
       2  C2         -0.6170   27.7670   53.3630  C.3       1 <0>        -0.1195
       3  C3         -1.6750   28.8700   53.4330  C.3       1 <0>        -0.0404
       4  C4         -1.3400   29.8170   54.5560  C.2       1 <0>        -0.1822
       5  C5         -1.9400   29.9170   55.7680  C.2       1 <0>        -0.1481
       6  C6         -1.4830   30.8530   56.6640  C.2       1 <0>        -0.0587
       7  C7         -0.4200   31.6320   56.2310  C.2       1 <0>        -0.2556
       8  S1         -0.1340   30.9860   54.5960  S.3       1 <0>         0.1946
       9  C8          0.2880   32.7040   56.9390  C.2       1 <0>         0.6130
      10  O1          0.1140   32.8630   58.1320  O.2       1 <0>        -0.5289
      11  N1          1.1300   33.5130   56.2660  N.am      1 <0>        -0.7039
      12  C9          1.7480   34.6540   56.9450  C.3       1 <0>         0.1889
      13  C10         2.6560   35.4000   55.9660  C.3       1 <0>        -0.1205
      14  C11         3.7490   34.4540   55.4620  C.3       1 <0>        -0.1218
      15  C12         4.5780   33.9550   56.6470  C.3       1 <0>        -0.1216
      16  C13         3.6680   33.2090   57.6260  C.3       1 <0>        -0.1149
      17  C14         2.5770   34.1540   58.1300  C.3       1 <0>        -0.1325
      18  C15         0.6570   35.6000   57.4500  C.3       1 <0>         0.0605
      19  O2          0.0520   36.2650   56.3380  O.3       1 <0>        -0.5678
      20  C16        -3.0910   29.0140   56.1280  C.3       1 <0>        -0.0669
      21  C17        -2.7010   28.1400   57.3220  C.3       1 <0>        -0.1472
@<TRIPOS>BOND
     1     1     2 1
     2     2     3 1
     3     3     4 1
     4     4     8 1
     5     4     5 2
     6     5     6 1
     7     5    20 1
     8     6     7 2
     9     7     8 1
    10     7     9 1
    11     9    10 2
    12     9    11 am
    13    11    12 1
    14    12    17 1
    15    12    13 1
    16    12    18 1
    17    13    14 1
    18    14    15 1
    19    15    16 1
    20    16    17 1
    21    18    19 1
    22    20    21 1

@<TRIPOS>MOLECULE
ZINC20814058_replica-1.pdb
 20 22 0 0 0
SMALL
GASTEIGER

@<TRIPOS>ATOM
       1  C1          6.9750   37.9610   59.3480  C.3       1 <0>        -0.1855
       2  C2          7.5490   36.9280   58.3740  C.3       1 <0>         0.1058
       3  C3          6.4050   36.2830   57.5880  C.3       1 <0>        -0.0508
       4  C4          5.5830   35.4300   58.5510  C.2       1 <0>        -0.0691
       5  C5          6.1090   35.0640   59.7390  C.2       1 <0>        -0.1479
       6  S1          4.8450   34.1050   60.5270  S.3       1 <0>         0.1437
       7  C6          3.6100   34.1970   59.2560  C.ar      1 <0>         0.1424
       8  C7          4.2260   34.9760   58.2550  C.ar      1 <0>        -0.1799
       9  C8          3.4400   35.2130   57.0920  C.ar      1 <0>         0.2226
      10  N1          2.2190   34.7060   57.0220  N.ar      1 <0>        -0.5397
      11  C9          1.6990   33.9790   58.0040  C.ar      1 <0>         0.3258
      12  N2          2.3870   33.7260   59.1110  N.ar      1 <0>        -0.4684
      13  S2          0.0670   33.3390   57.8350  S.3       1 <0>         0.0305
      14  C10         0.2970   32.2640   56.3970  C.3       1 <0>        -0.1525
      15  S3          4.0830   36.1720   55.7610  S.3       1 <0>        -0.0081
      16  C11         4.3300   34.8710   54.5270  C.3       1 <0>        -0.1598
      17  C12         7.4720   35.4070   60.2570  C.3       1 <0>         0.1305
      18  N3          8.2830   35.9030   59.1280  N.3       1 <0>        -0.5215
      19  C13         9.5760   36.4190   59.5970  C.3       1 <0>         0.0147
      20  C14         8.5020   37.6240   57.4010  C.3       1 <0>        -0.1487
@<TRIPOS>BOND
     1     1     2 1
     2     2    18 1
     3     2     3 1
     4     2    20 1
     5     3     4 1
     6     4     8 1
     7     4     5 2
     8     5     6 1
     9     5    17 1
    10     6     7 1
    11     7    12 ar
    12     7     8 ar
    13     8     9 ar
    14     9    10 ar
    15     9    15 1
    16    10    11 ar
    17    11    12 ar
    18    11    13 1
    19    13    14 1
    20    15    16 1
    21    17    18 1
    22    18    19 1

@<TRIPOS>MOLECULE
ZINC01038270_replica-1.pdb
 22 24 0 0 0
SMALL
GASTEIGER

@<TRIPOS>ATOM
       1  C1          6.8240   35.1500   55.6170  C.3       1 <0>        -0.1481
       2  C2          6.8850   33.8770   56.4640  C.3       1 <0>        -0.0609
       3  C3          5.7490   33.8930   57.4890  C.3       1 <0>        -0.0608
       4  C4          5.9590   35.0890   58.4120  C.2       1 <0>         0.0143
       5  C5          7.2530   35.6120   58.6550  C.2       1 <0>        -0.2157
       6  C6          7.3390   36.7270   59.5060  C.2       1 <0>        -0.1451
       7  S1          5.6920   37.0280   59.9420  S.3       1 <0>         0.1970
       8  C7          4.9130   35.7190   59.0240  C.2       1 <0>        -0.1895
       9  C8          3.4780   35.3880   58.9450  C.ar      1 <0>         0.2892
      10  C9          2.6700   35.9610   57.9530  C.ar      1 <0>        -0.2358
      11  C10         1.3310   35.6210   57.9200  C.ar      1 <0>         0.1754
      12  N1          0.8540   34.7730   58.8180  N.ar      1 <0>        -0.5331
      13  C11         1.6400   34.2460   59.7470  C.ar      1 <0>         0.3068
      14  N2          2.9280   34.5450   59.8200  N.ar      1 <0>        -0.4947
      15  S2          0.9520   33.1220   60.9170  S.3       1 <0>         0.0103
      16  C12        -0.3390   34.1670   61.6350  C.3       1 <0>        -0.1453
      17  S3          8.7800   37.6080   60.0080  S.3       1 <0>         0.0965
      18  C13         9.0640   36.8480   61.6260  C.3       1 <0>        -0.2031
      19  C14         8.4130   35.0210   58.0600  C.2       1 <0>         0.4124
      20  O1          9.5180   35.4850   58.2590  O.2       1 <0>        -0.4514
      21  C15         8.2340   33.8090   57.1800  C.3       1 <0>        -0.1445
      22  C16         6.7330   32.6570   55.5540  C.3       1 <0>        -0.1410
@<TRIPOS>BOND
     1     1     2 1
     2     2    21 1
     3     2     3 1
     4     2    22 1
     5     3     4 1
     6     4     8 2
     7     4     5 1
     8     5     6 2
     9     5    19 1
    10     6     7 1
    11     6    17 1
    12     7     8 1
    13     8     9 1
    14     9    14 ar
    15     9    10 ar
    16    10    11 ar
    17    11    12 ar
    18    12    13 ar
    19    13    14 ar
    20    13    15 1
    21    15    16 1
    22    17    18 1
    23    19    20 2
    24    19    21 1

@<TRIPOS>MOLECULE
ZINC62766324_replica-1.pdb
 18 19 0 0 0
SMALL
GASTEIGER

@<TRIPOS>ATOM
       1  C1          9.2670   36.8830   61.5120  C.3       1 <0>        -0.1497
       2  C2          9.2870   37.3830   60.0660  C.3       1 <0>        -0.1263
       3  C3          7.9450   38.0420   59.7370  C.3       1 <0>        -0.0814
       4  C4          8.0800   38.8600   58.4520  C.3       1 <0>        -0.1183
       5  C5          8.4920   37.9390   57.3020  C.3       1 <0>        -0.0852
       6  C6          7.4280   36.8580   57.1080  C.3       1 <0>        -0.1382
       7  C7          7.2930   36.0390   58.3940  C.3       1 <0>        -0.0255
       8  C8          6.8810   36.9600   59.5440  C.3       1 <0>        -0.1087
       9  S1          6.0310   34.7560   58.1640  S.3       1 <0>        -0.2013
      10  C9          4.4960   35.6900   57.9190  C.3       1 <0>        -0.0741
      11  C10         3.9990   35.4880   56.4850  C.3       1 <0>        -0.1148
      12  C11         2.7040   36.2750   56.2780  C.3       1 <0>        -0.1178
      13  C12         1.6420   35.7790   57.2610  C.3       1 <0>        -0.1180
      14  C13         2.1390   35.9820   58.6930  C.3       1 <0>        -0.1147
      15  C14         3.4330   35.1930   58.9010  C.3       1 <0>        -0.0947
      16  C15         7.8330   35.9510   55.9750  C.2       1 <0>         0.4895
      17  O1          8.7700   35.1830   56.1150  O.co2     1 <0>        -0.7046
      18  O2          7.2240   35.9840   54.9200  O.co2     1 <0>        -0.6647
@<TRIPOS>BOND
     1     1     2 1
     2     2     3 1
     3     3     8 1
     4     3     4 1
     5     4     5 1
     6     5     6 1
     7     6     7 1
     8     6    16 1
     9     7     8 1
    10     7     9 1
    11     9    10 1
    12    10    15 1
    13    10    11 1
    14    11    12 1
    15    12    13 1
    16    13    14 1
    17    14    15 1
    18    16    17 2
    19    16    18 1

@<TRIPOS>MOLECULE
ZINC41623362_replica-1.pdb
 18 19 0 0 0
SMALL
GASTEIGER

@<TRIPOS>ATOM
       1  C1         14.4170   33.9840   61.9340  C.3       1 <0>        -0.1755
       2  C2         13.8590   34.0260   63.3580  C.3       1 <0>        -0.1072
       3  C3         14.2650   32.7520   64.1020  C.3       1 <0>        -0.1140
       4  C4         13.7030   31.5320   63.3690  C.3       1 <0>        -0.1335
       5  C5         12.1770   31.6280   63.3180  C.3       1 <0>        -0.1169
       6  C6         11.7700   32.9010   62.5750  C.3       1 <0>        -0.1442
       7  C7         12.3330   34.1210   63.3060  C.3       1 <0>         0.0293
       8  N1         11.9430   35.3440   62.5920  N.4       1 <0>        -0.5071
       9  C8         10.9800   35.0060   61.5340  C.3       1 <0>        -0.0084
      10  C9         10.3560   36.2910   60.9840  C.3       1 <0>        -0.0472
      11  C10         9.5910   35.9780   59.7250  C.2       1 <0>         0.0072
      12  N2          9.0400   36.8120   58.8780  N.2       1 <0>        -0.4906
      13  C11         8.3970   36.3820   57.8110  C.2       1 <0>         0.0701
      14  C12         8.3350   35.0380   57.6300  C.2       1 <0>        -0.1982
      15  S1          9.2440   34.4710   59.0590  S.3       1 <0>         0.1294
      16  C13         7.7610   37.3390   56.8360  C.3       1 <0>        -0.0246
      17  C14         8.5140   38.6710   56.8630  C.3       1 <0>        -0.1445
      18  C15         7.8240   36.7460   55.4260  C.3       1 <0>        -0.1495
@<TRIPOS>BOND
     1     1     2 1
     2     2     7 1
     3     2     3 1
     4     3     4 1
     5     4     5 1
     6     5     6 1
     7     6     7 1
     8     7     8 1
     9     8     9 1
    10     9    10 1
    11    10    11 1
    12    11    15 1
    13    11    12 2
    14    12    13 1
    15    13    14 2
    16    13    16 1
    17    14    15 1
    18    16    17 1
    19    16    18 1

@<TRIPOS>MOLECULE
ZINC36337225_replica-1.pdb
 19 19 0 0 0
SMALL
GASTEIGER

@<TRIPOS>ATOM
       1  C1          6.3490   33.3470   55.6650  C.3       1 <0>        -0.1526
       2  C2          6.9250   32.1290   56.3900  C.3       1 <0>         0.0606
       3  O1          8.2220   32.4460   56.8980  O.3       1 <0>        -0.3489
       4  C3          8.4470   32.1910   58.1970  C.2       1 <0>         0.4777
       5  O2          8.4210   31.0530   58.6020  O.2       1 <0>        -0.4813
       6  C4          8.7310   33.3240   59.1490  C.3       1 <0>        -0.1095
       7  S1          7.2630   33.6380   60.1680  S.3       1 <0>        -0.1706
       8  C5          6.6290   35.2200   59.5490  C.3       1 <0>        -0.0639
       9  C6          7.4860   35.6880   58.3710  C.3       1 <0>        -0.1030
      10  C7          6.9520   37.0230   57.8490  C.3       1 <0>        -0.0686
      11  C8          7.0080   38.0670   58.9670  C.3       1 <0>        -0.1278
      12  C9          6.1490   37.5990   60.1430  C.3       1 <0>        -0.1100
      13  C10         6.6840   36.2640   60.6660  C.3       1 <0>         0.0104
      14  C11         8.0770   36.4340   61.1110  C.1       1 <0>         0.2107
      15  N1          9.1510   36.5650   61.4540  N.1       1 <0>        -0.4160
      16  C12         7.8100   37.4900   56.6710  C.3       1 <0>        -0.0619
      17  C13         8.8030   38.5500   57.1530  C.3       1 <0>        -0.1464
      18  C14         8.5750   36.2980   56.0950  C.3       1 <0>        -0.1442
      19  C15         6.9080   38.0890   55.5900  C.3       1 <0>        -0.1487
@<TRIPOS>BOND
     1     1     2 1
     2     2     3 1
     3     3     4 1
     4     4     5 2
     5     4     6 1
     6     6     7 1
     7     7     8 1
     8     8    13 1
     9     8     9 1
    10     9    10 1
    11    10    11 1
    12    10    16 1
    13    11    12 1
    14    12    13 1
    15    13    14 1
    16    14    15 3
    17    16    17 1
    18    16    18 1
    19    16    19 1

@<TRIPOS>MOLECULE
ZINC50831446_replica-1.pdb
 19 20 0 0 0
SMALL
GASTEIGER

@<TRIPOS>ATOM
       1  C1          7.0370   36.6650   60.9420  C.3       1 <0>        -0.1511
       2  C2          5.7250   36.4830   60.1770  C.3       1 <0>        -0.1348
       3  C3          5.1930   35.0680   60.4060  C.3       1 <0>         0.1101
       4  N1          4.8530   34.4590   59.1180  N.pl3     1 <0>        -0.6687
       5  C4          3.8890   35.0470   58.3030  C.2       1 <0>         0.1121
       6  C5          3.9750   35.3990   56.9860  C.2       1 <0>        -0.0983
       7  N2          2.9010   35.9420   56.4570  N.2       1 <0>        -0.1845
       8  N3          1.8540   36.1080   57.1900  N.2       1 <0>        -0.2459
       9  S1          2.3150   35.4990   58.6820  S.3       1 <0>         0.2593
      10  C6          5.2310   35.1780   56.1850  C.3       1 <0>         0.1535
      11  O1          6.3570   35.6580   56.9220  O.3       1 <0>        -0.3654
      12  C7          7.5730   35.6920   56.1710  C.3       1 <0>         0.0940
      13  C8          7.5140   36.8370   55.1570  C.3       1 <0>        -0.1414
      14  C9          7.3330   38.1640   55.8970  C.3       1 <0>        -0.1128
      15  C10         8.5130   38.3840   56.8450  C.3       1 <0>        -0.1194
      16  C11         8.5720   37.2390   57.8590  C.3       1 <0>        -0.1115
      17  C12         8.7530   35.9120   57.1200  C.3       1 <0>        -0.0802
      18  C13         8.8120   34.7670   58.1330  C.3       1 <0>        -0.1179
      19  C14         9.9020   35.0570   59.1670  C.3       1 <0>        -0.1538
@<TRIPOS>BOND
     1     1     2 1
     2     2     3 1
     3     3     4 1
     4     4     5 1
     5     5     9 1
     6     5     6 2
     7     6     7 1
     8     6    10 1
     9     7     8 2
    10     8     9 1
    11    10    11 1
    12    11    12 1
    13    12    17 1
    14    12    13 1
    15    13    14 1
    16    14    15 1
    17    15    16 1
    18    16    17 1
    19    17    18 1
    20    18    19 1

@<TRIPOS>MOLECULE
ZINC51717073_replica-1.pdb
 20 21 0 0 0
SMALL
GASTEIGER

@<TRIPOS>ATOM
       1  C1          1.8560   34.7980   59.3180  C.3       1 <0>        -0.1502
       2  C2          0.9310   35.2550   58.1880  C.3       1 <0>        -0.1356
       3  C3          0.9960   34.2490   57.0370  C.3       1 <0>         0.1227
       4  N1         -0.2130   33.4220   57.0430  N.pl3     1 <0>        -0.7108
       5  C4         -0.1090   32.0420   57.0170  C.ar      1 <0>         0.4445
       6  C5          0.3270   31.3420   58.1460  C.ar      1 <0>        -0.2704
       7  C6          0.4160   29.9650   58.0770  C.ar      1 <0>         0.2054
       8  N2          0.0890   29.3490   56.9510  N.ar      1 <0>        -0.5506
       9  C7         -0.3220   30.0370   55.8920  C.ar      1 <0>         0.4504
      10  N3         -0.4270   31.3620   55.9200  N.ar      1 <0>        -0.5675
      11  C8         -0.6770   29.3140   54.6570  C.2       1 <0>        -0.1244
      12  C9         -1.5140   29.6970   53.6410  C.2       1 <0>        -0.0916
      13  C10        -1.6950   28.8470   52.5750  C.2       1 <0>        -0.1723
      14  C11        -1.0390   27.6560   52.5600  C.2       1 <0>        -0.1319
      15  S1         -0.1220   27.7130   54.0910  S.3       1 <0>         0.1177
      16  C12        -1.0740   26.5690   51.5170  C.3       1 <0>        -0.0432
      17  C13        -0.5480   25.2660   52.1210  C.3       1 <0>        -0.1496
      18  C14         0.8810   29.1720   59.2710  C.3       1 <0>         0.1133
      19  O1          0.3050   29.7160   60.4590  O.3       1 <0>        -0.3885
      20  C15        -0.9060   29.0750   60.8640  C.3       1 <0>         0.0327
@<TRIPOS>BOND
     1     1     2 1
     2     2     3 1
     3     3     4 1
     4     4     5 1
     5     5    10 ar
     6     5     6 ar
     7     6     7 ar
     8     7     8 ar
     9     7    18 1
    10     8     9 ar
    11     9    10 ar
    12     9    11 1
    13    11    15 1
    14    11    12 2
    15    12    13 1
    16    13    14 2
    17    14    15 1
    18    14    16 1
    19    16    17 1
    20    18    19 1
    21    19    20 1

@<TRIPOS>MOLECULE
ZINC37238330_replica-1.pdb
 24 27 0 0 0
SMALL
GASTEIGER

@<TRIPOS>ATOM
       1  C1          3.9650   36.0770   56.2930  C.3       1 <0>        -0.1471
       2  C2          4.1870   35.5020   57.6960  C.3       1 <0>        -0.0471
       3  C3          3.1420   36.0760   58.6510  C.3       1 <0>        -0.1005
       4  C4          1.7380   35.6580   58.2120  C.3       1 <0>        -0.1316
       5  C5          1.6250   34.1350   58.1540  C.3       1 <0>         0.2729
       6  C6          2.6770   33.5630   57.2010  C.3       1 <0>        -0.1235
       7  C7          4.0690   33.9800   57.6760  C.3       1 <0>        -0.0697
       8  C8          5.1450   33.3460   56.8010  C.3       1 <0>        -0.1146
       9  C9          6.5370   33.7490   57.3050  C.3       1 <0>        -0.1084
      10  C10         6.3650   34.6370   58.5360  C.3       1 <0>        -0.0680
      11  C11         5.6010   35.8980   58.1420  C.3       1 <0>        -0.0719
      12  C12         5.5830   36.9270   59.2570  C.3       1 <0>        -0.1073
      13  C13         6.9850   37.3100   59.7450  C.3       1 <0>        -0.0995
      14  C14         8.0470   36.4370   59.1330  C.3       1 <0>        -0.1111
      15  C15         7.6460   34.9530   59.2390  C.3       1 <0>        -0.0717
      16  C16         8.9270   34.2570   58.7580  C.3       1 <0>        -0.1100
      17  C17        10.0390   35.1210   59.4180  C.3       1 <0>        -0.1856
      18  C18         9.3690   36.4090   59.8850  C.2       1 <0>         0.3729
      19  O1          9.7740   37.2240   60.6650  O.2       1 <0>        -0.4336
      20  C19         8.3770   36.8710   57.7070  C.3       1 <0>        -0.1437
      21  O2          1.8160   33.5910   59.4620  O.3       1 <0>        -0.3902
      22  C20         0.7390   33.8530   60.3640  C.3       1 <0>         0.0272
      23  O3          0.3220   33.7770   57.6830  O.3       1 <0>        -0.3994
      24  C21         0.3060   32.6210   56.8430  C.3       1 <0>         0.0295
@<TRIPOS>BOND
     1     1     2 1
     2     2     7 1
     3     2    11 1
     4     2     3 1
     5     3     4 1
     6     4     5 1
     7     5     6 1
     8     5    21 1
     9     5    23 1
    10     6     7 1
    11     7     8 1
    12     8     9 1
    13     9    10 1
    14    10    15 1
    15    10    11 1
    16    11    12 1
    17    12    13 1
    18    13    14 1
    19    14    18 1
    20    14    15 1
    21    14    20 1
    22    15    16 1
    23    16    17 1
    24    17    18 1
    25    18    19 2
    26    21    22 1
    27    23    24 1

@<TRIPOS>MOLECULE
ZINC50499331_replica-1.pdb
 18 18 0 0 0
SMALL
GASTEIGER

@<TRIPOS>ATOM
       1  C1          7.3020   36.2570   55.0010  C.3       1 <0>        -0.1553
       2  C2          8.5130   36.3150   55.9340  C.3       1 <0>        -0.0889
       3  C3          8.4100   37.5530   56.8270  C.3       1 <0>        -0.1189
       4  C4          7.1280   37.4760   57.6590  C.3       1 <0>        -0.1181
       5  C5          7.1620   36.2200   58.5310  C.3       1 <0>        -0.0752
       6  C6          7.2660   34.9810   57.6390  C.3       1 <0>         0.0933
       7  C7          8.5480   35.0580   56.8060  C.3       1 <0>        -0.1385
       8  O1          7.2970   33.8080   58.4540  O.3       1 <0>        -0.3573
       9  C8          8.6060   33.2700   58.6480  C.3       1 <0>         0.0711
      10  C9          8.9270   33.2460   60.1200  C.2       1 <0>         0.4601
      11  O2          9.0170   32.1910   60.7020  O.2       1 <0>        -0.4826
      12  O3          9.1130   34.3980   60.7850  O.3       1 <0>        -0.3481
      13  C10        10.2850   35.1500   60.4640  C.3       1 <0>         0.0795
      14  C11         9.9790   36.6440   60.5820  C.3       1 <0>        -0.1500
      15  C12        11.4080   34.7810   61.4340  C.3       1 <0>        -0.1726
      16  C13         5.8800   36.1420   59.3640  C.3       1 <0>        -0.0932
      17  C14         5.7410   37.4120   60.2050  C.3       1 <0>        -0.1478
      18  C15         4.6740   36.0130   58.4320  C.3       1 <0>        -0.1520
@<TRIPOS>BOND
     1     1     2 1
     2     2     7 1
     3     2     3 1
     4     3     4 1
     5     4     5 1
     6     5     6 1
     7     5    16 1
     8     6     7 1
     9     6     8 1
    10     8     9 1
    11     9    10 1
    12    10    11 2
    13    10    12 1
    14    12    13 1
    15    13    14 1
    16    13    15 1
    17    16    17 1
    18    16    18 1

@<TRIPOS>MOLECULE
ZINC12848555_replica-1.pdb
 30 33 0 0 0
SMALL
GASTEIGER

@<TRIPOS>ATOM
       1  C1          7.6830   36.2510   55.3290  C.3       1 <0>        -0.1315
       2  C2          6.7450   35.3000   56.0870  C.3       1 <0>        -0.0677
       3  C3          5.8570   34.4590   55.1280  C.3       1 <0>        -0.1240
       4  C4          5.4340   33.3260   56.0960  C.3       1 <0>         0.1419
       5  C5          4.3740   33.9020   57.0310  C.3       1 <0>        -0.1186
       6  C6          4.8230   35.1450   57.7770  C.3       1 <0>        -0.0527
       7  C7          5.8100   36.0350   57.0450  C.3       1 <0>        -0.0973
       8  C8          5.3840   34.7540   59.1520  C.3       1 <0>        -0.1438
       9  C9          3.5560   35.9950   58.0500  C.3       1 <0>        -0.1474
      10  N1          6.6510   33.0180   56.8740  N.am      1 <0>        -0.6024
      11  C10         7.5150   34.2080   56.8630  C.3       1 <0>         0.1032
      12  C11         6.9290   31.8470   57.4810  C.2       1 <0>         0.5520
      13  O1          6.1420   30.9260   57.4120  O.2       1 <0>        -0.5210
      14  C12         8.2190   31.6800   58.2420  C.3       1 <0>        -0.1553
      15  S1          7.9010   31.8630   60.0180  S.3       1 <0>         0.1153
      16  C13         9.0150   33.1320   60.5220  C.ar      1 <0>         0.3023
      17  N2         10.1210   32.8000   61.1710  N.ar      1 <0>        -0.4724
      18  C14        10.9830   33.7380   61.5650  C.ar      1 <0>         0.3016
      19  C15        10.7000   35.0810   61.2830  C.ar      1 <0>        -0.1869
      20  C16         9.5340   35.3790   60.6040  C.ar      1 <0>         0.1159
      21  N3          8.7260   34.3950   60.2390  N.ar      1 <0>        -0.5028
      22  C17         9.1870   36.8090   60.2800  C.3       1 <0>         0.5271
      23  F1          9.0640   36.9560   58.8930  F         1 <0>        -0.1622
      24  F2          7.9770   37.1460   60.8940  F         1 <0>        -0.1582
      25  F3         10.2000   37.6530   60.7500  F         1 <0>        -0.1625
      26  C18        12.2140   33.3670   62.2880  C.2       1 <0>        -0.1596
      27  C19        13.3640   34.0920   62.4650  C.2       1 <0>        -0.0770
      28  C20        14.3950   33.5330   63.1850  C.2       1 <0>        -0.1707
      29  C21        14.2430   32.2840   63.6980  C.2       1 <0>        -0.1420
      30  S2         12.5920   31.8590   63.1660  S.3       1 <0>         0.0953
@<TRIPOS>BOND
     1     1     2 1
     2     2     7 1
     3     2    11 1
     4     2     3 1
     5     3     4 1
     6     4     5 1
     7     4    10 1
     8     5     6 1
     9     6     7 1
    10     6     8 1
    11     6     9 1
    12    10    11 1
    13    10    12 am
    14    12    13 2
    15    12    14 1
    16    14    15 1
    17    15    16 1
    18    16    21 ar
    19    16    17 ar
    20    17    18 ar
    21    18    19 ar
    22    18    26 1
    23    19    20 ar
    24    20    21 ar
    25    20    22 1
    26    22    23 1
    27    22    24 1
    28    22    25 1
    29    26    30 1
    30    26    27 2
    31    27    28 1
    32    28    29 2
    33    29    30 1

@<TRIPOS>MOLECULE
ZINC44825847_replica-1.pdb
 20 21 0 0 0
SMALL
GASTEIGER

@<TRIPOS>ATOM
       1  C1          0.6040   25.5180   54.9950  C.3       1 <0>        -0.1522
       2  C2          0.5300   26.8990   55.6500  C.3       1 <0>        -0.1300
       3  C3          0.5950   27.9790   54.5680  C.3       1 <0>        -0.1002
       4  C4         -0.6160   28.9060   54.7010  C.3       1 <0>         0.0325
       5  C5         -1.4180   28.8880   53.3990  C.3       1 <0>        -0.1136
       6  C6         -1.0050   27.6770   52.5610  C.3       1 <0>        -0.1299
       7  C7         -1.6980   27.7360   51.1990  C.3       1 <0>        -0.1519
       8  C8         -1.4680   28.4440   55.8090  C.1       1 <0>         0.2016
       9  N1         -2.1260   28.0870   56.6640  N.1       1 <0>        -0.3924
      10  C9         -0.1450   30.3090   54.9820  C.2       1 <0>         0.5269
      11  O1         -0.5140   31.2250   54.2780  O.2       1 <0>        -0.4443
      12  N2          0.6860   30.5480   56.0160  N.am      1 <0>        -0.6200
      13  C10         1.1190   31.8420   56.2760  C.2       1 <0>         0.2714
      14  N3          2.1990   32.4440   55.8380  N.2       1 <0>        -0.5129
      15  C11         2.4950   33.7070   56.1740  C.2       1 <0>         0.0709
      16  C12         1.5970   34.3010   56.9930  C.2       1 <0>        -0.2479
      17  S1          0.3850   33.0230   57.2250  S.3       1 <0>         0.1540
      18  C13         1.9870   35.7070   57.3340  C.3       1 <0>        -0.0263
      19  C14         3.4840   35.7990   56.9590  C.3       1 <0>        -0.1137
      20  C15         3.6060   34.7100   55.8740  C.3       1 <0>        -0.0418
@<TRIPOS>BOND
     1     1     2 1
     2     2     3 1
     3     3     4 1
     4     4     5 1
     5     4     8 1
     6     4    10 1
     7     5     6 1
     8     6     7 1
     9     8     9 3
    10    10    11 2
    11    10    12 am
    12    12    13 1
    13    13    17 1
    14    13    14 2
    15    14    15 1
    16    15    20 1
    17    15    16 2
    18    16    17 1
    19    16    18 1
    20    18    19 1
    21    19    20 1

@<TRIPOS>MOLECULE
ZINC59850646_replica-1.pdb
 21 22 0 0 0
SMALL
GASTEIGER

@<TRIPOS>ATOM
       1  C1         -2.4000   28.8050   56.9450  C.3       1 <0>        -0.1444
       2  C2         -1.8330   30.0520   56.2640  C.3       1 <0>        -0.1300
       3  C3         -0.4280   29.7520   55.7380  C.3       1 <0>         0.2488
       4  C4         -0.5180   28.7760   54.5930  C.2       1 <0>        -0.1563
       5  C5         -1.2330   28.8710   53.4460  C.2       1 <0>        -0.1448
       6  C6         -1.1620   27.8430   52.5250  C.2       1 <0>        -0.1556
       7  C7         -0.3800   26.7700   52.7970  C.2       1 <0>        -0.1682
       8  S1          0.2950   27.2000   54.3920  S.3       1 <0>         0.0356
       9  N1          0.1960   30.9940   55.2730  N.am      1 <0>        -0.7397
      10  C8          0.9190   31.7440   56.1270  C.2       1 <0>         0.7125
      11  O1          0.9750   31.4450   57.3040  O.2       1 <0>        -0.5745
      12  N2          1.5830   32.8280   55.6760  N.am      1 <0>        -0.7409
      13  C9          2.4560   33.5810   56.5800  C.3       1 <0>         0.2555
      14  C10         3.8770   33.5020   56.0850  C.2       1 <0>        -0.1518
      15  C11         4.4070   33.9810   54.9330  C.2       1 <0>        -0.1431
      16  C12         5.7540   33.7900   54.6860  C.2       1 <0>        -0.1551
      17  C13         6.5040   33.1300   55.6010  C.2       1 <0>        -0.1679
      18  S2          5.3000   32.7590   56.8660  S.3       1 <0>         0.0355
      19  C14         2.0090   35.0440   56.6190  C.3       1 <0>        -0.1010
      20  C15         0.5800   35.1270   57.1580  C.3       1 <0>        -0.1378
      21  C16         2.9460   35.8390   57.5310  C.3       1 <0>        -0.1472
@<TRIPOS>BOND
     1     1     2 1
     2     2     3 1
     3     3     4 1
     4     3     9 1
     5     4     8 1
     6     4     5 2
     7     5     6 1
     8     6     7 2
     9     7     8 1
    10     9    10 am
    11    10    11 2
    12    10    12 am
    13    12    13 1
    14    13    14 1
    15    13    19 1
    16    14    18 1
    17    14    15 2
    18    15    16 1
    19    16    17 2
    20    17    18 1
    21    19    20 1
    22    19    21 1

@<TRIPOS>MOLECULE
ZINC37630035_replica-1.pdb
 20 20 0 0 0
SMALL
GASTEIGER

@<TRIPOS>ATOM
       1  C1         12.0950   29.2000   64.6800  C.3       1 <0>        -0.1532
       2  C2         13.1450   30.1110   64.0410  C.3       1 <0>        -0.1241
       3  C3         12.5020   30.9090   62.9050  C.3       1 <0>        -0.1120
       4  C4         11.2810   31.6620   63.4390  C.3       1 <0>        -0.0390
       5  C5         10.7250   32.5490   62.3550  C.2       1 <0>         0.0831
       6  C6         11.1810   33.8310   62.0280  C.2       1 <0>        -0.2297
       7  C7         10.4260   34.2940   61.0060  C.2       1 <0>         0.0909
       8  N1          9.5230   33.3400   60.6950  N.pl3     1 <0>        -0.3677
       9  N2          9.7340   32.2520   61.5530  N.2       1 <0>        -0.2943
      10  C8          8.5070   33.4230   59.6440  C.3       1 <0>         0.1325
      11  C9          7.1860   33.9020   60.2480  C.3       1 <0>        -0.1356
      12  C10         6.4390   34.7610   59.2260  C.3       1 <0>        -0.1214
      13  C11         5.4320   35.6560   59.9490  C.3       1 <0>        -0.1527
      14  C12        10.5680   35.6350   60.3330  C.3       1 <0>        -0.0590
      15  C13        10.1060   36.7360   61.2910  C.3       1 <0>        -0.1132
      16  C14         8.7070   37.2060   60.8880  C.3       1 <0>        -0.1240
      17  C15         8.7800   37.9330   59.5430  C.3       1 <0>        -0.1540
      18  C16        12.3130   34.5660   62.6990  C.3       1 <0>        -0.0384
      19  C17        13.6260   34.2370   61.9870  C.3       1 <0>        -0.1189
      20  C18        14.6580   33.7620   63.0130  C.3       1 <0>        -0.1535
@<TRIPOS>BOND
     1     1     2 1
     2     2     3 1
     3     3     4 1
     4     4     5 1
     5     5     9 2
     6     5     6 1
     7     6     7 2
     8     6    18 1
     9     7     8 1
    10     7    14 1
    11     8     9 1
    12     8    10 1
    13    10    11 1
    14    11    12 1
    15    12    13 1
    16    14    15 1
    17    15    16 1
    18    16    17 1
    19    18    19 1
    20    19    20 1

@<TRIPOS>MOLECULE
ZINC54557787_replica-1.pdb
 19 19 0 0 0
SMALL
GASTEIGER

@<TRIPOS>ATOM
       1  C1          5.1980   33.2950   61.1460  C.3       1 <0>        -0.1524
       2  C2          6.5580   33.4200   60.4570  C.3       1 <0>         0.0534
       3  O1          6.3890   33.2940   59.0430  O.3       1 <0>        -0.3507
       4  C3          6.6560   34.3780   58.2990  C.2       1 <0>         0.4801
       5  O2          6.5500   34.3280   57.0960  O.2       1 <0>        -0.4944
       6  C4          7.0880   35.6600   58.9640  C.3       1 <0>        -0.0695
       7  C5          5.9420   36.6730   58.9110  C.3       1 <0>        -0.1436
       8  C6          4.6530   35.9640   58.4910  C.3       1 <0>        -0.1334
       9  C7          5.7520   37.2980   60.2960  C.3       1 <0>        -0.1483
      10  C8          8.3040   36.2300   58.2320  C.3       1 <0>         0.1479
      11  C9          9.3780   35.1470   58.1080  C.3       1 <0>        -0.1456
      12  C10         9.7950   34.6800   59.5030  C.3       1 <0>        -0.1746
      13  C11        10.3560   35.8660   60.2910  C.3       1 <0>        -0.0762
      14  C12         9.2830   36.9490   60.4160  C.3       1 <0>        -0.1604
      15  C13         8.8650   37.4160   59.0190  C.3       1 <0>        -0.1641
      16  C14        10.7730   35.4000   61.6870  C.3       1 <0>        -0.0926
      17  C15        11.7970   34.2690   61.5620  C.3       1 <0>        -0.1498
      18  C16        11.3970   36.5690   62.4510  C.3       1 <0>        -0.1490
      19  O3          7.9150   36.6660   56.9280  O.3       1 <0>        -0.5555
@<TRIPOS>BOND
     1     1     2 1
     2     2     3 1
     3     3     4 1
     4     4     5 2
     5     4     6 1
     6     6     7 1
     7     6    10 1
     8     7     8 1
     9     7     9 1
    10    10    15 1
    11    10    11 1
    12    10    19 1
    13    11    12 1
    14    12    13 1
    15    13    14 1
    16    13    16 1
    17    14    15 1
    18    16    17 1
    19    16    18 1

@<TRIPOS>MOLECULE
ZINC08975534_replica-1.pdb
 27 31 0 0 0
SMALL
GASTEIGER

@<TRIPOS>ATOM
       1  C1         -0.1040   34.1110   61.3700  C.3       1 <0>        -0.1606
       2  S1          0.9210   33.1060   60.2610  S.3       1 <0>        -0.0706
       3  C2          1.3730   34.2200   58.9730  C.ar      1 <0>        -0.0380
       4  C3          0.4180   34.6600   58.0830  C.ar      1 <0>        -0.1282
       5  C4          0.7360   35.5360   57.0570  C.ar      1 <0>        -0.0779
       6  C5          2.0390   35.9790   56.9210  C.ar      1 <0>        -0.0706
       7  C6          3.0000   35.5470   57.8040  C.ar      1 <0>        -0.1233
       8  C7          2.7200   34.6550   58.8620  C.ar      1 <0>         0.1135
       9  N1          3.7720   34.3240   59.6440  N.2       1 <0>        -0.5111
      10  C8          4.9800   34.7960   59.4370  C.2       1 <0>         0.3384
      11  S2          4.7410   35.8410   58.0070  S.3       1 <0>        -0.0296
      12  N2          6.1390   34.5490   60.1460  N.pl3     1 <0>        -0.4262
      13  C9          7.1110   35.6360   59.9610  C.3       1 <0>         0.0600
      14  C10         8.3470   35.3630   60.8230  C.3       1 <0>         0.0603
      15  N3          8.9290   34.0690   60.4430  N.pl3     1 <0>        -0.4266
      16  C11         7.9580   32.9830   60.6270  C.3       1 <0>         0.0495
      17  C12         6.7230   33.2550   59.7660  C.3       1 <0>         0.0502
      18  C13        10.0880   33.8220   61.1510  C.2       1 <0>         0.3414
      19  N4         10.4820   32.7070   61.7240  N.2       1 <0>        -0.5193
      20  C14        11.6550   32.6080   62.3900  C.ar      1 <0>         0.0911
      21  C15        12.1920   31.4770   63.0460  C.ar      1 <0>        -0.0366
      22  C16        13.4050   31.5450   63.6810  C.ar      1 <0>        -0.1368
      23  C17        14.1460   32.7200   63.7030  C.ar      1 <0>         0.1178
      24  C18        13.6490   33.8460   63.0700  C.ar      1 <0>        -0.0966
      25  C19        12.4350   33.7850   62.4330  C.ar      1 <0>        -0.1233
      26  S3         11.4390   34.9340   61.5140  S.3       1 <0>        -0.0179
      27  F1         15.3400   32.7610   64.3340  F         1 <0>        -0.1261
@<TRIPOS>BOND
     1     1     2 1
     2     2     3 1
     3     3     8 ar
     4     3     4 ar
     5     4     5 ar
     6     5     6 ar
     7     6     7 ar
     8     7    11 1
     9     7     8 ar
    10     8     9 1
    11     9    10 2
    12    10    11 1
    13    10    12 1
    14    12    17 1
    15    12    13 1
    16    13    14 1
    17    14    15 1
    18    15    16 1
    19    15    18 1
    20    16    17 1
    21    18    26 1
    22    18    19 2
    23    19    20 1
    24    20    25 ar
    25    20    21 ar
    26    21    22 ar
    27    22    23 ar
    28    23    24 ar
    29    23    27 1
    30    24    25 ar
    31    25    26 1

@<TRIPOS>MOLECULE
ZINC50482617_replica-1.pdb
 17 17 0 0 0
SMALL
GASTEIGER

@<TRIPOS>ATOM
       1  C1         11.2290   32.8520   62.3420  C.3       1 <0>        -0.1527
       2  C2         11.8750   34.2380   62.3800  C.3       1 <0>        -0.0912
       3  C3         13.3860   34.1020   62.1840  C.3       1 <0>        -0.1531
       4  C4         11.2910   35.1040   61.2620  C.3       1 <0>        -0.0822
       5  C5         10.4990   36.2620   61.8730  C.3       1 <0>        -0.1142
       6  C6          9.9150   37.1260   60.7550  C.3       1 <0>        -0.1398
       7  C7          8.9870   36.2770   59.8850  C.3       1 <0>         0.0974
       8  C8          9.7780   35.1190   59.2740  C.3       1 <0>        -0.1170
       9  C9         10.3620   34.2530   60.3920  C.3       1 <0>        -0.1140
      10  C10         8.4020   37.1410   58.7670  C.3       1 <0>        -0.0503
      11  N1          8.5980   36.4710   57.4750  N.4       1 <0>        -0.5008
      12  C11         7.5710   36.9230   56.5280  C.3       1 <0>         0.0531
      13  C12         7.8710   36.3550   55.1390  C.3       1 <0>        -0.1782
      14  C13         6.1970   36.4340   56.9920  C.3       1 <0>        -0.1773
      15  C14         7.5740   38.4520   56.4640  C.3       1 <0>        -0.1788
      16  O1          7.9250   35.7560   60.6890  O.3       1 <0>        -0.3648
      17  C15         6.7550   36.5750   60.7060  C.3       1 <0>         0.0076
@<TRIPOS>BOND
     1     1     2 1
     2     2     3 1
     3     2     4 1
     4     4     9 1
     5     4     5 1
     6     5     6 1
     7     6     7 1
     8     7     8 1
     9     7    10 1
    10     7    16 1
    11     8     9 1
    12    10    11 1
    13    11    12 1
    14    12    13 1
    15    12    14 1
    16    12    15 1
    17    16    17 1

@<TRIPOS>MOLECULE
ZINC43889470_replica-1.pdb
 17 17 0 0 0
SMALL
GASTEIGER

@<TRIPOS>ATOM
       1  C1         12.1820   35.2290   62.7400  C.3       1 <0>        -0.1596
       2  C2         11.6430   34.3690   61.5950  C.3       1 <0>        -0.1161
       3  C3         10.3800   35.0180   61.0230  C.3       1 <0>        -0.1187
       4  C4         10.3710   36.5090   61.3650  C.3       1 <0>        -0.1692
       5  C5         10.3620   34.8430   59.5020  C.3       1 <0>        -0.0150
       6  N1          9.0070   34.4770   59.0680  N.4       1 <0>        -0.3852
       7  C6          8.3380   33.7230   60.1360  C.3       1 <0>        -0.0763
       8  C7          8.2410   35.6940   58.7730  C.3       1 <0>        -0.0231
       9  C8          6.7490   35.3580   58.7190  C.3       1 <0>        -0.1376
      10  C9          5.9320   36.6470   58.8110  C.3       1 <0>        -0.1260
      11  C10         6.5170   37.5470   59.9000  C.3       1 <0>        -0.1328
      12  C11         7.1150   38.8010   59.2590  C.3       1 <0>        -0.1289
      13  C12         8.4520   38.4510   58.6040  C.3       1 <0>        -0.1320
      14  C13         8.1980   37.7060   57.2930  C.3       1 <0>        -0.1163
      15  C14         8.6850   36.2620   57.4230  C.3       1 <0>         0.0792
      16  N2          8.1110   35.4530   56.3390  N.3       1 <0>        -0.6951
      17  C15         7.7460   36.2930   55.1910  C.3       1 <0>         0.0140
@<TRIPOS>BOND
     1     1     2 1
     2     2     3 1
     3     3     4 1
     4     3     5 1
     5     5     6 1
     6     6     7 1
     7     6     8 1
     8     8    15 1
     9     8     9 1
    10     9    10 1
    11    10    11 1
    12    11    12 1
    13    12    13 1
    14    13    14 1
    15    14    15 1
    16    15    16 1
    17    16    17 1

@<TRIPOS>MOLECULE
ZINC41187268_replica-1.pdb
 17 17 0 0 0
SMALL
GASTEIGER

@<TRIPOS>ATOM
       1  C1          9.9890   36.8630   61.1160  C.3       1 <0>        -0.1901
       2  C2          9.6150   36.2510   59.7650  C.3       1 <0>        -0.0858
       3  C3         10.2560   34.8680   59.6360  C.3       1 <0>        -0.1529
       4  C4          8.0940   36.1190   59.6670  C.3       1 <0>        -0.1351
       5  C5          7.5660   37.0800   58.5990  C.3       1 <0>         0.1638
       6  C6          7.1840   38.4090   59.2540  C.3       1 <0>        -0.1665
       7  C7          6.3530   36.4780   57.9380  C.2       1 <0>        -0.0315
       8  N1          5.2910   35.9620   58.5040  N.2       1 <0>        -0.4577
       9  C8          4.3010   35.4690   57.7850  C.2       1 <0>         0.0772
      10  C9          4.4350   35.5250   56.4350  C.2       1 <0>        -0.1824
      11  S1          6.0290   36.3150   56.2940  S.3       1 <0>         0.1463
      12  C10         3.0780   34.8730   58.4330  C.3       1 <0>         0.0054
      13  C11         2.5110   33.7720   57.5350  C.3       1 <0>        -0.1521
      14  C12         3.4590   34.2780   59.7900  C.3       1 <0>        -0.1380
      15  C13         2.0230   35.9630   58.6320  C.3       1 <0>        -0.1375
      16  N2          8.6100   37.3120   57.5910  N.4       1 <0>        -0.5020
      17  C14         8.6250   38.7330   57.2200  C.3       1 <0>        -0.0671
@<TRIPOS>BOND
     1     1     2 1
     2     2     3 1
     3     2     4 1
     4     4     5 1
     5     5     6 1
     6     5     7 1
     7     5    16 1
     8     7    11 1
     9     7     8 2
    10     8     9 1
    11     9    10 2
    12     9    12 1
    13    10    11 1
    14    12    13 1
    15    12    14 1
    16    12    15 1
    17    16    17 1

@<TRIPOS>MOLECULE
ZINC53067370_replica-1.pdb
 16 17 0 0 0
SMALL
GASTEIGER

@<TRIPOS>ATOM
       1  C1         13.6010   31.8140   63.3980  C.3       1 <0>        -0.1567
       2  C2         14.1030   33.2590   63.4200  C.3       1 <0>        -0.1269
       3  C3         12.9190   34.2130   63.2520  C.3       1 <0>        -0.1254
       4  C4         12.6030   34.3750   61.7630  C.3       1 <0>        -0.1340
       5  C5         11.0860   34.4430   61.5680  C.3       1 <0>         0.1270
       6  C6         10.4910   33.0400   61.6940  C.3       1 <0>        -0.1778
       7  N1         10.7890   34.9830   60.2380  N.pl3     1 <0>        -0.6225
       8  C7          9.7470   35.8640   60.0710  C.cat     1 <0>         0.4830
       9  N2          9.1950   36.2300   58.9470  N.pl3     1 <0>        -0.6282
      10  C8          8.1120   37.1900   58.9250  C.3       1 <0>         0.1251
      11  C9          7.0360   36.7820   57.8950  C.3       1 <0>        -0.1222
      12  C10         7.6160   37.3190   56.5620  C.3       1 <0>        -0.1330
      13  C11         8.2810   38.6570   56.9500  C.3       1 <0>        -0.1309
      14  C12         8.5990   38.5710   58.4530  C.3       1 <0>        -0.1296
      15  C13         7.4480   37.3310   60.3170  C.3       1 <0>        -0.0977
      16  S1          8.8580   36.7420   61.3470  S.3       1 <0>         0.0223
@<TRIPOS>BOND
     1     1     2 1
     2     2     3 1
     3     3     4 1
     4     4     5 1
     5     5     6 1
     6     5     7 1
     7     7     8 1
     8     8    16 1
     9     8     9 2
    10     9    10 1
    11    10    14 1
    12    10    11 1
    13    10    15 1
    14    11    12 1
    15    12    13 1
    16    13    14 1
    17    15    16 1

@<TRIPOS>MOLECULE
ZINC51920004_replica-1.pdb
 19 20 0 0 0
SMALL
GASTEIGER

@<TRIPOS>ATOM
       1  C1         11.2510   34.4430   61.4770  C.3       1 <0>        -0.1511
       2  C2         10.0770   35.1410   60.7870  C.3       1 <0>        -0.0828
       3  C3         10.1340   36.6420   61.0780  C.3       1 <0>        -0.1174
       4  C4          8.9600   37.3390   60.3880  C.3       1 <0>        -0.1118
       5  C5          9.0440   37.1090   58.8780  C.3       1 <0>        -0.0779
       6  C6          8.9870   35.6080   58.5880  C.3       1 <0>         0.0979
       7  C7         10.1610   34.9100   59.2770  C.3       1 <0>        -0.1374
       8  O1          7.7580   35.0730   59.0840  O.3       1 <0>        -0.3692
       9  C8          7.1000   34.1880   58.1740  C.3       1 <0>         0.0600
      10  C9          7.7080   34.3460   56.7790  C.3       1 <0>        -0.1130
      11  C10         6.6150   34.7530   55.7890  C.3       1 <0>        -0.1071
      12  C11         5.5410   35.5640   56.5190  C.3       1 <0>        -0.1386
      13  C12         4.4140   35.9000   55.5370  C.3       1 <0>        -0.1477
      14  C13         3.8590   34.6030   54.9440  C.3       1 <0>        -0.0084
      15  N1          4.9270   33.8860   54.2380  N.4       1 <0>        -0.5046
      16  C14         5.9790   33.4980   55.1860  C.3       1 <0>        -0.0051
      17  C15         7.8700   37.8060   58.1890  C.3       1 <0>        -0.0877
      18  C16         7.2050   38.7750   59.1690  C.3       1 <0>        -0.1527
      19  C17         8.3800   38.5820   56.9730  C.3       1 <0>        -0.1498
@<TRIPOS>BOND
     1     1     2 1
     2     2     7 1
     3     2     3 1
     4     3     4 1
     5     4     5 1
     6     5     6 1
     7     5    17 1
     8     6     7 1
     9     6     8 1
    10     8     9 1
    11     9    10 1
    12    10    11 1
    13    11    16 1
    14    11    12 1
    15    12    13 1
    16    13    14 1
    17    14    15 1
    18    15    16 1
    19    17    18 1
    20    17    19 1

@<TRIPOS>MOLECULE
ZINC41200856_replica-1.pdb
 18 19 0 0 0
SMALL
GASTEIGER

@<TRIPOS>ATOM
       1  C1          9.9250   35.8840   59.8100  C.3       1 <0>        -0.1519
       2  C2          8.6600   36.6980   60.0950  C.3       1 <0>         0.0048
       3  C3          8.5370   36.9360   61.6020  C.3       1 <0>        -0.1382
       4  C4          8.7440   38.0420   59.3710  C.3       1 <0>        -0.1381
       5  C5          7.4540   35.9380   59.6060  C.2       1 <0>         0.0782
       6  C6          6.8990   34.9400   60.3390  C.2       1 <0>        -0.1739
       7  S1          5.5560   34.4530   59.2670  S.3       1 <0>         0.1184
       8  C7          5.8410   35.5530   58.0260  C.2       1 <0>        -0.0382
       9  N1          6.8860   36.2170   58.4500  N.2       1 <0>        -0.4504
      10  C8          5.0750   35.7330   56.7400  C.3       1 <0>         0.1470
      11  C9          5.8560   35.0970   55.5890  C.3       1 <0>        -0.0708
      12  C10         4.8970   34.7690   54.4420  C.3       1 <0>        -0.1753
      13  C11         6.9230   36.0760   55.0950  C.3       1 <0>        -0.1749
      14  C12         6.5280   33.8120   56.0760  C.3       1 <0>        -0.1414
      15  N2          3.7620   35.0850   56.8590  N.4       1 <0>        -0.4812
      16  C13         2.7600   36.0800   57.2690  C.3       1 <0>        -0.0849
      17  C14         1.2890   35.7480   57.0120  C.3       1 <0>        -0.1562
      18  C15         1.8430   35.7190   58.4370  C.3       1 <0>        -0.1508
@<TRIPOS>BOND
     1     1     2 1
     2     2     3 1
     3     2     4 1
     4     2     5 1
     5     5     9 1
     6     5     6 2
     7     6     7 1
     8     7     8 1
     9     8     9 2
    10     8    10 1
    11    10    11 1
    12    10    15 1
    13    11    12 1
    14    11    13 1
    15    11    14 1
    16    15    16 1
    17    16    18 1
    18    16    17 1
    19    17    18 1

@<TRIPOS>MOLECULE
ZINC50851993_replica-1.pdb
 18 19 0 0 0
SMALL
GASTEIGER

@<TRIPOS>ATOM
       1  C1         10.2390   35.7070   60.2190  C.3       1 <0>        -0.1502
       2  C2          9.7720   37.0070   60.8780  C.3       1 <0>        -0.1359
       3  C3          8.3920   36.7930   61.5030  C.3       1 <0>         0.1240
       4  N1          7.4060   37.6240   60.8070  N.pl3     1 <0>        -0.7140
       5  C4          6.7030   37.1100   59.7310  C.ar      1 <0>         0.4428
       6  C5          7.2170   37.2080   58.4350  C.ar      1 <0>        -0.2979
       7  C6          6.4820   36.6810   57.3910  C.ar      1 <0>         0.2170
       8  N2          5.3180   36.1020   57.6450  N.ar      1 <0>        -0.5545
       9  C7          4.8520   36.0220   58.8840  C.ar      1 <0>         0.4242
      10  N3          5.5310   36.5110   59.9150  N.ar      1 <0>        -0.5770
      11  C8          3.5470   35.3670   59.1250  C.2       1 <0>        -0.0999
      12  C9          2.3690   35.8990   58.5990  C.2       1 <0>        -0.1120
      13  C10         1.2310   35.2240   58.8750  C.2       1 <0>        -0.2173
      14  S1          1.8230   33.8650   59.8630  S.3       1 <0>         0.1752
      15  C11         3.4640   34.2230   59.8630  C.2       1 <0>        -0.1855
      16  C12         6.9990   36.7650   55.9770  C.3       1 <0>        -0.0476
      17  C13         7.2010   38.2330   55.5940  C.3       1 <0>        -0.1403
      18  C14         8.3320   36.0230   55.8770  C.3       1 <0>        -0.1465
@<TRIPOS>BOND
     1     1     2 1
     2     2     3 1
     3     3     4 1
     4     4     5 1
     5     5    10 ar
     6     5     6 ar
     7     6     7 ar
     8     7     8 ar
     9     7    16 1
    10     8     9 ar
    11     9    10 ar
    12     9    11 1
    13    11    15 2
    14    11    12 1
    15    12    13 2
    16    13    14 1
    17    14    15 1
    18    16    17 1
    19    16    18 1


