@<TRIPOS>MOLECULE
ZINC40866735_replica-1.pdb
 26 27 0 0 0
SMALL
GASTEIGER

@<TRIPOS>ATOM
      1  C10        0.4770   31.2500   55.8280 C.2     0  <0>0        0.2856
      2  O2         0.3290   30.9490   56.9940 O.2     0  <0>0       -0.2693
      3  N1         1.4480   32.1140   55.4730 N.am    0  <0>0       -0.2028
      4  H11        1.5670   32.3530   54.5410 H       0  <0>0        0.1774
      5  C9        -0.4250   30.6560   54.7760 C.3     0  <0>0        0.2911
      6  O1        -0.9390   29.4060   55.2400 O.3     0  <0>0       -0.4662
      7  C6        -0.6710   28.3090   54.4840 C.ar    0  <0>0        0.1309
      8  C5         0.1290   27.2960   54.9910 C.ar    0  <0>0        0.0118
      9  C4         0.4020   26.1820   54.2200 C.ar    0  <0>0       -0.0016
     10  C21        0.7000   27.4100   56.3810 C.3     0  <0>0        0.0342
     11  C3        -0.1220   26.0770   52.9440 C.ar    0  <0>0       -0.0047
     12  C2        -0.9200   27.0860   52.4370 C.ar    0  <0>0       -0.0229
     13  C1        -1.4890   26.9680   51.0470 C.3     0  <0>0        0.0308
     14  C7        -1.1900   28.2050   53.2010 C.ar    0  <0>0        0.0079
     15  C8        -2.0540   29.3080   52.6450 C.3     0  <0>0        0.0339
     16  N2         2.2870   32.6640   56.4510 N.2     0  <0>0       -0.1775
     17  C11        2.5020   33.9440   56.4750 C.2     0  <0>0        0.1176
     18  C12        3.3850   34.5240   57.5040 C.ar    0  <0>0        0.0207
     19  C17        4.3370   35.4820   57.1530 C.ar    0  <0>0        0.0013
     20  C16        5.1570   36.0240   58.1220 C.ar    0  <0>0       -0.0042
     21  C15        5.0420   35.6120   59.4370 C.ar    0  <0>0       -0.0225
     22  C14        4.1040   34.6590   59.7920 C.ar    0  <0>0       -0.0042
     23  C13        3.2750   34.1120   58.8350 C.ar    0  <0>0        0.0013
     24  C18        5.9440   36.2050   60.4890 C.3     0  <0>0        0.0224
     25  C19        7.2560   35.4200   60.5380 C.3     0  <0>0        0.0047
     26  C20        6.2370   37.6660   60.1460 C.3     0  <0>0        0.0047
@<TRIPOS>BOND
     1    13    12    1
     2    12    11   ar
     3    12    14   ar
     4    15    14    1
     5    11     9   ar
     6    14     7   ar
     7     9     8   ar
     8     7     8   ar
     9     7     6    1
    10     4     3    1
    11     5     6    1
    12     5     1    1
    13     8    10    1
    14     3     1   am
    15     3    16    1
    16     1     2    2
    17    16    17    2
    18    17    18    1
    19    19    18   ar
    20    19    20   ar
    21    18    23   ar
    22    20    21   ar
    23    23    22   ar
    24    21    22   ar
    25    21    24    1
    26    26    24    1
    27    24    25    1
