@<TRIPOS>MOLECULE
ZINC02066153_replica-1.pdb
 31 33 0 0 0
SMALL
GASTEIGER

@<TRIPOS>ATOM
      1  C5         0.0090   31.8340   56.7760 C.2     0  <0>0        0.0892
      2  C6         0.2950   31.7410   55.4490 C.3     0  <0>0        0.1103
      3  C4         0.6100   32.8990   57.5820 C.2     0  <0>0        0.2559
      4  N1         0.2810   34.1850   57.3530 N.am    0  <0>0       -0.2961
      5  H6        -0.3550   34.4060   56.6550 H       0  <0>0        0.1501
      6  O1         1.4080   32.6210   58.4590 O.2     0  <0>0       -0.2691
      7  C3         0.8830   35.2510   58.1590 C.3     0  <0>0        0.1163
      8  C2         1.7000   36.1520   57.2710 C.2     0  <0>0       -0.0049
      9  C1         2.7330   35.6730   56.6240 C.2     0  <0>0       -0.0032
     10  N2        -0.8600   30.9120   57.3710 N.am    0  <0>0       -0.2798
     11  C17       -0.3940   29.7190   57.7900 C.2     0  <0>0        0.2494
     12  O3         0.7950   29.4770   57.7300 O.2     0  <0>0       -0.2698
     13  H14       -1.7990   31.1330   57.4810 H       0  <0>0        0.1550
     14  C18       -1.3290   28.7080   58.3260 C.ar    0  <0>0        0.0537
     15  C23       -1.3260   28.4050   59.6890 C.ar    0  <0>0        0.0045
     16  C22       -2.2010   27.4610   60.1840 C.ar    0  <0>0        0.0001
     17  C21       -3.0810   26.8140   59.3340 C.ar    0  <0>0        0.0000
     18  C20       -3.0890   27.1110   57.9820 C.ar    0  <0>0        0.0001
     19  C19       -2.2230   28.0570   57.4750 C.ar    0  <0>0        0.0045
     20  C7        -0.3660   30.7820   54.6480 C.ar    0  <0>0        0.1287
     21  O2         0.0660   29.5290   54.3930 O.2     0  <0>0       -0.4574
     22  C10       -0.8200   28.9060   53.5950 C.ar    0  <0>0        0.1448
     23  C9        -1.8470   29.7640   53.3250 C.ar    0  <0>0        0.0403
     24  C8        -1.5710   30.9590   53.9950 C.ar    0  <0>0        0.0365
     25  C11       -0.7020   27.5230   53.0930 C.ar    0  <0>0        0.0346
     26  C16       -0.0280   26.5580   53.8480 C.ar    0  <0>0        0.0039
     27  C15        0.0790   25.2670   53.3730 C.ar    0  <0>0        0.0115
     28  C14       -0.4800   24.9260   52.1540 C.ar    0  <0>0        0.0577
     29  C13       -1.1500   25.8770   51.4010 C.ar    0  <0>0        0.0115
     30 Cl         -0.3410   23.2990   51.5650 Cl      0  <0>0       -0.0822
     31  C12       -1.2680   27.1700   51.8660 C.ar    0  <0>0        0.0039
@<TRIPOS>BOND
     1    29    31   ar
     2    29    28   ar
     3    30    28    1
     4    31    25   ar
     5    28    27   ar
     6    25    22    1
     7    25    26   ar
     8    23    22   ar
     9    23    24   ar
    10    27    26   ar
    11    22    21   ar
    12    24    20   ar
    13    21    20   ar
    14    20     2    1
    15     2     1    1
    16     9     8    2
    17     5     4    1
    18     1    10    2
    19     1     3    1
    20     8     7    1
    21     4     3   am
    22     4     7    1
    23    10    13    1
    24    10    11   am
    25    19    18   ar
    26    19    14   ar
    27     3     6    2
    28    12    11    2
    29    11    14    1
    30    18    17   ar
    31    14    15   ar
    32    17    16   ar
    33    15    16   ar
