@<TRIPOS>MOLECULE
ZINC27469731_replica-1.pdb
 20 21 0 0 0
SMALL
GASTEIGER

@<TRIPOS>ATOM
      1  C5         8.8420   36.8760   59.0340 C.ar    0  <0>0       -0.0228
      2  C6         9.3280   37.2630   60.2710 C.ar    0  <0>0       -0.0043
      3  C7        10.1150   36.4030   61.0060 C.ar    0  <0>0       -0.0003
      4  C8        10.4220   35.1360   60.4980 C.ar    0  <0>0        0.0001
      5  C9         9.9320   34.7550   59.2450 C.ar    0  <0>0       -0.0003
      6  C10        9.1420   35.6260   58.5240 C.ar    0  <0>0       -0.0043
      7  C11       11.2630   34.2110   61.2760 C.2     0  <0>0        0.0047
      8  C12       12.2230   34.6940   62.0890 C.2     0  <0>0        0.0577
      9  C13       13.0600   33.7730   62.8610 C.2     0  <0>0        0.2460
     10  O1        14.0780   34.1770   63.3910 O.2     0  <0>0       -0.2701
     11  N1        12.7050   32.4790   62.9830 N.am    0  <0>0       -0.3009
     12  H16       11.7840   32.1140   62.5020 H       0  <0>0        0.1497
     13  C14       13.5420   31.5580   63.7540 C.3     0  <0>0        0.0896
     14  C15       12.9590   30.1460   63.6710 C.3     0  <0>0        0.0196
     15  C17       12.6150   29.4460   64.9870 C.3     0  <0>0        0.0017
     16  C16       11.4970   29.9610   64.0800 C.3     0  <0>0        0.0017
     17  C2         7.9820   37.8240   58.2370 C.3     0  <0>0        0.0189
     18  C1         6.9630   37.0250   57.4220 C.3     0  <0>0        0.0044
     19  C3         7.2450   38.7670   59.1900 C.3     0  <0>0        0.0044
     20  C4         8.8640   38.6410   57.2920 C.3     0  <0>0        0.0044
@<TRIPOS>BOND
     1    20    17    1
     2    18    17    1
     3    17     1    1
     4    17    19    1
     5     6     1   ar
     6     6     5   ar
     7     1     2   ar
     8     5     4   ar
     9     2     3   ar
    10     4     3   ar
    11     4     7    1
    12     7     8    2
    13     8     9    1
    14    12    11    1
    15     9    11   am
    16     9    10    2
    17    11    13    1
    18    14    13    1
    19    14    16    1
    20    14    15    1
    21    16    15    1
