@<TRIPOS>MOLECULE
ZINC66199875_replica-1.pdb
 24 24 0 0 0
SMALL
GASTEIGER

@<TRIPOS>ATOM
      1  C5         5.6020   34.8590   58.2180 C.2     0  <0>0        0.1371
      2  S1         4.8750   34.7660   59.7650 S.2     0  <0>0       -0.0185
      3  N2         6.7880   35.4820   58.0680 N.am    0  <0>0       -0.2671
      4  C6         7.4020   36.0290   59.1350 C.2     0  <0>0        0.2310
      5  O1         6.8870   35.9630   60.2300 O.2     0  <0>0       -0.2744
      6  H12        7.1990   35.5350   57.1910 H       0  <0>0        0.1565
      7  C7         8.7270   36.7250   58.9670 C.3     0  <0>0        0.0991
      8  C8         8.5370   38.2340   59.1320 C.3     0  <0>0        0.0143
      9  C9         9.6940   36.2230   60.0090 C.ar    0  <0>0       -0.0139
     10  C14       10.3060   34.9950   59.8500 C.ar    0  <0>0       -0.0041
     11  C13       11.1960   34.5360   60.8040 C.ar    0  <0>0       -0.0046
     12  C12       11.4670   35.3040   61.9220 C.ar    0  <0>0       -0.0222
     13  C11       10.8510   36.5320   62.0830 C.ar    0  <0>0       -0.0046
     14  C10        9.9640   36.9920   61.1270 C.ar    0  <0>0       -0.0041
     15  C15       12.4340   34.8040   62.9630 C.3     0  <0>0        0.0263
     16  C16       13.1450   33.5550   62.4410 C.3     0  <0>0        0.0044
     17  C17       14.6360   33.6390   62.7750 C.3     0  <0>0        0.0003
     18  C18       12.5440   32.3120   63.1000 C.3     0  <0>0        0.0003
     19  N1         4.9880   34.3120   57.1510 N.am    0  <0>0       -0.3174
     20  H11        4.8630   33.3510   57.1020 H       0  <0>0        0.1484
     21  C3         4.5100   35.1680   56.0620 C.3     0  <0>0        0.0707
     22  C4         3.3170   35.9920   56.5480 C.3     0  <0>0        0.0212
     23  C2         4.0790   34.2960   54.8800 C.3     0  <0>0        0.0195
     24  C1         4.9680   34.6000   53.6710 C.3     0  <0>0        0.0017
@<TRIPOS>BOND
     1    24    23    1
     2    23    21    1
     3    21    22    1
     4    21    19    1
     5    20    19    1
     6    19     1    1
     7     6     3    1
     8     3     1    1
     9     3     4   am
    10     1     2    2
    11     7     8    1
    12     7     4    1
    13     7     9    1
    14     4     5    2
    15    10     9   ar
    16    10    11   ar
    17     9    14   ar
    18    11    12   ar
    19    14    13   ar
    20    12    13   ar
    21    12    15    1
    22    16    17    1
    23    16    15    1
    24    16    18    1
