@<TRIPOS>MOLECULE
ZINC04029210_replica-1.pdb
 29 31 0 0 0
SMALL
GASTEIGER

@<TRIPOS>ATOM
      1  C7         9.5810   34.6880   60.8480 C.3     0  <0>0        0.0204
      2  C4         9.0240   33.7160   59.8050 C.3     0  <0>0        0.0088
      3  C3         7.5700   33.3760   60.1470 C.3     0  <0>0        0.0276
      4  C2         6.9970   32.4660   59.0570 C.3     0  <0>0        0.0929
      5  C1         7.7840   31.1550   59.0210 C.3     0  <0>0        0.0296
      6  O1         7.1010   33.1190   57.7900 O.3     0  <0>0       -0.3585
      7  C24        5.5270   32.1710   59.3590 C.3     0  <0>0        0.0296
      8  C6         8.4410   33.4190   57.3970 C.3     0  <0>0        0.1420
      9  C5         9.0730   34.3670   58.4190 C.3     0  <0>0        0.0325
     10  C8        10.0140   35.9830   60.1580 C.3     0  <0>0       -0.0190
     11  C9         9.4570   37.1820   60.9280 C.3     0  <0>0       -0.0809
     12  N1         8.4950   37.9020   60.0720 N.4     0  <0>0        0.3865
     13  H33        8.7140   37.7160   59.0860 H       0  <0>0       -0.0840
     14  H34        8.5680   38.9100   60.2540 H       0  <0>0       -0.0840
     15  C10        7.1190   37.4540   60.3590 C.3     0  <0>0       -0.0543
     16  C11        6.4980   36.9270   59.0910 C.ar    0  <0>0       -0.0437
     17  C16        7.0850   37.1980   57.8690 C.ar    0  <0>0       -0.0063
     18  C15        6.5160   36.7150   56.7050 C.ar    0  <0>0       -0.0004
     19  C14        5.3590   35.9600   56.7640 C.ar    0  <0>0       -0.0000
     20  C13        4.7720   35.6890   57.9870 C.ar    0  <0>0       -0.0004
     21  C12        5.3440   36.1690   59.1500 C.ar    0  <0>0       -0.0063
     22  C17       10.7670   34.0630   61.5350 C.ar    0  <0>0       -0.0224
     23  C22       10.6640   32.7920   62.0680 C.ar    0  <0>0       -0.0012
     24  C21       11.7500   32.2170   62.7000 C.ar    0  <0>0        0.0366
     25  C20       12.9450   32.9160   62.7960 C.ar    0  <0>0        0.1387
     26  C19       13.0460   34.1910   62.2590 C.ar    0  <0>0        0.0366
     27  C18       11.9580   34.7600   61.6250 C.ar    0  <0>0       -0.0012
     28  O2        14.0150   32.3520   63.4170 O.3     0  <0>0       -0.4714
     29  C23       15.0430   33.2360   63.8680 C.3     0  <0>0        0.2525
@<TRIPOS>BOND
     1    18    19   ar
     2    18    17   ar
     3    19    20   ar
     4     8     6    1
     5     8     9    1
     6     6     4    1
     7    17    16   ar
     8    20    21   ar
     9     9     2    1
    10     5     4    1
    11     4     7    1
    12     4     3    1
    13    13    12    1
    14    16    21   ar
    15    16    15    1
    16     2     3    1
    17     2     1    1
    18    12    14    1
    19    12    15    1
    20    12    11    1
    21    10     1    1
    22    10    11    1
    23     1    22    1
    24    22    27   ar
    25    22    23   ar
    26    27    26   ar
    27    23    24   ar
    28    26    25   ar
    29    24    25   ar
    30    25    28    1
    31    28    29    1
