@<TRIPOS>MOLECULE
ZINC02474946_replica-1.pdb
 27 30 0 0 0
SMALL
GASTEIGER

@<TRIPOS>ATOM
      1  C8         0.1850   29.5800   56.6020 C.ar    0  <0>0        0.1338
      2  C9         0.5570   30.8870   56.8180 C.ar    0  <0>0        0.0365
      3  C10        0.3960   31.1560   58.1670 C.ar    0  <0>0        0.0894
      4  N2        -0.0560   30.0600   58.7580 N.ar    0  <0>0       -0.1677
      5  N3        -0.1960   29.0590   57.7950 N.ar    0  <0>0       -0.2165
      6  C17        0.7540   32.5660   58.6340 C.3     0  <0>0        0.1050
      7  S1         0.8190   33.4850   57.0410 S.3     0  <0>0       -0.1288
      8  C18        1.0740   32.0290   55.9460 C.3     0  <0>0        0.0882
      9  N1         0.1970   28.9120   55.3780 N.am    0  <0>0       -0.2658
     10  C7        -0.9600   28.6820   54.7260 C.2     0  <0>0        0.2549
     11  O1        -2.0020   29.1340   55.1580 O.2     0  <0>0       -0.2696
     12  H4         1.0370   28.6130   54.9970 H       0  <0>0        0.1566
     13  C4        -0.9600   27.8820   53.4870 C.ar    0  <0>0        0.1085
     14  C3        -0.3620   26.6170   53.4660 C.ar    0  <0>0        0.1467
     15  C2        -0.3670   25.8740   52.3000 C.ar    0  <0>0        0.0299
     16  F2         0.2180   26.1230   54.5810 F       0  <0>0       -0.2039
     17  C1        -0.9590   26.3760   51.1570 C.ar    0  <0>0        0.0046
     18  C6        -1.5540   27.6250   51.1690 C.ar    0  <0>0        0.0299
     19  C5        -1.5630   28.3800   52.3260 C.ar    0  <0>0        0.1467
     20  F1        -2.1470   29.5980   52.3370 F       0  <0>0       -0.2039
     21  C11       -0.6490   27.7520   58.0200 C.ar    0  <0>0        0.0842
     22  C16       -1.9980   27.5130   58.2440 C.ar    0  <0>0        0.0201
     23  C15       -2.4420   26.2240   58.4650 C.ar    0  <0>0        0.0129
     24  C14       -1.5430   25.1720   58.4650 C.ar    0  <0>0        0.0578
     25  C13       -0.1970   25.4080   58.2420 C.ar    0  <0>0        0.0129
     26 Cl         -2.1030   23.5520   58.7430 Cl      0  <0>0       -0.0822
     27  C12        0.2510   26.6950   58.0150 C.ar    0  <0>0        0.0201
@<TRIPOS>BOND
     1    17    18   ar
     2    17    15   ar
     3    18    19   ar
     4    15    14   ar
     5    19    20    1
     6    19    13   ar
     7    14    13   ar
     8    14    16    1
     9    13    10    1
    10    10    11    2
    11    10     9   am
    12    12     9    1
    13     9     1    1
    14     8     2    1
    15     8     7    1
    16     1     2   ar
    17     1     5   ar
    18     2     3   ar
    19     7     6    1
    20     5    21    1
    21     5     4   ar
    22    27    21   ar
    23    27    25   ar
    24    21    22   ar
    25     3     6    1
    26     3     4   ar
    27    25    24   ar
    28    22    23   ar
    29    23    24   ar
    30    24    26    1
