@<TRIPOS>MOLECULE
ZINC37145476_replica-1.pdb
 23 24 0 0 0
SMALL
GASTEIGER

@<TRIPOS>ATOM
      1  O2        -1.3210   29.6450   53.1460 O.3     0  <0>0       -0.4714
      2  C9        -2.6010   30.2820   53.1420 C.3     0  <0>0        0.2525
      3  C8        -3.0940   30.4440   54.5810 C.3     0  <0>0        0.2525
      4  O1        -2.0050   30.8430   55.4160 O.3     0  <0>0       -0.4706
      5  C6        -1.7650   30.0860   56.5190 C.ar    0  <0>0        0.1488
      6  C5        -0.7790   30.4630   57.4200 C.ar    0  <0>0        0.0915
      7  C4        -0.5360   29.6910   58.5410 C.ar    0  <0>0        0.0141
      8 Cl          0.1500   31.9040   57.1390 Cl      0  <0>0       -0.0791
      9  C3        -1.2750   28.5450   58.7650 C.ar    0  <0>0       -0.0032
     10  C2        -2.2590   28.1680   57.8690 C.ar    0  <0>0       -0.0188
     11  C1        -3.0630   26.9170   58.1170 C.3     0  <0>0        0.0311
     12  C7        -2.5020   28.9320   56.7440 C.ar    0  <0>0        0.0335
     13  C10       -1.2490   28.4030   52.6060 C.ar    0  <0>0        0.1403
     14  C15       -0.4470   27.4210   53.2040 C.ar    0  <0>0        0.0535
     15  C14       -0.3850   26.1430   52.6410 C.ar    0  <0>0        0.0048
     16  C13       -1.1020   25.8610   51.4980 C.ar    0  <0>0        0.0003
     17  C12       -1.8890   26.8360   50.9080 C.ar    0  <0>0        0.0031
     18  C11       -1.9640   28.1010   51.4580 C.ar    0  <0>0        0.0370
     19  C16        0.3220   27.7320   54.4220 C.2     0  <0>0        0.0810
     20  S1         0.3270   26.6350   55.7350 S.2     0  <0>0       -0.0351
     21  N1         1.0220   28.8820   54.5010 N.am    0  <0>0       -0.3516
     22  H15        1.0200   29.5040   53.7560 H       0  <0>0        0.1428
     23  H16        1.5290   29.0870   55.3020 H       0  <0>0        0.1428
@<TRIPOS>BOND
     1    17    18   ar
     2    17    16   ar
     3    18    13   ar
     4    16    15   ar
     5    13     1    1
     6    13    14   ar
     7    15    14   ar
     8     2     1    1
     9     2     3    1
    10    14    19    1
    11    22    21    1
    12    19    21    1
    13    19    20    2
    14    21    23    1
    15     3     4    1
    16     4     5    1
    17     5    12   ar
    18     5     6   ar
    19    12    10   ar
    20     8     6    1
    21     6     7   ar
    22    10    11    1
    23    10     9   ar
    24     7     9   ar
