@<TRIPOS>MOLECULE
ZINC38668619_replica-1.pdb
 31 33 0 0 0
SMALL
GASTEIGER

@<TRIPOS>ATOM
      1  N2         2.5470   31.8790   56.5200 N.am    0  <0>0       -0.2889
      2  C13        2.9280   33.1650   56.3780 C.2     0  <0>0        0.3008
      3  O1         2.7990   33.9430   57.3040 O.2     0  <0>0       -0.2528
      4  N3         3.4520   33.5870   55.2110 N.am    0  <0>0       -0.2886
      5  H12        2.6500   31.2590   55.7820 H       0  <0>0        0.1510
      6  H13        3.5550   32.9660   54.4720 H       0  <0>0        0.1510
      7  C12        1.9780   31.4200   57.7900 C.3     0  <0>0        0.0922
      8  C11        0.4750   31.1820   57.6180 C.3     0  <0>0        0.0393
      9  C3         0.2550   30.0260   56.6780 C.3     0  <0>0        0.1038
     10  C2         0.3580   28.6890   56.9070 C.2     0  <0>0        0.0978
     11  C1         0.7450   28.1850   58.2730 C.3     0  <0>0        0.0624
     12  N1         0.1250   27.8400   55.9350 N.2     0  <0>0       -0.4034
     13  C4        -0.2220   28.2570   54.7250 C.2     0  <0>0        0.1565
     14  S1        -0.2140   30.0300   54.9530 S.3     0  <0>0       -0.0764
     15  C5        -0.5280   27.4670   53.5120 C.ar    0  <0>0        0.0378
     16  C10       -1.2510   28.0410   52.4660 C.ar    0  <0>0        0.0327
     17  C9        -1.5280   27.2990   51.3340 C.ar    0  <0>0        0.1402
     18  C8        -1.0990   25.9850   51.2420 C.ar    0  <0>0        0.0296
     19  F1        -2.2240   27.8540   50.3170 F       0  <0>0       -0.2042
     20  C7        -0.3860   25.4100   52.2790 C.ar    0  <0>0        0.0024
     21  C6        -0.0980   26.1430   53.4120 C.ar    0  <0>0        0.0032
     22  C14        3.8660   34.9830   55.0570 C.3     0  <0>0        0.0956
     23  C15        5.2960   35.0350   54.5140 C.3     0  <0>0        0.0476
     24  C16        6.1730   35.7900   55.4790 C.ar    0  <0>0       -0.0203
     25  C21        5.7510   35.9960   56.7800 C.ar    0  <0>0       -0.0011
     26  C20        6.5560   36.6830   57.6670 C.ar    0  <0>0        0.0366
     27  C19        7.7840   37.1770   57.2490 C.ar    0  <0>0        0.1387
     28  C18        8.2030   36.9730   55.9430 C.ar    0  <0>0        0.0366
     29  C17        7.3960   36.2810   55.0600 C.ar    0  <0>0       -0.0011
     30  O2         8.5760   37.8570   58.1210 O.3     0  <0>0       -0.4714
     31  C22        8.0640   38.0630   59.4380 C.3     0  <0>0        0.2525
@<TRIPOS>BOND
     1    19    17    1
     2    18    17   ar
     3    18    20   ar
     4    17    16   ar
     5    20    21   ar
     6    16    15   ar
     7    21    15   ar
     8    15    13    1
     9     6     4    1
    10    23    22    1
    11    23    24    1
    12    13    14    1
    13    13    12    2
    14    14     9    1
    15    22     4    1
    16    29    24   ar
    17    29    28   ar
    18     4     2   am
    19    24    25   ar
    20     5     1    1
    21    12    10    2
    22    28    27   ar
    23     2     1   am
    24     2     3    2
    25     1     7    1
    26     9    10    1
    27     9     8    1
    28    25    26   ar
    29    10    11    1
    30    27    26   ar
    31    27    30    1
    32     8     7    1
    33    30    31    1
