@<TRIPOS>MOLECULE
ZINC52858969_replica-1.pdb
 21 21 0 0 0
SMALL
GASTEIGER

@<TRIPOS>ATOM
      1  C6         8.4560   36.2740   59.2870 C.ar    0  <0>0        0.0498
      2  C7         8.9910   37.2150   60.1570 C.ar    0  <0>0        0.0154
      3  C8        10.0480   36.8760   60.9770 C.ar    0  <0>0        0.0127
      4  C9        10.5830   35.5970   60.9410 C.ar    0  <0>0        0.0578
      5  C10       10.0640   34.6490   60.0850 C.ar    0  <0>0        0.0144
      6  C11        8.9910   34.9760   59.2520 C.ar    0  <0>0        0.0337
      7 Cl         11.9130   35.1880   61.9790 Cl      0  <0>0       -0.0822
      8  N1         7.3910   36.6130   58.4610 N.pl3   0  <0>0       -0.3003
      9  C3         6.0210   36.5780   58.9790 C.3     0  <0>0        0.0910
     10  C2         5.0880   35.9950   57.9160 C.3     0  <0>0        0.0214
     11  C1         3.6770   35.8620   58.4930 C.3     0  <0>0        0.0018
     12  C4         7.6390   37.0050   57.0710 C.3     0  <0>0        0.1953
     13  C5         7.8500   38.5200   56.9980 C.3     0  <0>0        0.4156
     14  F1         9.2190   38.7960   56.9100 F       0  <0>0       -0.1682
     15  F2         7.1980   39.0270   55.8700 F       0  <0>0       -0.1682
     16  F3         7.3260   39.1190   58.1490 F       0  <0>0       -0.1682
     17  C12        8.4280   33.9680   58.3380 C.2     0  <0>0        0.0793
     18  S1         7.1740   32.9320   58.8730 S.2     0  <0>0       -0.0351
     19  N2         8.9010   33.8590   57.0810 N.am    0  <0>0       -0.3517
     20  H13        9.6120   34.4450   56.7780 H       0  <0>0        0.1428
     21  H14        8.5310   33.1940   56.4790 H       0  <0>0        0.1428
@<TRIPOS>BOND
     1    15    13    1
     2    21    19    1
     3    20    19    1
     4    14    13    1
     5    13    12    1
     6    13    16    1
     7    12     8    1
     8    19    17    1
     9    10    11    1
    10    10     9    1
    11    17    18    2
    12    17     6    1
    13     8     9    1
    14     8     1    1
    15     6     1   ar
    16     6     5   ar
    17     1     2   ar
    18     5     4   ar
    19     2     3   ar
    20     4     3   ar
    21     4     7    1
