@<TRIPOS>MOLECULE
ZINC24644675_replica-1.pdb
 31 31 0 0 0
SMALL
GASTEIGER

@<TRIPOS>ATOM
      1  C5         6.7100   33.6540   58.2320 C.ar    0  <0>0        0.0103
      2  C6         5.8750   34.2170   57.2860 C.ar    0  <0>0       -0.0056
      3  C7         5.8390   35.5910   57.1240 C.ar    0  <0>0       -0.0221
      4  C8         6.6430   36.4020   57.9030 C.ar    0  <0>0       -0.0056
      5  C9         7.4760   35.8440   58.8540 C.ar    0  <0>0        0.0103
      6  C10        7.5130   34.4680   59.0180 C.ar    0  <0>0        0.1255
      7  C15        4.9270   36.2020   56.0920 C.3     0  <0>0        0.0359
      8  C16        3.9020   35.1610   55.6370 C.3     0  <0>0        0.0900
      9  C17        2.6150   35.3580   56.3970 C.2     0  <0>0        0.2264
     10  O2         2.2800   36.4710   56.7450 O.2     0  <0>0       -0.2748
     11  N1         1.8370   34.2980   56.6900 N.am    0  <0>0       -0.2695
     12  C18        2.2410   32.9550   56.2690 C.3     0  <0>0        0.1153
     13  C19        0.5870   34.4890   57.4290 C.3     0  <0>0        0.1791
     14  C20        0.8190   34.2040   58.8900 C.2     0  <0>0        0.2427
     15  O3         1.2430   35.0770   59.6180 O.2     0  <0>0       -0.2732
     16  N2         0.5550   32.9800   59.3890 N.am    0  <0>0       -0.3061
     17  H31        0.1700   32.1890   58.7300 H       0  <0>0        0.1494
     18  C21        0.7810   32.7030   60.8100 C.3     0  <0>0        0.0569
     19  C22        0.3720   31.2620   61.1200 C.3     0  <0>0        0.0196
     20  C23        2.2620   32.8950   61.1370 C.3     0  <0>0        0.0196
     21  C24       -0.0570   33.6630   61.6560 C.3     0  <0>0        0.0196
     22  C2         6.7490   32.1580   58.4090 C.3     0  <0>0        0.0218
     23  C1         5.7960   31.5020   57.4080 C.3     0  <0>0        0.0045
     24  C3         8.1720   31.6520   58.1640 C.3     0  <0>0        0.0045
     25  C4         6.3190   31.8010   59.8320 C.3     0  <0>0        0.0045
     26  C11        8.3470   36.7300   59.7060 C.3     0  <0>0        0.0218
     27  C12        7.7770   36.7960   61.1230 C.3     0  <0>0        0.0045
     28  C13        9.7660   36.1590   59.7520 C.3     0  <0>0        0.0045
     29  C14        8.3830   38.1370   59.1060 C.3     0  <0>0        0.0045
     30  O1         8.3350   33.9150   59.9490 O.3     0  <0>0       -0.5061
     31  H12        8.6480   32.8650   59.8520 H       0  <0>0        0.2922
@<TRIPOS>BOND
     1     8     7    1
     2     8     9    1
     3     7     3    1
     4    12    11    1
     5     9    11   am
     6     9    10    2
     7    11    13    1
     8     3     2   ar
     9     3     4   ar
    10     2     1   ar
    11    23    22    1
    12    13    14    1
    13     4     5   ar
    14    24    22    1
    15     1    22    1
    16     1     6   ar
    17    22    25    1
    18    17    16    1
    19     5     6   ar
    20     5    26    1
    21    14    16   am
    22    14    15    2
    23     6    30    1
    24    29    26    1
    25    16    18    1
    26    26    28    1
    27    26    27    1
    28    31    30    1
    29    18    19    1
    30    18    20    1
    31    18    21    1
