@<TRIPOS>MOLECULE
ZINC66154577_replica-1.pdb
 26 27 0 0 0
SMALL
GASTEIGER

@<TRIPOS>ATOM
      1  N2         5.3550   36.0110   55.7890 N.pl3   0  <0>0       -0.3297
      2  H15        4.9490   36.8030   55.4060 H       0  <0>0        0.1469
      3  C8         4.8610   35.4800   56.9830 C.ar    0  <0>0        0.0448
      4  C7         5.1030   36.1290   58.1870 C.ar    0  <0>0        0.0155
      5  C6         4.6130   35.6010   59.3650 C.ar    0  <0>0        0.0143
      6  C5         3.8820   34.4280   59.3470 C.ar    0  <0>0        0.0315
      7  C10        3.6440   33.7750   58.1520 C.ar    0  <0>0        0.0143
      8  C9         4.1260   34.3010   56.9690 C.ar    0  <0>0        0.0155
      9  N1         3.3880   33.8960   60.5420 N.pl3   0  <0>0       -0.3758
     10  H31        3.6440   34.4980   61.3110 H       0  <0>0        0.1277
     11  C2         1.9240   33.7980   60.4650 C.3     0  <0>0        0.0726
     12  C1         1.4210   32.8220   61.5300 C.3     0  <0>0        0.0215
     13  C3         3.9580   32.5590   60.7560 C.3     0  <0>0        0.0726
     14  C4         5.2930   32.6870   61.4920 C.3     0  <0>0        0.0215
     15  C11        6.4860   35.3690   55.1150 C.3     0  <0>0        0.1351
     16  C12        7.6200   36.3830   54.9440 C.3     0  <0>0        0.2265
     17  O1         8.5970   36.1820   55.9670 O.3     0  <0>0       -0.4739
     18  C13        8.4800   36.9410   57.0880 C.ar    0  <0>0        0.1346
     19  C18        8.8310   36.4150   58.3230 C.ar    0  <0>0        0.0115
     20  C17        8.7170   37.1900   59.4600 C.ar    0  <0>0       -0.0013
     21  C16        8.2430   38.4860   59.3700 C.ar    0  <0>0       -0.0001
     22  C15        7.8880   39.0110   58.1410 C.ar    0  <0>0        0.0031
     23  C14        8.0060   38.2430   57.0010 C.ar    0  <0>0        0.0366
     24  C19        9.3410   35.0010   58.4220 C.3     0  <0>0        0.0253
     25  C20       10.2640   34.8750   59.6370 C.3     0  <0>0        0.0048
     26  C21        8.1590   34.0420   58.5790 C.3     0  <0>0        0.0048
@<TRIPOS>BOND
     1    16    15    1
     2    16    17    1
     3    15     1    1
     4     2     1    1
     5     1     3    1
     6    17    18    1
     7     8     3   ar
     8     8     7   ar
     9     3     4   ar
    10    23    18   ar
    11    23    22   ar
    12    18    19   ar
    13    22    21   ar
    14     7     6   ar
    15     4     5   ar
    16    19    24    1
    17    19    20   ar
    18    24    26    1
    19    24    25    1
    20     6     5   ar
    21     6     9    1
    22    21    20   ar
    23    11     9    1
    24    11    12    1
    25     9    13    1
    26     9    10    1
    27    13    14    1
