@<TRIPOS>MOLECULE
ZINC37216217_replica-1.pdb
 22 24 0 0 0
SMALL
GASTEIGER

@<TRIPOS>ATOM
      1  C8         7.6370   36.7990   58.2680 C.3     0  <0>0        0.0918
      2  C5         8.7150   36.3910   59.2380 C.ar    0  <0>0       -0.0044
      3  C4         8.9990   37.1890   60.3310 C.ar    0  <0>0        0.0004
      4  C3         9.9860   36.8160   61.2220 C.ar    0  <0>0        0.0366
      5  C2        10.6930   35.6390   61.0200 C.ar    0  <0>0        0.1387
      6  C7        10.4100   34.8420   59.9200 C.ar    0  <0>0        0.0366
      7  C6         9.4180   35.2170   59.0350 C.ar    0  <0>0        0.0004
      8  O1        11.6660   35.2690   61.8950 O.3     0  <0>0       -0.4714
      9  C1        11.7770   33.8750   62.1890 C.3     0  <0>0        0.2525
     10  C9         8.2780   37.3930   57.0120 C.3     0  <0>0        0.0221
     11  C11        7.4860   38.4550   56.2480 C.3     0  <0>0        0.0020
     12  C10        8.7150   38.8580   57.0660 C.3     0  <0>0        0.0020
     13  N1         6.8390   35.6270   57.9010 N.pl3   0  <0>0       -0.3306
     14  H14        7.2620   34.7580   57.8220 H       0  <0>0        0.1471
     15  C12        5.4660   35.7610   57.6640 C.ar    0  <0>0        0.0450
     16  C17        4.9900   35.8290   56.3610 C.ar    0  <0>0        0.0174
     17  C16        3.6350   35.9560   56.1270 C.ar    0  <0>0        0.0382
     18  C15        2.7510   36.0270   57.1930 C.ar    0  <0>0        0.1388
     19  C14        3.2260   35.9650   58.4950 C.ar    0  <0>0        0.0382
     20  C13        4.5800   35.8320   58.7300 C.ar    0  <0>0        0.0174
     21  O2         1.4170   36.1580   56.9620 O.3     0  <0>0       -0.4714
     22  C18        0.5630   35.1440   57.4970 C.3     0  <0>0        0.2525
@<TRIPOS>BOND
     1    17    16   ar
     2    17    18   ar
     3    11    10    1
     4    11    12    1
     5    16    15   ar
     6    21    18    1
     7    21    22    1
     8    10    12    1
     9    10     1    1
    10    18    19   ar
    11    15    13    1
    12    15    20   ar
    13    14    13    1
    14    13     1    1
    15     1     2    1
    16    19    20   ar
    17     7     2   ar
    18     7     6   ar
    19     2     3   ar
    20     6     5   ar
    21     3     4   ar
    22     5     4   ar
    23     5     8    1
    24     8     9    1
