@<TRIPOS>MOLECULE
ZINC49895612_replica-1.pdb
 22 23 0 0 0
SMALL
GASTEIGER

@<TRIPOS>ATOM
      1  C9        -1.3790   30.2530   54.9280 C.3     0  <0>0        0.0550
      2  C8        -0.1900   29.3140   55.1310 C.3     0  <0>0        0.1344
      3  C5        -0.2990   28.1510   54.1790 C.ar    0  <0>0        0.0043
      4  C4         0.2870   26.9410   54.4960 C.ar    0  <0>0       -0.0023
      5  C3         0.1860   25.8740   53.6230 C.ar    0  <0>0       -0.0045
      6  C2        -0.5030   26.0170   52.4330 C.ar    0  <0>0       -0.0219
      7  C1        -0.6130   24.8540   51.4810 C.3     0  <0>0        0.0310
      8  C7        -1.0840   27.2300   52.1140 C.ar    0  <0>0       -0.0045
      9  C6        -0.9870   28.2960   52.9890 C.ar    0  <0>0       -0.0023
     10  O1         1.0250   30.0220   54.8820 O.3     0  <0>0       -0.3800
     11  H17        0.9260   30.9840   54.8800 H       0  <0>0        0.2108
     12  C10       -1.4620   31.2340   56.1010 C.3     0  <0>0        0.0899
     13  N1        -0.4600   32.2880   55.9270 N.pl3   0  <0>0       -0.3325
     14  H13       -0.2870   32.6530   55.0450 H       0  <0>0        0.1468
     15  C11        0.2490   32.7680   57.0340 C.ar    0  <0>0        0.0456
     16  C16        0.8270   34.0290   56.9940 C.ar    0  <0>0        0.0280
     17  C15        1.5210   34.5040   58.0910 C.ar    0  <0>0        0.0863
     18  C14        1.6510   33.7160   59.2240 C.ar    0  <0>0        0.1507
     19 Cl          2.2380   36.0840   58.0480 Cl      0  <0>0       -0.0799
     20  C13        1.0800   32.4560   59.2620 C.ar    0  <0>0        0.0318
     21  F1         2.3350   34.1790   60.2940 F       0  <0>0       -0.2033
     22  C12        0.3800   31.9800   58.1700 C.ar    0  <0>0        0.0167
@<TRIPOS>BOND
     1     7     6    1
     2     8     6   ar
     3     8     9   ar
     4     6     5   ar
     5     9     3   ar
     6     5     4   ar
     7     3     4   ar
     8     3     2    1
     9    11    10    1
    10    10     2    1
    11     1     2    1
    12     1    12    1
    13    14    13    1
    14    13    12    1
    15    13    15    1
    16    16    15   ar
    17    16    17   ar
    18    15    22   ar
    19    19    17    1
    20    17    18   ar
    21    22    20   ar
    22    18    20   ar
    23    18    21    1
