@<TRIPOS>MOLECULE
ZINC20700328_replica-1.pdb
 29 32 0 0 0
SMALL
GASTEIGER

@<TRIPOS>ATOM
      1  C5        11.3580   35.1520   61.6920 C.ar    0  <0>0        0.1220
      2  C6        10.7830   36.2880   62.2330 C.ar    0  <0>0        0.0211
      3  C7         9.8190   36.9710   61.5200 C.ar    0  <0>0        0.0154
      4  C8         9.4290   36.5190   60.2650 C.ar    0  <0>0        0.0408
      5  C9        10.0030   35.3820   59.7180 C.ar    0  <0>0       -0.0080
      6  C10       10.9720   34.7020   60.4450 C.ar    0  <0>0        0.0168
      7  C11        9.6180   34.8590   58.3710 C.3     0  <0>0        0.0255
      8  C12        8.7460   33.6310   58.4840 C.3     0  <0>0        0.0045
      9  C13        7.8430   33.6270   57.5360 C.3     0  <0>0        0.0004
     10  C14        7.9920   34.8530   56.6550 C.3     0  <0>0        0.0023
     11  C15        8.7670   35.8550   57.5600 C.3     0  <0>0        0.0262
     12  C16        7.7410   36.5310   58.4740 C.3     0  <0>0        0.0929
     13  N2         8.4500   37.2220   59.5550 N.pl3   0  <0>0       -0.3308
     14  H21        8.2060   38.2690   59.7920 H       0  <0>0        0.1471
     15  S1        12.5890   34.2760   62.5980 S.O2    0  <0>0        0.0633
     16  O1        13.7300   34.1920   61.7550 O.2     0  <0>0       -0.1528
     17  O2        12.6380   34.8640   63.8900 O.2     0  <0>0       -0.1528
     18  N1        12.0380   32.7280   62.8030 N.3     0  <0>0       -0.1555
     19  C2        10.6190   32.4860   63.0740 C.3     0  <0>0        0.0958
     20  C1         9.9520   31.9070   61.8240 C.3     0  <0>0        0.0206
     21  C3        12.9700   31.6010   62.7130 C.3     0  <0>0        0.0958
     22  C4        12.8280   30.7210   63.9570 C.3     0  <0>0        0.0206
     23  C17        6.8230   35.4880   59.0600 C.ar    0  <0>0        0.0060
     24  C22        5.6190   35.2000   58.4400 C.ar    0  <0>0        0.0552
     25  C21        4.7780   34.2430   58.9780 C.ar    0  <0>0        0.0111
     26 Cl          5.1670   36.0390   56.9890 Cl      0  <0>0       -0.0825
     27  C20        5.1390   33.5760   60.1330 C.ar    0  <0>0        0.0008
     28  C19        6.3400   33.8640   60.7510 C.ar    0  <0>0       -0.0002
     29  C18        7.1800   34.8230   60.2170 C.ar    0  <0>0       -0.0018
@<TRIPOS>BOND
     1    10     9    1
     2    10    11    1
     3    26    24    1
     4     9     8    1
     5    11     7    1
     6    11    12    1
     7     7     8    1
     8     7     5    1
     9    24    25   ar
    10    24    23   ar
    11    12    23    1
    12    12    13    1
    13    25    27   ar
    14    23    29   ar
    15    13    14    1
    16    13     4    1
    17     5     4   ar
    18     5     6   ar
    19    27    28   ar
    20    29    28   ar
    21     4     3   ar
    22     6     1   ar
    23     3     2   ar
    24     1     2   ar
    25     1    15    1
    26    16    15    2
    27    20    19    1
    28    15    18    1
    29    15    17    2
    30    21    18    1
    31    21    22    1
    32    18    19    1
