@<TRIPOS>MOLECULE
ZINC32230458_replica-1.pdb
 25 26 0 0 0
SMALL
GASTEIGER

@<TRIPOS>ATOM
      1  C9         5.2480   34.8710   55.1550 C.3     0  <0>0        0.1735
      2  C8         3.9260   35.3290   55.7740 C.3     0  <0>0        0.1206
      3  N1         3.6650   34.5570   56.9920 N.pl3   0  <0>0       -0.3306
      4  H8         2.8380   33.8320   57.0180 H       0  <0>0        0.1469
      5  C6         4.4680   34.7420   58.1210 C.ar    0  <0>0        0.0441
      6  C5         5.0370   33.6460   58.7570 C.ar    0  <0>0        0.0100
      7  C4         5.8300   33.8320   59.8720 C.ar    0  <0>0       -0.0209
      8  C3         6.0560   35.1070   60.3560 C.ar    0  <0>0       -0.0084
      9  C20        6.4480   32.6440   60.5630 C.3     0  <0>0        0.0311
     10  C2         5.4910   36.2010   59.7260 C.ar    0  <0>0       -0.0209
     11  C1         5.7400   37.5890   60.2570 C.3     0  <0>0        0.0311
     12  C7         4.7010   36.0220   58.6080 C.ar    0  <0>0        0.0100
     13  C10        6.3100   35.9520   55.3660 C.3     0  <0>0        0.2361
     14  O1         7.5800   35.3350   55.5880 O.3     0  <0>0       -0.4728
     15  C11        8.1830   35.5750   56.7820 C.ar    0  <0>0        0.1387
     16  C16        8.2610   36.8710   57.2720 C.ar    0  <0>0        0.0366
     17  C15        8.8750   37.1130   58.4870 C.ar    0  <0>0       -0.0012
     18  C14        9.4110   36.0660   59.2120 C.ar    0  <0>0       -0.0223
     19  C13        9.3350   34.7730   58.7250 C.ar    0  <0>0       -0.0012
     20  C12        8.7220   34.5260   57.5120 C.ar    0  <0>0        0.0366
     21  C17       10.0800   36.3320   60.5360 C.3     0  <0>0        0.0224
     22  C18        9.0510   36.8780   61.5270 C.3     0  <0>0        0.0047
     23  C19       10.6710   35.0280   61.0790 C.3     0  <0>0        0.0047
     24  O2         5.0670   34.6490   53.7550 O.3     0  <0>0       -0.3791
     25  H24        4.6580   35.4480   53.1190 H       0  <0>0        0.2106
@<TRIPOS>BOND
     1    25    24    1
     2    24     1    1
     3     1    13    1
     4     1     2    1
     5    13    14    1
     6    14    15    1
     7     2     3    1
     8    15    16   ar
     9    15    20   ar
    10     3     4    1
    11     3     5    1
    12    16    17   ar
    13    20    19   ar
    14     5    12   ar
    15     5     6   ar
    16    17    18   ar
    17    12    10   ar
    18    19    18   ar
    19     6     7   ar
    20    18    21    1
    21    10    11    1
    22    10     8   ar
    23     7     8   ar
    24     7     9    1
    25    21    23    1
    26    21    22    1
