@<TRIPOS>MOLECULE
ZINC36978023_replica-1.pdb
 22 24 0 0 0
SMALL
GASTEIGER

@<TRIPOS>ATOM
      1  C9        10.3080   35.4500   60.8450 C.ar    0  <0>0        0.0447
      2  C10        9.8380   36.7530   60.9510 C.ar    0  <0>0        0.0158
      3  C11        9.1760   37.3360   59.8890 C.ar    0  <0>0        0.0204
      4  C12        8.9800   36.6200   58.7160 C.ar    0  <0>0        0.0829
      5  C13        9.4490   35.3180   58.6100 C.ar    0  <0>0        0.0204
      6  C14       10.1160   34.7360   59.6700 C.ar    0  <0>0        0.0158
      7  N1        10.9780   34.8590   61.9210 N.pl3   0  <0>0       -0.3340
      8  H12       10.5530   34.1460   62.4240 H       0  <0>0        0.1468
      9  C2        12.3200   35.3150   62.2880 C.3     0  <0>0        0.0695
     10  C1        12.3820   35.5560   63.7980 C.3     0  <0>0        0.0212
     11  C3        13.3460   34.2480   61.8990 C.3     0  <0>0        0.0274
     12  C4        13.9100   33.5980   63.1640 C.3     0  <0>0        0.0662
     13  C5        13.1830   32.3050   63.4310 C.ar    0  <0>0        0.1230
     14  O1        11.8920   32.0600   63.1580 O.2     0  <0>0       -0.4547
     15  C8        11.5870   30.8040   63.5260 C.ar    0  <0>0        0.1791
     16  C7        12.6880   30.2360   64.0490 C.ar    0  <0>0        0.0434
     17  C6        13.7170   31.2030   63.9880 C.ar    0  <0>0        0.0362
     18  N2         8.3070   37.2120   57.6370 N.ar    0  <0>0       -0.2281
     19  N3         7.4860   36.5510   56.7140 N.ar    0  <0>0       -0.1635
     20  C17        7.0360   37.4340   55.8600 C.ar    0  <0>0        0.1221
     21  C16        7.5620   38.6840   56.2030 C.ar    0  <0>0        0.0431
     22  C15        8.3410   38.5210   57.2980 C.ar    0  <0>0        0.1020
@<TRIPOS>BOND
     1    20    21   ar
     2    20    19   ar
     3    21    22   ar
     4    19    18   ar
     5    22    18   ar
     6    18     4    1
     7     5     4   ar
     8     5     6   ar
     9     4     3   ar
    10     6     1   ar
    11     3     2   ar
    12     1     2   ar
    13     1     7    1
    14    11     9    1
    15    11    12    1
    16     7     9    1
    17     7     8    1
    18     9    10    1
    19    14    13   ar
    20    14    15   ar
    21    12    13    1
    22    13    17   ar
    23    15    16   ar
    24    17    16   ar
