@<TRIPOS>MOLECULE
ZINC16855582_replica-1.pdb
 22 22 0 0 0
SMALL
GASTEIGER

@<TRIPOS>ATOM
      1  C6         8.7870   35.6700   59.2530 C.3     0  <0>0        0.1354
      2  C7         9.2210   36.8010   59.8830 C.2     0  <0>0        0.0981
      3  N1        10.1410   36.7210   60.8400 N.2     0  <0>0       -0.3889
      4  C8        10.6540   35.5620   61.2040 C.2     0  <0>0        0.2122
      5  N2        10.2640   34.4010   60.6080 N.am    0  <0>0       -0.2541
      6  H2        10.6540   33.5570   60.8840 H       0  <0>0        0.1577
      7  C9         9.3290   34.4300   59.6340 C.2     0  <0>0        0.2347
      8  O1         8.9640   33.3990   59.0920 O.2     0  <0>0       -0.2743
      9  C14        8.6560   38.1430   59.4930 C.3     0  <0>0        0.0621
     10  C5         7.7460   35.7500   58.1670 C.3     0  <0>0        0.1183
     11  C4         8.3040   35.1410   56.8790 C.3     0  <0>0        0.0122
     12  C3         8.4810   36.2400   55.8310 C.3     0  <0>0        0.0006
     13  C2         7.1250   36.8840   55.5340 C.3     0  <0>0        0.0000
     14  C1         7.2250   38.3980   55.7340 C.3     0  <0>0        0.0000
     15  C15        6.5170   34.9870   58.5930 C.2     0  <0>0        0.3652
     16  O2         6.0190   34.1780   57.8460 O.co2   0  <0>0       -0.2456
     17  O3         5.9760   35.2080   59.8010 O.co2   0  <0>0       -0.2456
     18  S1        11.8710   35.5140   62.4780 S.3     0  <0>0       -0.0670
     19  C10       12.6500   33.9220   62.1090 C.3     0  <0>0        0.0659
     20  C11       14.0370   33.8730   62.7530 C.3     0  <0>0        0.0121
     21  C12       14.2490   32.5030   63.4020 C.3     0  <0>0        0.0009
     22  C13       13.0430   31.6090   63.1110 C.3     0  <0>0        0.0000
@<TRIPOS>BOND
     1    13    14    1
     2    13    12    1
     3    12    11    1
     4    11    10    1
     5    16    15   ar
     6    10    15    1
     7    10     1    1
     8    15    17   ar
     9     8     7    2
    10     1     7    1
    11     1     2    1
    12     9     2    1
    13     7     5   am
    14     2     3    2
    15     5     6    1
    16     5     4    1
    17     3     4    2
    18     4    18    1
    19    19    18    1
    20    19    20    1
    21    20    21    1
    22    22    21    1
