@<TRIPOS>MOLECULE
ZINC17000012_replica-1.pdb
 23 23 0 0 0
SMALL
GASTEIGER

@<TRIPOS>ATOM
      1  C9         8.7350   36.1650   57.6510 C.3     0  <0>0        0.0870
      2  C2         8.1040   34.9290   58.2380 C.2     0  <0>0        0.0573
      3  C1         7.4450   33.9180   57.3350 C.3     0  <0>0        0.0490
      4  N1         8.1280   34.7360   59.5030 N.2     0  <0>0       -0.1900
      5  N2         8.6350   35.7280   60.3530 N.pl3   0  <0>0       -0.2366
      6  H4         8.1660   36.5720   60.4470 H       0  <0>0        0.1744
      7  C3         9.8180   35.5040   61.0600 C.ar    0  <0>0        0.0650
      8  C8        10.3940   34.2380   61.0710 C.ar    0  <0>0        0.0160
      9  C7        11.5620   34.0190   61.7730 C.ar    0  <0>0        0.0013
     10  C6        12.1610   35.0580   62.4640 C.ar    0  <0>0        0.0001
     11  C5        11.5900   36.3170   62.4570 C.ar    0  <0>0        0.0013
     12  C4        10.4240   36.5440   61.7520 C.ar    0  <0>0        0.0160
     13  C10        7.6840   37.2720   57.5460 C.3     0  <0>0        0.2688
     14  C11        8.3230   38.6160   57.9010 C.3     0  <0>0        0.4278
     15  F1         9.1140   39.0540   56.8320 F       0  <0>0       -0.1673
     16  F2         7.3190   39.5580   58.1520 F       0  <0>0       -0.1673
     17  F3         9.1200   38.4690   59.0400 F       0  <0>0       -0.1673
     18  C12        7.1410   37.3270   56.1160 C.3     0  <0>0        0.4278
     19  F4         5.9820   36.5480   56.0280 F       0  <0>0       -0.1673
     20  F5         6.8410   38.6510   55.7820 F       0  <0>0       -0.1673
     21  F6         8.1050   36.8300   55.2320 F       0  <0>0       -0.1673
     22  O1         6.6130   37.0010   58.4520 O.3     0  <0>0       -0.3725
     23  H12        5.9350   36.4120   58.0930 H       0  <0>0        0.2108
@<TRIPOS>BOND
     1    21    18    1
     2    20    18    1
     3    19    18    1
     4    18    13    1
     5    15    14    1
     6     3     2    1
     7    13     1    1
     8    13    14    1
     9    13    22    1
    10     1     2    1
    11    14    16    1
    12    14    17    1
    13    23    22    1
    14     2     4    2
    15     4     5    1
    16     5     6    1
    17     5     7    1
    18     7     8   ar
    19     7    12   ar
    20     8     9   ar
    21    12    11   ar
    22     9    10   ar
    23    11    10   ar
