@<TRIPOS>MOLECULE
ZINC66541658_replica-1.pdb
 23 24 0 0 0
SMALL
GASTEIGER

@<TRIPOS>ATOM
      1  C4        10.8840   35.2870   60.7050 C.3     0  <0>0        0.0750
      2  C5        10.0880   34.9640   59.4390 C.3     0  <0>0        0.0234
      3  C6         8.6060   34.8230   59.7900 C.3     0  <0>0        0.0453
      4  C7         8.0960   36.1330   60.3930 C.3     0  <0>0        0.1693
      5  C8         8.8920   36.4550   61.6600 C.3     0  <0>0        0.0453
      6  C9        10.3740   36.5970   61.3080 C.3     0  <0>0        0.0234
      7  O3         6.7120   36.0000   60.7210 O.3     0  <0>0       -0.4492
      8  C10        5.8330   36.6810   59.9550 C.2     0  <0>0        0.3413
      9  O4         5.4970   37.8080   60.2670 O.2     0  <0>0       -0.2449
     10  C11        5.3030   36.0840   58.7880 C.2     0  <0>0        0.0824
     11  C12        5.8840   36.3170   57.5830 C.2     0  <0>0        0.0131
     12  C13        5.3550   35.7200   56.4160 C.ar    0  <0>0        0.0297
     13  S1         5.9560   34.3130   55.5010 S.2     0  <0>0       -0.0864
     14  C16        4.7900   34.2610   54.2930 C.ar    0  <0>0        0.0354
     15  C15        3.9660   35.3000   54.5800 C.ar    0  <0>0        0.0075
     16  C14        4.2310   36.0800   55.6790 C.ar    0  <0>0        0.0070
     17  N1        10.7140   34.2040   61.6770 N.am    0  <0>0       -0.2723
     18  C3        11.7950   33.6310   62.2440 C.2     0  <0>0        0.4016
     19  O2        12.9100   34.0130   61.9480 O.2     0  <0>0       -0.2264
     20  H6         9.8240   33.8980   61.9130 H       0  <0>0        0.1527
     21  O1        11.6390   32.6360   63.1370 O.3     0  <0>0       -0.4347
     22  C2        12.6290   31.6050   63.1390 C.3     0  <0>0        0.2102
     23  C1        12.1850   30.4730   64.0680 C.3     0  <0>0        0.0513
@<TRIPOS>BOND
     1    14    15   ar
     2    14    13   ar
     3    15    16   ar
     4    13    12   ar
     5    16    12   ar
     6    12    11    1
     7    11    10    2
     8    10     8    1
     9     2     3    1
    10     2     1    1
    11     3     4    1
    12     8     9    2
    13     8     7    1
    14     4     7    1
    15     4     5    1
    16     1     6    1
    17     1    17    1
    18     6     5    1
    19    17    20    1
    20    17    18   am
    21    19    18    2
    22    18    21    1
    23    21    22    1
    24    22    23    1
