@<TRIPOS>MOLECULE
ZINC04175088_replica-1.pdb
 26 29 0 0 0
SMALL
GASTEIGER

@<TRIPOS>ATOM
      1  C7         7.6470   34.7690   57.8500 C.2     0  <0>0        0.0143
      2  C8         8.4140   35.8550   58.1510 C.2     0  <0>0        0.1039
      3  C9         8.5540   36.9190   57.2020 C.1     0  <0>0        0.1035
      4  N1         8.6650   37.7610   56.4490 N.1     0  <0>0       -0.1907
      5  C10        9.0990   35.9350   59.4550 C.2     0  <0>0        0.1665
      6  S1         9.0010   37.2070   60.7070 S.3     0  <0>0       -0.0741
      7  C12       10.1320   36.4580   61.8730 C.3     0  <0>0        0.1234
      8  C11       10.4790   35.3190   61.1940 C.2     0  <0>0        0.1210
      9  N2         9.9550   35.0870   60.0060 N.2     0  <0>0       -0.3984
     10  C13       11.4360   34.3540   61.7900 C.ar    0  <0>0        0.0295
     11  C18       10.9860   33.1200   62.2550 C.ar    0  <0>0        0.0424
     12  C17       11.8820   32.2210   62.8060 C.ar    0  <0>0        0.1765
     13  C16       13.2310   32.5550   62.9040 C.ar    0  <0>0        0.1764
     14  O1        11.7040   30.9700   63.3220 O.3     0  <0>0       -0.4346
     15  C15       13.6770   33.7860   62.4450 C.ar    0  <0>0        0.0403
     16  O2        13.8970   31.5120   63.4820 O.3     0  <0>0       -0.4346
     17  C14       12.7870   34.6830   61.8910 C.ar    0  <0>0        0.0056
     18  C19       12.8810   30.7070   64.1080 C.3     0  <0>0        0.4294
     19  C3         7.6250   33.6120   58.7530 C.ar    0  <0>0        0.0122
     20  C2         8.5530   32.5760   58.5920 C.ar    0  <0>0        0.0009
     21  C1         8.5240   31.4900   59.4410 C.ar    0  <0>0        0.0009
     22  C6         7.5880   31.4270   60.4580 C.ar    0  <0>0        0.0122
     23  C5         6.6680   32.4490   60.6310 C.ar    0  <0>0        0.0682
     24  C4         6.6800   33.5420   59.7860 C.ar    0  <0>0        0.0682
     25 Cl          5.5000   32.3570   61.9110 Cl      0  <0>0       -0.0814
     26 Cl          5.5300   34.8230   60.0010 Cl      0  <0>0       -0.0814
@<TRIPOS>BOND
     1     4     3    3
     2     3     2    1
     3     1     2    2
     4     1    19    1
     5     2     5    1
     6    20    19   ar
     7    20    21   ar
     8    19    24   ar
     9    21    22   ar
    10     5     9    2
    11     5     6    1
    12    24    26    1
    13    24    23   ar
    14     9     8    2
    15    22    23   ar
    16    23    25    1
    17     6     7    1
    18     8    10    1
    19     8     7    1
    20    10    17   ar
    21    10    11   ar
    22    17    15   ar
    23    11    12   ar
    24    15    13   ar
    25    12    13   ar
    26    12    14    1
    27    13    16    1
    28    14    18    1
    29    16    18    1
