@<TRIPOS>MOLECULE
ZINC05497715_replica-1.pdb
 28 28 0 0 0
SMALL
GASTEIGER

@<TRIPOS>ATOM
      1  C12        1.0720   30.9850   57.4060 C.3     0  <0>0        0.0434
      2  C13        0.7260   29.8740   58.3990 C.3     0  <0>0        0.0153
      3  C14        2.5110   31.4490   57.6400 C.3     0  <0>0        0.0153
      4  C11        0.1180   32.1630   57.6050 C.3     0  <0>0       -0.0608
      5  N2         0.9010   33.3290   58.0700 N.4     0  <0>0        0.3878
      6  H36        1.8850   33.0520   58.1690 H       0  <0>0       -0.0797
      7  C5         0.8060   34.4260   57.0850 C.3     0  <0>0       -0.0773
      8  C4         1.2890   35.7210   57.7430 C.3     0  <0>0       -0.0228
      9  C2         2.7040   36.0420   57.2590 C.3     0  <0>0       -0.0021
     10  C1         3.7130   35.6500   58.3420 C.3     0  <0>0       -0.0001
     11  C3         2.9970   35.2540   55.9810 C.3     0  <0>0       -0.0001
     12  C6         0.3970   33.7850   59.3830 C.3     0  <0>0       -0.0773
     13  C7         1.4290   33.4290   60.4540 C.3     0  <0>0       -0.0228
     14  C8         0.7130   33.1200   61.7710 C.3     0  <0>0       -0.0021
     15  C9        -0.4540   34.0920   61.9570 C.3     0  <0>0       -0.0001
     16  C10        0.1830   31.6860   61.7400 C.3     0  <0>0       -0.0001
     17  N1         0.9400   30.4760   56.0380 N.3     0  <0>0       -0.1840
     18  H31        1.7320   30.2300   55.5330 H       0  <0>0        0.1486
     19  S1        -0.5590   30.3230   55.3520 S.O2    0  <0>0        0.0601
     20  O1        -1.4670   30.0570   56.4120 O.2     0  <0>0       -0.1530
     21  O2        -0.7180   31.4290   54.4730 O.2     0  <0>0       -0.1530
     22  C15       -0.5260   28.8790   54.3440 C.ar    0  <0>0        0.1220
     23  C20       -1.2550   28.8400   53.1690 C.ar    0  <0>0        0.0208
     24  C19       -1.2290   27.7070   52.3770 C.ar    0  <0>0        0.0128
     25  C18       -0.4750   26.6120   52.7610 C.ar    0  <0>0        0.0578
     26  C17        0.2530   26.6520   53.9370 C.ar    0  <0>0        0.0128
     27 Cl         -0.4430   25.1900   51.7670 Cl      0  <0>0       -0.0822
     28  C16        0.2320   27.7870   54.7240 C.ar    0  <0>0        0.0208
@<TRIPOS>BOND
     1    27    25    1
     2    24    25   ar
     3    24    23   ar
     4    25    26   ar
     5    23    22   ar
     6    26    28   ar
     7    22    28   ar
     8    22    19    1
     9    21    19    2
    10    19    17    1
    11    19    20    2
    12    18    17    1
    13    11     9    1
    14    17     1    1
    15     7     8    1
    16     7     5    1
    17     9     8    1
    18     9    10    1
    19     1     4    1
    20     1     3    1
    21     1     2    1
    22     4     5    1
    23     5     6    1
    24     5    12    1
    25    12    13    1
    26    13    14    1
    27    16    14    1
    28    14    15    1
