@<TRIPOS>MOLECULE
ZINC13415440_replica-1.pdb
 28 30 0 0 0
SMALL
GASTEIGER

@<TRIPOS>ATOM
      1  C7         9.8280   35.7300   59.6130 C.3     0  <0>0        0.1533
      2  C4        10.6990   35.5160   60.8240 C.ar    0  <0>0       -0.0034
      3  C3        11.3870   34.3280   60.9800 C.ar    0  <0>0       -0.0030
      4  C2        12.1920   34.1330   62.0870 C.ar    0  <0>0       -0.0003
      5  C1        12.3070   35.1290   63.0400 C.ar    0  <0>0       -0.0000
      6  C6        11.6200   36.3190   62.8840 C.ar    0  <0>0       -0.0003
      7  C5        10.8160   36.5110   61.7760 C.ar    0  <0>0       -0.0030
      8  C8         8.8930   34.5590   59.4540 C.2     0  <0>0        0.2404
      9  O1         8.1040   34.2890   60.3340 O.2     0  <0>0       -0.2735
     10  N1         8.9330   33.8120   58.3320 N.am    0  <0>0       -0.2829
     11  H7         9.5160   34.0670   57.6010 H       0  <0>0        0.1549
     12  C9         8.1330   32.6680   58.2250 C.ar    0  <0>0        0.0505
     13  C14        6.9160   32.7300   57.5600 C.ar    0  <0>0        0.0170
     14  C13        6.1290   31.6010   57.4560 C.ar    0  <0>0        0.0309
     15  C12        6.5530   30.4060   58.0130 C.ar    0  <0>0        0.1402
     16  C11        7.7670   30.3420   58.6750 C.ar    0  <0>0        0.0309
     17  F1         5.7820   29.3020   57.9090 F       0  <0>0       -0.2042
     18  C10        8.5590   31.4680   58.7770 C.ar    0  <0>0        0.0170
     19  S1         8.8640   37.2480   59.8240 S.3     0  <0>0       -0.0631
     20  C15        8.1550   37.3870   58.2160 C.2     0  <0>0        0.1831
     21  S2         8.3150   38.6740   57.0620 S.3     0  <0>0       -0.0688
     22  C17        7.2900   37.9650   55.7810 C.3     0  <0>0        0.1199
     23  C16        6.9160   36.8050   56.3690 C.2     0  <0>0        0.1106
     24  N2         7.3630   36.5420   57.5830 N.2     0  <0>0       -0.3965
     25  C18        6.0110   35.8350   55.6560 C.3     0  <0>0        0.1691
     26  C19        4.6030   35.9890   56.1710 C.2     0  <0>0        0.3716
     27  O2         3.7910   36.6110   55.5290 O.co2   0  <0>0       -0.2452
     28  O3         4.2520   35.4360   57.3420 O.co2   0  <0>0       -0.2452
@<TRIPOS>BOND
     1    27    26   ar
     2    25    26    1
     3    25    23    1
     4    22    23    1
     5    22    21    1
     6    26    28   ar
     7    23    24    2
     8    21    20    1
     9    14    13   ar
    10    14    15   ar
    11    13    12   ar
    12    24    20    2
    13    11    10    1
    14    17    15    1
    15    15    16   ar
    16    20    19    1
    17    12    10    1
    18    12    18   ar
    19    10     8   am
    20    16    18   ar
    21     8     1    1
    22     8     9    2
    23     1    19    1
    24     1     2    1
    25     2     3   ar
    26     2     7   ar
    27     3     4   ar
    28     7     6   ar
    29     4     5   ar
    30     6     5   ar
