@<TRIPOS>MOLECULE
ZINC36990735_replica-1.pdb
 22 23 0 0 0
SMALL
GASTEIGER

@<TRIPOS>ATOM
      1  C9        10.0020   35.3960   59.8700 C.ar    0  <0>0        0.0551
      2  C10        9.4590   35.2740   58.5970 C.ar    0  <0>0        0.0126
      3  C11        8.8370   36.3530   58.0110 C.ar    0  <0>0        0.0017
      4  C12        8.7430   37.5690   58.6750 C.ar    0  <0>0        0.0477
      5  C13        9.2890   37.6880   59.9510 C.ar    0  <0>0        0.0270
      6  C14        9.9070   36.6070   60.5450 C.ar    0  <0>0        0.0719
      7 Cl         10.5770   36.7630   62.1390 Cl      0  <0>0       -0.0809
      8  N2         8.0730   38.5020   57.8780 N.am    0  <0>0       -0.2839
      9  C15        7.7010   37.9870   56.6950 C.2     0  <0>0        0.2306
     10  O1         7.1060   38.5670   55.8110 O.2     0  <0>0       -0.2744
     11  C16        8.1610   36.5450   56.6720 C.3     0  <0>0        0.1129
     12  H21        7.8970   39.4170   58.1490 H       0  <0>0        0.1549
     13  N1        10.6350   34.3030   60.4730 N.pl3   0  <0>0       -0.3334
     14  H18       11.5800   34.1440   60.3190 H       0  <0>0        0.1468
     15  C7         9.8730   33.3990   61.3370 C.3     0  <0>0        0.0691
     16  C8         9.0180   32.4690   60.4730 C.3     0  <0>0        0.0212
     17  C6        10.8380   32.5650   62.1820 C.3     0  <0>0        0.0195
     18  C5        11.9060   33.4790   62.7860 C.3     0  <0>0        0.0017
     19  C4        13.2160   32.7030   62.9350 C.3     0  <0>0        0.0001
     20  C3        12.9210   31.2010   62.9500 C.3     0  <0>0        0.0000
     21  C2        13.0590   30.6700   64.3790 C.3     0  <0>0        0.0000
     22  C1        12.1620   29.4420   64.5540 C.3     0  <0>0        0.0000
@<TRIPOS>BOND
     1    10     9    2
     2    11     9    1
     3    11     3    1
     4     9     8   am
     5     8    12    1
     6     8     4    1
     7     3     2   ar
     8     3     4   ar
     9     2     1   ar
    10     4     5   ar
    11     1    13    1
    12     1     6   ar
    13     5     6   ar
    14    14    13    1
    15    13    15    1
    16    16    15    1
    17     6     7    1
    18    15    17    1
    19    17    18    1
    20    18    19    1
    21    19    20    1
    22    20    21    1
    23    21    22    1
