@<TRIPOS>MOLECULE
ZINC37212979_replica-1.pdb
 19 20 0 0 0
SMALL
GASTEIGER

@<TRIPOS>ATOM
      1  N1         0.4440   29.3800   55.9010 N.pl3   0  <0>0       -0.3302
      2  H11        1.3640   29.3610   56.2110 H       0  <0>0        0.1471
      3  C6         0.0540   28.5870   54.8190 C.ar    0  <0>0        0.0448
      4  C5        -0.8130   29.0960   53.8600 C.ar    0  <0>0        0.0140
      5  C4        -1.1960   28.3100   52.7910 C.ar    0  <0>0       -0.0030
      6  C3        -0.7190   27.0190   52.6750 C.ar    0  <0>0       -0.0221
      7  C8         0.1410   26.5070   53.6300 C.ar    0  <0>0       -0.0030
      8  C7         0.5320   27.2890   54.6990 C.ar    0  <0>0        0.0140
      9  C2        -1.1390   26.1640   51.5070 C.3     0  <0>0        0.0264
     10  C1        -0.6050   24.7430   51.6970 C.3     0  <0>0        0.0050
     11  C9        -0.5360   30.2410   56.5690 C.3     0  <0>0        0.0978
     12  C10        0.1030   31.5640   56.9030 C.ar    0  <0>0        0.0250
     13  S1         1.6710   32.2240   56.3620 S.2     0  <0>0       -0.0892
     14  C13        1.5970   33.7860   57.2230 C.ar    0  <0>0        0.0352
     15  C12        0.4030   33.7000   57.8590 C.ar    0  <0>0        0.0072
     16  C11       -0.3620   32.5610   57.6960 C.ar    0  <0>0        0.0043
     17  C14       -1.0140   29.5660   57.8570 C.3     0  <0>0        0.0226
     18  C15       -2.1700   28.6170   57.5350 C.3     0  <0>0        0.0021
     19  C16        0.1400   28.7730   58.4740 C.3     0  <0>0        0.0021
@<TRIPOS>BOND
     1     9    10    1
     2     9     6    1
     3     6     5   ar
     4     6     7   ar
     5     5     4   ar
     6     7     8   ar
     7     4     3   ar
     8     8     3   ar
     9     3     1    1
    10     1     2    1
    11     1    11    1
    12    13    12   ar
    13    13    14   ar
    14    11    12    1
    15    11    17    1
    16    12    16   ar
    17    14    15   ar
    18    18    17    1
    19    16    15   ar
    20    17    19    1
