@<TRIPOS>MOLECULE
ZINC19231196_replica-1.pdb
 21 22 0 0 0
SMALL
GASTEIGER

@<TRIPOS>ATOM
      1  C4        -0.7010   29.5320   55.1300 C.3     0  <0>0        0.0919
      2  C3        -1.6710   30.5760   54.5700 C.3     0  <0>0        0.0241
      3  C2        -2.8480   30.7450   55.5330 C.3     0  <0>0        0.0020
      4  C1        -3.0750   29.4390   56.2950 C.3     0  <0>0        0.0001
      5  C5        -0.6200   28.3640   54.1820 C.ar    0  <0>0       -0.0045
      6  C10        0.0690   27.2220   54.5500 C.ar    0  <0>0       -0.0018
      7  C9         0.1450   26.1510   53.6800 C.ar    0  <0>0        0.0111
      8  C8        -0.4690   26.2190   52.4430 C.ar    0  <0>0        0.0577
      9  C7        -1.1570   27.3620   52.0740 C.ar    0  <0>0        0.0111
     10 Cl         -0.3740   24.8730   51.3500 Cl      0  <0>0       -0.0822
     11  C6        -1.2380   28.4310   52.9470 C.ar    0  <0>0       -0.0018
     12  N1         0.6270   30.1310   55.2830 N.pl3   0  <0>0       -0.3305
     13  H13        1.4480   29.8220   54.6200 H       0  <0>0        0.1471
     14  C11        0.8490   31.0960   56.2700 C.ar    0  <0>0        0.0472
     15  C16        1.4680   32.2940   55.9450 C.ar    0  <0>0        0.0463
     16  C15        1.6820   33.2480   56.9230 C.ar    0  <0>0        0.1686
     17  C14        1.2850   33.0030   58.2290 C.ar    0  <0>0        0.1675
     18  F1         2.2810   34.4180   56.6070 F       0  <0>0       -0.2018
     19  C13        0.6730   31.8060   58.5550 C.ar    0  <0>0        0.0332
     20  F2         1.5000   33.9340   59.1840 F       0  <0>0       -0.2018
     21  C12        0.4540   30.8530   57.5800 C.ar    0  <0>0        0.0168
@<TRIPOS>BOND
     1    10     8    1
     2     9     8   ar
     3     9    11   ar
     4     8     7   ar
     5    11     5   ar
     6     7     6   ar
     7     5     6   ar
     8     5     1    1
     9     2     1    1
    10     2     3    1
    11    13    12    1
    12     1    12    1
    13    12    14    1
    14     3     4    1
    15    15    14   ar
    16    15    16   ar
    17    14    21   ar
    18    18    16    1
    19    16    17   ar
    20    21    19   ar
    21    17    19   ar
    22    17    20    1
