@<TRIPOS>MOLECULE
ZINC43736220_replica-1.pdb
 36 40 0 0 0
SMALL
GASTEIGER

@<TRIPOS>ATOM
      1  C1         8.6940   37.3830   61.0260 C.3     0  <0>0        0.0293
      2  C2         8.6890   35.9570   60.5400 C.2     0  <0>0       -0.0111
      3  C3         9.6870   35.0570   60.6170 C.2     0  <0>0        0.1079
      4  O1         9.3310   33.8530   60.0260 O.2     0  <0>0       -0.4872
      5  C4         8.4660   34.2460   59.0000 C.3     0  <0>0        0.1361
      6  C5         7.5860   35.2300   59.8790 C.3     0  <0>0        0.0575
      7  C6         6.6320   35.7870   58.8440 C.3     0  <0>0        0.0069
      8  C7         5.3950   36.3260   59.5300 C.3     0  <0>0        0.0004
      9  C8         4.1200   36.1030   58.7310 C.3     0  <0>0        0.0003
     10  C9         3.9690   34.5930   58.5070 C.3     0  <0>0        0.0038
     11  C10        5.0530   34.1630   57.5280 C.3     0  <0>0        0.0047
     12  C11        6.4190   34.6220   57.8840 C.3     0  <0>0        0.0042
     13  C12        7.3650   33.4660   58.3270 C.3     0  <0>0        0.0403
     14  C13        4.9820   32.6420   57.3590 C.3     0  <0>0        0.0254
     15  C14        3.5920   32.2650   56.9320 C.2     0  <0>0       -0.0345
     16  C15        2.5430   32.9870   57.1990 C.2     0  <0>0       -0.0467
     17  C16        2.5880   34.2850   57.9530 C.3     0  <0>0        0.0150
     18  C17        1.5620   34.2500   59.0900 C.3     0  <0>0        0.0062
     19  C18        0.1850   33.9040   58.5220 C.3     0  <0>0        0.0299
     20  C19        0.2180   32.5040   57.9070 C.3     0  <0>0        0.1145
     21  C20        1.1890   32.4930   56.7170 C.3     0  <0>0        0.0509
     22  C21        2.1890   35.4120   56.9980 C.3     0  <0>0        0.0040
     23  C22        7.3160   36.9340   58.0980 C.3     0  <0>0        0.0004
     24  C23        9.2350   35.0620   57.9590 C.3     0  <0>0        0.0439
     25  C24       11.0230   35.3230   61.2610 C.3     0  <0>0        0.0633
     26  C25       11.6510   33.9990   61.6980 C.3     0  <0>0        0.0096
     27  C26       12.9650   34.2740   62.4330 C.3     0  <0>0        0.0200
     28  C27       12.6630   34.8900   63.8000 C.3     0  <0>0        0.0018
     29  C28       13.7280   32.9620   62.6230 C.3     0  <0>0        0.0893
     30  N1        12.7770   31.8740   62.8650 N.am    0  <0>0       -0.3043
     31  C29       12.9810   31.0150   63.8830 C.2     0  <0>0        0.2230
     32  O3        13.9520   31.1420   64.5990 O.2     0  <0>0       -0.2751
     33  C30       12.0040   29.8950   64.1320 C.3     0  <0>0        0.0946
     34  H44       12.0020   31.7720   62.2920 H       0  <0>0        0.1494
     35  O2         0.6560   31.5620   58.8880 O.3     0  <0>0       -0.3841
     36  H25        0.1890   31.6280   59.7320 H       0  <0>0        0.2103
@<TRIPOS>BOND
     1    21    16    1
     2    21    20    1
     3    15    16    2
     4    15    14    1
     5    22    17    1
     6    16    17    1
     7    14    11    1
     8    11    12    1
     9    11    10    1
    10    12    13    1
    11    12     7    1
    12    20    19    1
    13    20    35    1
    14    17    10    1
    15    17    18    1
    16    24     5    1
    17    23     7    1
    18    13     5    1
    19    10     9    1
    20    19    18    1
    21     9     8    1
    22     7     8    1
    23     7     6    1
    24    35    36    1
    25     5     6    1
    26     5     4    1
    27     6     2    1
    28     4     3    1
    29     2     3    2
    30     2     1    1
    31     3    25    1
    32    25    26    1
    33    26    27    1
    34    34    30    1
    35    27    29    1
    36    27    28    1
    37    29    30    1
    38    30    31   am
    39    31    33    1
    40    31    32    2
