@<TRIPOS>MOLECULE
ZINC01815206_replica-1.pdb
 29 33 0 0 0
SMALL
GASTEIGER

@<TRIPOS>ATOM
      1  C3         0.2820   29.8500   59.5130 C.2     0  <0>0        0.2203
      2  N1        -0.5860   30.2630   58.5980 N.2     0  <0>0       -0.3773
      3  C4        -0.5690   29.6500   57.4240 C.2     0  <0>0        0.1527
      4  C5         0.3170   28.5930   57.0880 C.3     0  <0>0        0.1547
      5  C6         0.2020   28.0600   55.7960 C.2     0  <0>0       -0.0224
      6  C7        -0.7650   28.5960   54.9820 C.2     0  <0>0        0.0242
      7  S2        -1.5250   29.8640   55.9520 S.3     0  <0>0       -0.0596
      8  C8        -1.0320   28.1400   53.6200 C.ar    0  <0>0        0.0015
      9  C9        -1.7900   28.8640   52.7100 C.ar    0  <0>0        0.0002
     10  C10       -1.9660   28.3810   51.4280 C.ar    0  <0>0       -0.0000
     11  C11       -1.3910   27.1790   51.0560 C.ar    0  <0>0       -0.0003
     12  C12       -0.6460   26.4460   51.9640 C.ar    0  <0>0       -0.0042
     13  C13       -0.4720   26.9060   53.2500 C.ar    0  <0>0       -0.0214
     14  C14        0.2700   26.0860   54.2690 C.3     0  <0>0        0.0307
     15  C15        1.0750   26.9390   55.2400 C.3     0  <0>0        0.0281
     16  C16        1.2400   28.1760   58.1060 C.2     0  <0>0        0.2459
     17  O1         2.0410   27.2760   57.9200 O.2     0  <0>0       -0.2733
     18  N2         1.1690   28.8400   59.2820 N.am    0  <0>0       -0.2067
     19  C17        2.0460   28.4730   60.3120 C.ar    0  <0>0        0.0611
     20  C22        1.6920   27.4670   61.2010 C.ar    0  <0>0        0.0184
     21  C21        2.5550   27.1070   62.2160 C.ar    0  <0>0        0.0382
     22  C20        3.7770   27.7490   62.3480 C.ar    0  <0>0        0.1388
     23  C19        4.1320   28.7560   61.4600 C.ar    0  <0>0        0.0382
     24  C18        3.2710   29.1130   60.4420 C.ar    0  <0>0        0.0184
     25  O2         4.6280   27.3940   63.3460 O.3     0  <0>0       -0.4714
     26  C23        5.9650   27.8940   63.2700 C.3     0  <0>0        0.2525
     27  S1         0.2900   30.6400   61.0880 S.3     0  <0>0       -0.0664
     28  C2         0.7760   32.3120   60.5990 C.3     0  <0>0        0.0660
     29  C1         0.5540   33.2720   61.7700 C.3     0  <0>0        0.0130
@<TRIPOS>BOND
     1    11    10   ar
     2    11    12   ar
     3    10     9   ar
     4    12    13   ar
     5     9     8   ar
     6    13     8   ar
     7    13    14    1
     8     8     6    1
     9    14    15    1
    10     6     5    2
    11     6     7    1
    12    15     5    1
    13     5     4    1
    14     7     3    1
    15     4     3    1
    16     4    16    1
    17     3     2    2
    18    17    16    2
    19    16    18   am
    20     2     1    2
    21    18     1    1
    22    18    19    1
    23     1    27    1
    24    19    24   ar
    25    19    20   ar
    26    24    23   ar
    27    28    27    1
    28    28    29    1
    29    20    21   ar
    30    23    22   ar
    31    21    22   ar
    32    22    25    1
    33    26    25    1
