@<TRIPOS>MOLECULE
ZINC21811334_replica-1.pdb
 22 24 0 0 0
SMALL
GASTEIGER

@<TRIPOS>ATOM
      1  N1         9.2940   36.0430   61.2770 N.3     0  <0>0       -0.2923
      2  H8         9.9910   36.2120   62.1100 H       0  <0>0        0.1236
      3  C3         9.4550   37.1090   60.2790 C.3     0  <0>0        0.0732
      4  C2         8.1050   37.7870   60.0340 C.3     0  <0>0        0.0381
      5  C1         7.0120   37.0380   60.7970 C.3     0  <0>0        0.0061
      6  C14        7.7930   37.7660   58.5610 C.ar    0  <0>0       -0.0212
      7  C19        6.9410   36.8060   58.0480 C.ar    0  <0>0       -0.0042
      8  C18        6.6540   36.7860   56.6960 C.ar    0  <0>0       -0.0003
      9  C17        7.2180   37.7280   55.8560 C.ar    0  <0>0       -0.0000
     10  C16        8.0710   38.6890   56.3690 C.ar    0  <0>0       -0.0003
     11  C15        8.3530   38.7110   57.7220 C.ar    0  <0>0       -0.0042
     12  C4         9.5720   34.7260   60.6880 C.3     0  <0>0        0.1123
     13  C5         9.9740   34.8980   59.2210 C.3     0  <0>0        0.0253
     14  C6        10.6980   34.0660   61.4430 C.ar    0  <0>0        0.1370
     15  O1        10.6490   32.8330   61.9760 O.2     0  <0>0       -0.4564
     16  C13       11.8110   32.5270   62.5880 C.ar    0  <0>0        0.1449
     17  C8        12.6640   33.6330   62.4390 C.ar    0  <0>0        0.0373
     18  C12       12.2640   31.4080   63.2760 C.ar    0  <0>0        0.0375
     19  C7        11.8930   34.6240   61.6790 C.ar    0  <0>0        0.0373
     20  C9        13.9500   33.6020   62.9770 C.ar    0  <0>0        0.0031
     21  C10       14.3770   32.4920   63.6510 C.ar    0  <0>0        0.0002
     22  C11       13.5380   31.3960   63.8010 C.ar    0  <0>0        0.0031
@<TRIPOS>BOND
     1     9    10   ar
     2     9     8   ar
     3    10    11   ar
     4     8     7   ar
     5    11     6   ar
     6     7     6   ar
     7     6     4    1
     8    13    12    1
     9     4     3    1
    10     4     5    1
    11     3     1    1
    12    12     1    1
    13    12    14    1
    14     1     2    1
    15    14    19   ar
    16    14    15   ar
    17    19    17   ar
    18    15    16   ar
    19    17    16   ar
    20    17    20   ar
    21    16    18   ar
    22    20    21   ar
    23    18    22   ar
    24    21    22   ar
