@<TRIPOS>MOLECULE
ZINC00912113_replica-1.pdb
 23 26 0 0 0
SMALL
GASTEIGER

@<TRIPOS>ATOM
      1  C10        0.0500   30.0280   55.0950 C.2     0  <0>0        0.0127
      2  C11       -0.5200   30.1080   56.3520 C.2     0  <0>0        0.1040
      3  C12       -1.5290   29.1700   56.7420 C.1     0  <0>0        0.1035
      4  N1        -2.3300   28.4250   57.0510 N.1     0  <0>0       -0.1907
      5  C13       -0.0900   31.1570   57.2910 C.2     0  <0>0        0.1706
      6  S1         0.3330   31.0080   59.0220 S.3     0  <0>0       -0.0525
      7  C19        0.7110   32.7210   59.3060 C.2     0  <0>0        0.0575
      8  C14        0.4760   33.2980   58.0350 C.2     0  <0>0        0.1375
      9  C18        1.1240   33.4590   60.3880 C.2     0  <0>0       -0.0123
     10  N2         0.0750   32.4460   57.0730 N.2     0  <0>0       -0.3942
     11  C15        0.6900   34.6930   57.9350 C.2     0  <0>0        0.0283
     12  C16        1.0990   35.4150   59.0130 C.2     0  <0>0       -0.0188
     13  C17        1.3220   34.8200   60.2470 C.3     0  <0>0        0.0527
     14  C8        -0.4430   29.1070   54.1570 C.2     0  <0>0        0.0220
     15  C7         0.1750   27.9050   53.9900 C.2     0  <0>0        0.0023
     16  C5        -0.3710   26.9890   52.9790 C.ar    0  <0>0        0.0338
     17  C4        -1.2590   27.5030   52.0180 C.ar    0  <0>0        0.1389
     18  C6        -0.0260   25.6380   52.9600 C.ar    0  <0>0        0.0030
     19  C3        -1.7890   26.6600   51.0580 C.ar    0  <0>0        0.0369
     20  O1        -1.5790   28.8200   52.0520 O.3     0  <0>0       -0.4706
     21  C2        -1.4410   25.3220   51.0490 C.ar    0  <0>0        0.0031
     22  C1        -0.5650   24.8130   51.9950 C.ar    0  <0>0        0.0002
     23  C9        -1.6620   29.4420   53.3350 C.3     0  <0>0        0.2320
@<TRIPOS>BOND
     1    21    19   ar
     2    21    22   ar
     3    19    17   ar
     4    22    18   ar
     5    17    20    1
     6    17    16   ar
     7    20    23    1
     8    18    16   ar
     9    16    15    1
    10    23    14    1
    11    15    14    2
    12    14     1    1
    13     1     2    2
    14     2     3    1
    15     2     5    1
    16     3     4    3
    17    10     5    2
    18    10     8    2
    19     5     6    1
    20    11     8    1
    21    11    12    2
    22     8     7    1
    23    12    13    1
    24     6     7    1
    25     7     9    2
    26    13     9    1
