@<TRIPOS>MOLECULE
ZINC13931902_replica-1.pdb
 19 19 0 0 0
SMALL
GASTEIGER

@<TRIPOS>ATOM
      1  C4        -0.7320   29.3380   56.7660 C.3     0  <0>0        0.0932
      2  C5        -1.8930   28.7940   57.6010 C.3     0  <0>0        0.0261
      3  N2        -0.9090   30.7790   56.5650 N.am    0  <0>0       -0.3140
      4  C3        -0.1130   31.6520   57.2140 C.2     0  <0>0        0.1316
      5  S1         1.1030   31.0770   58.2730 S.2     0  <0>0       -0.0189
      6  H8        -1.5970   31.1040   55.9650 H       0  <0>0        0.1487
      7  N1        -0.2750   32.9760   57.0290 N.am    0  <0>0       -0.3161
      8  H7        -0.7890   33.3020   56.2740 H       0  <0>0        0.1484
      9  C2         0.3250   33.9260   57.9690 C.3     0  <0>0        0.0885
     10  C1         0.4960   35.2840   57.2850 C.3     0  <0>0        0.0230
     11  C6        -0.7070   28.6440   55.4280 C.ar    0  <0>0       -0.0046
     12  C11       -1.4280   29.1620   54.3670 C.ar    0  <0>0       -0.0030
     13  C10       -1.4010   28.5280   53.1390 C.ar    0  <0>0       -0.0045
     14  C9        -0.6620   27.3710   52.9740 C.ar    0  <0>0       -0.0225
     15  C8         0.0580   26.8550   54.0340 C.ar    0  <0>0       -0.0045
     16  C7         0.0360   27.4900   55.2610 C.ar    0  <0>0       -0.0030
     17  C12       -0.6380   26.6770   51.6370 C.3     0  <0>0        0.0224
     18  C13       -1.8710   27.0850   50.8280 C.3     0  <0>0        0.0047
     19  C14       -0.6440   25.1620   51.8480 C.3     0  <0>0        0.0047
@<TRIPOS>BOND
     1    18    17    1
     2    17    19    1
     3    17    14    1
     4    14    13   ar
     5    14    15   ar
     6    13    12   ar
     7    15    16   ar
     8    12    11   ar
     9    16    11   ar
    10    11     1    1
    11     6     3    1
    12     8     7    1
    13     3     1    1
    14     3     4    1
    15     1     2    1
    16     7     4    1
    17     7     9    1
    18     4     5    2
    19    10     9    1
