@<TRIPOS>MOLECULE
ZINC01939644_replica-1.pdb
 21 23 0 0 0
SMALL
GASTEIGER

@<TRIPOS>ATOM
      1  N1         4.5450   35.3120   58.4090 N.am    0  <0>0       -0.2582
      2  C5         3.9470   35.5890   57.2220 C.3     0  <0>0        0.2222
      3  N2         4.6160   36.1260   56.2380 N.2     0  <0>0       -0.2451
      4  C6         5.9070   36.4200   56.3660 C.2     0  <0>0        0.0973
      5  C7         6.6100   36.1700   57.5560 C.3     0  <0>0        0.1452
      6  C8         5.8480   35.5810   58.6150 C.2     0  <0>0        0.2369
      7  O1         6.3710   35.3260   59.6860 O.2     0  <0>0       -0.2740
      8  C9         8.0180   36.5510   57.5340 C.2     0  <0>0       -0.0012
      9  C10        8.5250   37.1050   56.4060 C.2     0  <0>0        0.0332
     10  S1         7.1290   37.1350   55.2980 S.3     0  <0>0       -0.0717
     11  C11        8.8750   36.3420   58.7240 C.ar    0  <0>0       -0.0026
     12  C16        9.5950   35.1560   58.8680 C.ar    0  <0>0        0.0006
     13  C15       10.3960   34.9690   59.9760 C.ar    0  <0>0        0.0114
     14  C14       10.4870   35.9550   60.9430 C.ar    0  <0>0        0.0577
     15  C13        9.7750   37.1350   60.8050 C.ar    0  <0>0        0.0114
     16 Cl         11.4960   35.7130   62.3340 Cl      0  <0>0       -0.0822
     17  C12        8.9700   37.3320   59.7010 C.ar    0  <0>0        0.0006
     18  C4         3.7580   34.7090   59.4870 C.3     0  <0>0        0.0952
     19  C2         2.4580   34.1410   58.9130 C.3     0  <0>0        0.0199
     20  C1         2.4030   32.6340   59.1690 C.3     0  <0>0        0.0018
     21  C3         1.2640   34.8180   59.5900 C.3     0  <0>0        0.0018
@<TRIPOS>BOND
     1    10     4    1
     2    10     9    1
     3     3     4    2
     4     3     2    1
     5     4     5    1
     6     9     8    2
     7     2     1    1
     8     8     5    1
     9     8    11    1
    10     5     6    1
    11     1     6   am
    12     1    18    1
    13     6     7    2
    14    11    12   ar
    15    11    17   ar
    16    12    13   ar
    17    19    20    1
    18    19    18    1
    19    19    21    1
    20    17    15   ar
    21    13    14   ar
    22    15    14   ar
    23    14    16    1
