@<TRIPOS>MOLECULE
ZINC28640779_replica-1.pdb
 27 28 0 0 0
SMALL
GASTEIGER

@<TRIPOS>ATOM
      1  C4         4.0860   35.6650   56.3340 C.2     0  <0>0        0.2544
      2  O1         3.7360   35.0290   55.3630 O.2     0  <0>0       -0.2720
      3  N1         5.2980   36.2560   56.3530 N.am    0  <0>0       -0.2306
      4  H7         5.6150   36.8340   57.2340 H       0  <0>0        0.1707
      5  C3         3.1660   35.7960   57.5210 C.3     0  <0>0        0.1479
      6  C2         1.7340   36.0270   57.0330 C.3     0  <0>0        0.0290
      7  C1         0.7700   35.1780   57.8630 C.3     0  <0>0        0.0023
      8  N3         3.2190   34.5670   58.3180 N.pl3   0  <0>0       -0.3269
      9  H20        2.3240   33.9370   58.4160 H       0  <0>0        0.1472
     10  C15        4.4080   34.1970   58.9520 C.ar    0  <0>0        0.0451
     11  C20        5.0250   35.0720   59.8380 C.ar    0  <0>0        0.0166
     12  C19        6.1990   34.7050   60.4640 C.ar    0  <0>0        0.0309
     13  C18        6.7630   33.4660   60.2100 C.ar    0  <0>0        0.1402
     14  C17        6.1500   32.5920   59.3290 C.ar    0  <0>0        0.0309
     15  F1         7.9130   33.1100   60.8240 F       0  <0>0       -0.2042
     16  C16        4.9730   32.9530   58.7040 C.ar    0  <0>0        0.0166
     17  N2         6.1530   36.1340   55.2500 N.3     0  <0>0       -0.1265
     18  C5         7.3990   36.4830   55.3530 C.3     0  <0>0        0.1378
     19  C6         8.0630   36.4630   56.6690 C.ar    0  <0>0       -0.0030
     20  C11        8.1130   37.6220   57.4480 C.ar    0  <0>0       -0.0031
     21  C10        8.7320   37.5950   58.6810 C.ar    0  <0>0       -0.0046
     22  C9         9.3130   36.4270   59.1400 C.ar    0  <0>0       -0.0225
     23  C8         9.2690   35.2750   58.3750 C.ar    0  <0>0       -0.0046
     24  C7         8.6490   35.2860   57.1430 C.ar    0  <0>0       -0.0031
     25  C12        9.9920   36.4070   60.4860 C.3     0  <0>0        0.0224
     26  C13       10.5440   35.0060   60.7580 C.3     0  <0>0        0.0047
     27  C14        8.9800   36.7770   61.5720 C.3     0  <0>0        0.0047
@<TRIPOS>BOND
     1    17    18    1
     2    17     3    1
     3    18    19    1
     4     2     1    2
     5     1     3   am
     6     1     5    1
     7     3     4    1
     8    19    24   ar
     9    19    20   ar
    10     6     5    1
    11     6     7    1
    12    24    23   ar
    13    20    21   ar
    14     5     8    1
    15     8     9    1
    16     8    10    1
    17    23    22   ar
    18    21    22   ar
    19    16    10   ar
    20    16    14   ar
    21    10    11   ar
    22    22    25    1
    23    14    13   ar
    24    11    12   ar
    25    13    12   ar
    26    13    15    1
    27    25    26    1
    28    25    27    1
