@<TRIPOS>MOLECULE
ZINC16089567_replica-1.pdb
 20 21 0 0 0
SMALL
GASTEIGER

@<TRIPOS>ATOM
      1  S1        -1.1350   30.1030   54.9140 S.3     0  <0>0        0.0528
      2  O2        -2.4350   29.9880   55.4770 O.3     0  <0>0       -0.0569
      3  O3        -0.7500   31.2060   54.1050 O.3     0  <0>0       -0.0569
      4  O1        -0.1520   30.0510   56.0750 O.3     0  <0>0       -0.3572
      5  C6         0.2670   31.2710   56.5010 C.ar    0  <0>0        0.1718
      6  C1         1.4770   31.7840   56.0580 C.ar    0  <0>0        0.0403
      7  C2         1.8980   33.0270   56.4870 C.ar    0  <0>0        0.0099
      8  C3         1.1190   33.7570   57.3680 C.ar    0  <0>0        0.0348
      9  C4        -0.0860   33.2450   57.8150 C.ar    0  <0>0        0.0099
     10 Br          1.7010   35.4560   57.9590 Br      0  <0>0       -0.0490
     11  C5        -0.5130   32.0040   57.3840 C.ar    0  <0>0        0.0403
     12  C7        -0.8740   28.6540   53.9460 C.ar    0  <0>0        0.1500
     13  C12       -1.4630   28.5400   52.6980 C.ar    0  <0>0        0.1880
     14  C11       -1.2530   27.4020   51.9360 C.ar    0  <0>0        0.1959
     15  F1        -2.2380   29.5400   52.2230 F       0  <0>0       -0.2003
     16  C10       -0.4630   26.3760   52.4280 C.ar    0  <0>0        0.1697
     17  F2        -1.8240   27.2910   50.7160 F       0  <0>0       -0.1994
     18  C9         0.1210   26.4920   53.6780 C.ar    0  <0>0        0.0335
     19  F3        -0.2620   25.2630   51.6880 F       0  <0>0       -0.2017
     20  C8        -0.0860   27.6290   54.4350 C.ar    0  <0>0        0.0246
@<TRIPOS>BOND
     1    17    14    1
     2    19    16    1
     3    14    16   ar
     4    14    13   ar
     5    15    13    1
     6    16    18   ar
     7    13    12   ar
     8    18    20   ar
     9    12    20   ar
    10    12     1    1
    11     3     1    1
    12     1     2    1
    13     1     4    1
    14     6     7   ar
    15     6     5   ar
    16     4     5    1
    17     7     8   ar
    18     5    11   ar
    19     8     9   ar
    20     8    10    1
    21    11     9   ar
