@<TRIPOS>MOLECULE
ZINC00152456_replica-1.pdb
 21 24 0 0 0
SMALL
GASTEIGER

@<TRIPOS>ATOM
      1  C1         6.2950   36.7470   58.4620 C.3     0  <0>0        0.0169
      2  C2         7.7300   36.8830   57.9480 C.3     0  <0>0        0.0782
      3  C3         8.6820   36.3210   58.9680 C.2     0  <0>0        0.0383
      4  C4         9.2910   37.1930   59.8590 C.2     0  <0>0        0.1110
      5  N1        10.1270   36.7160   60.7670 N.2     0  <0>0       -0.1677
      6  C5        10.3880   35.4200   60.8330 C.1     0  <0>0        0.1651
      7  N2         9.8310   34.5570   60.0040 N.2     0  <0>0       -0.3356
      8  C6         8.9750   34.9660   59.0590 C.2     0  <0>0        0.1430
      9  C7         8.3890   33.9480   58.1630 C.ar    0  <0>0        0.0368
     10  C8         8.3450   32.6140   58.5770 C.ar    0  <0>0        0.0144
     11  C9         7.8070   31.6520   57.7480 C.ar    0  <0>0        0.0578
     12  C10        7.3080   31.9960   56.5020 C.ar    0  <0>0        0.0119
     13  C11        7.3420   33.3110   56.0790 C.ar    0  <0>0        0.0071
     14  C12        7.8770   34.2880   56.9060 C.ar    0  <0>0        0.0280
     15  S1         7.9110   35.9720   56.3850 S.3     0  <0>0       -0.1099
     16 Cl          7.7550   29.9970   58.2700 Cl      0  <0>0       -0.0822
     17  N3        11.2740   34.9550   61.8030 N.ar    0  <0>0       -0.2387
     18  C13       11.6330   33.6490   61.9950 C.ar    0  <0>0        0.0914
     19  C14       12.5060   33.5990   63.0210 C.ar    0  <0>0        0.0213
     20  C15       12.6880   34.9180   63.4870 C.ar    0  <0>0        0.0213
     21  C16       11.9250   35.7270   62.7250 C.ar    0  <0>0        0.0914
@<TRIPOS>BOND
     1    13    12   ar
     2    13    14   ar
     3    15    14    1
     4    15     2    1
     5    12    11   ar
     6    14     9   ar
     7    11    16    1
     8    11    10   ar
     9     2     1    1
    10     2     3    1
    11     9    10   ar
    12     9     8    1
    13     3     8    1
    14     3     4    2
    15     8     7    2
    16     4     5    1
    17     7     6    2
    18     5     6    2
    19     6    17    1
    20    17    18   ar
    21    17    21   ar
    22    18    19   ar
    23    21    20   ar
    24    19    20   ar
