@<TRIPOS>MOLECULE
ZINC50101715_replica-1.pdb
 22 24 0 0 0
SMALL
GASTEIGER

@<TRIPOS>ATOM
      1  N1         0.3060   29.3890   56.1470 N.pl3   0  <0>0       -0.3291
      2  H12        1.2030   29.6820   56.3670 H       0  <0>0        0.1471
      3  C9        -0.8470   29.9870   56.8250 C.3     0  <0>0        0.1141
      4  C8        -1.4880   28.9610   57.7240 C.ar    0  <0>0       -0.0043
      5  C3        -1.0630   28.8280   59.0330 C.ar    0  <0>0        0.0049
      6  C4        -1.6560   27.8920   59.8600 C.ar    0  <0>0       -0.0021
      7  C5        -2.6670   27.0850   59.3770 C.ar    0  <0>0       -0.0003
      8  C6        -3.0880   27.2140   58.0660 C.ar    0  <0>0       -0.0003
      9  C7        -2.4970   28.1510   57.2390 C.ar    0  <0>0       -0.0029
     10  C2         0.0400   29.7100   59.5600 C.3     0  <0>0        0.1684
     11  O1         1.3060   29.1700   59.1740 O.3     0  <0>0       -0.3463
     12  C1         2.3960   30.0810   59.3240 C.3     0  <0>0        0.1746
     13  C10        0.1120   28.3980   55.1820 C.ar    0  <0>0        0.0449
     14  C19       -0.6110   28.6860   54.0460 C.ar    0  <0>0        0.0143
     15  C18       -0.8000   27.6890   53.0760 C.ar    0  <0>0        0.0012
     16  C13       -0.2530   26.3980   53.2860 C.ar    0  <0>0        0.0001
     17  C17       -1.5270   27.9460   51.9000 C.ar    0  <0>0        0.0000
     18  C12        0.4740   26.1370   54.4620 C.ar    0  <0>0        0.0013
     19  C14       -0.4490   25.4010   52.3170 C.ar    0  <0>0        0.0000
     20  C11        0.6480   27.1200   55.3830 C.ar    0  <0>0        0.0143
     21  C15       -1.1590   25.6860   51.1910 C.ar    0  <0>0        0.0000
     22  C16       -1.6970   26.9550   50.9830 C.ar    0  <0>0        0.0000
@<TRIPOS>BOND
     1    22    21   ar
     2    22    17   ar
     3    21    19   ar
     4    17    15   ar
     5    19    16   ar
     6    15    16   ar
     7    15    14   ar
     8    16    18   ar
     9    14    13   ar
    10    18    20   ar
    11    13    20   ar
    12    13     1    1
    13     1     2    1
    14     1     3    1
    15     3     4    1
    16     9     4   ar
    17     9     8   ar
    18     4     5   ar
    19     8     7   ar
    20     5    10    1
    21     5     6   ar
    22    11    12    1
    23    11    10    1
    24     7     6   ar
