@<TRIPOS>MOLECULE
ZINC21012539_replica-1.pdb
 22 23 0 0 0
SMALL
GASTEIGER

@<TRIPOS>ATOM
      1  C9        -1.9300   29.9820   53.5380 C.3     0  <0>0        0.0920
      2  C10       -3.0590   30.4570   52.6230 C.3     0  <0>0        0.0261
      3  N1        -2.4360   29.8330   54.9050 N.pl3   0  <0>0       -0.3308
      4  H11       -3.4420   29.4220   55.0770 H       0  <0>0        0.1471
      5  C5        -1.6430   30.2150   55.9890 C.ar    0  <0>0        0.0408
      6  C4        -0.9260   31.4040   55.9420 C.ar    0  <0>0        0.0137
      7  C3        -0.1470   31.7810   57.0170 C.ar    0  <0>0       -0.0030
      8  C2        -0.0700   30.9710   58.1360 C.ar    0  <0>0       -0.0221
      9  C1         0.7880   31.3830   59.3050 C.3     0  <0>0        0.0310
     10  C7        -0.7770   29.7840   58.1840 C.ar    0  <0>0       -0.0073
     11  C6        -1.5640   29.4040   57.1130 C.ar    0  <0>0       -0.0090
     12  C8        -2.3360   28.1100   57.1670 C.3     0  <0>0        0.0323
     13  C11       -1.4110   28.6540   53.0480 C.ar    0  <0>0       -0.0016
     14  C16       -0.5820   27.8980   53.8540 C.ar    0  <0>0        0.0344
     15  C15       -0.1030   26.6760   53.4010 C.ar    0  <0>0        0.1440
     16  C14       -0.4620   26.2170   52.1420 C.ar    0  <0>0        0.0371
     17  C13       -1.2870   26.9790   51.3390 C.ar    0  <0>0        0.0028
     18  C12       -1.7660   28.1930   51.7940 C.ar    0  <0>0       -0.0025
     19  O1         0.7130   25.9310   54.1910 O.3     0  <0>0       -0.4236
     20  C17        0.3230   25.7690   55.5560 C.3     0  <0>0        0.5087
     21  F1         0.6420   24.4750   55.9830 F       0  <0>0       -0.1550
     22  F2         1.0000   26.7020   56.3490 F       0  <0>0       -0.1550
@<TRIPOS>BOND
     1    17    18   ar
     2    17    16   ar
     3    18    13   ar
     4    16    15   ar
     5     2     1    1
     6    13     1    1
     7    13    14   ar
     8    15    14   ar
     9    15    19    1
    10     1     3    1
    11    19    20    1
    12     3     4    1
    13     3     5    1
    14    20    21    1
    15    20    22    1
    16     6     5   ar
    17     6     7   ar
    18     5    11   ar
    19     7     8   ar
    20    11    12    1
    21    11    10   ar
    22     8    10   ar
    23     8     9    1
