@<TRIPOS>MOLECULE
ZINC13842487_replica-1.pdb
 24 25 0 0 0
SMALL
GASTEIGER

@<TRIPOS>ATOM
      1  C7         6.7070   34.2950   58.4660 C.2     0  <0>0        0.3291
      2  O1         7.2360   33.2140   58.5780 O.2     0  <0>0       -0.2491
      3  C6         5.3590   34.4090   57.8020 C.3     0  <0>0        0.1835
      4  S1         4.4790   35.8430   58.4690 S.3     0  <0>0       -0.0061
      5  C5         2.8140   35.3100   58.2460 C.1     0  <0>0        0.1707
      6  N1         2.0180   35.9970   57.4390 N.2     0  <0>0       -0.3017
      7  C4         0.7570   35.6250   57.2530 C.2     0  <0>0        0.2676
      8  C3         0.2820   34.4910   57.9120 C.3     0  <0>0        0.1548
      9  C2         1.1450   33.7990   58.7410 C.2     0  <0>0        0.1105
     10  C1         0.6750   32.5690   59.4730 C.3     0  <0>0        0.0631
     11  N2         2.3890   34.2290   58.8840 N.2     0  <0>0       -0.3432
     12  O3        -0.0540   36.3330   56.4310 O.2     0  <0>0       -0.4857
     13  H26       -0.5450   35.7900   55.7990 H       0  <0>0        0.2945
     14  O2         7.3220   35.3930   58.9340 O.3     0  <0>0       -0.4517
     15  C8         8.6040   35.7330   58.3430 C.3     0  <0>0        0.1687
     16  C13        9.3930   36.6150   59.3130 C.3     0  <0>0        0.0402
     17  C12        8.6050   37.8970   59.5920 C.3     0  <0>0        0.0036
     18  C11        8.3790   38.6530   58.2810 C.3     0  <0>0        0.0002
     19  C10        7.5900   37.7710   57.3120 C.3     0  <0>0        0.0036
     20  C9         8.3780   36.4890   57.0330 C.3     0  <0>0        0.0436
     21  C17        7.3660   38.5260   56.0020 C.3     0  <0>0        0.0001
     22  C14        9.6180   35.8600   60.6240 C.3     0  <0>0        0.0035
     23  C15       10.4210   34.5870   60.3470 C.3     0  <0>0        0.0001
     24  C16       10.3930   36.7480   61.5990 C.3     0  <0>0        0.0001
@<TRIPOS>BOND
     1    13    12    1
     2    21    19    1
     3    12     7    1
     4    20    19    1
     5    20    15    1
     6     7     6    2
     7     7     8    1
     8    19    18    1
     9     6     5    2
    10     3     1    1
    11     3     4    1
    12     8     9    1
    13     5     4    1
    14     5    11    2
    15    18    17    1
    16    15    14    1
    17    15    16    1
    18     1     2    2
    19     1    14    1
    20     9    11    2
    21     9    10    1
    22    16    17    1
    23    16    22    1
    24    23    22    1
    25    22    24    1
