@<TRIPOS>MOLECULE
ZINC04581089_replica-1.pdb
 28 31 0 0 0
SMALL
GASTEIGER

@<TRIPOS>ATOM
      1  C9         7.8170   37.4950   58.4620 C.3     0  <0>0        0.1053
      2  C6         8.8310   36.6960   59.2390 C.ar    0  <0>0       -0.0038
      3  C5         9.3340   37.1900   60.4280 C.ar    0  <0>0        0.0004
      4  C4        10.2640   36.4600   61.1430 C.ar    0  <0>0        0.0366
      5  C3        10.6920   35.2290   60.6660 C.ar    0  <0>0        0.1385
      6  C8        10.1890   34.7380   59.4700 C.ar    0  <0>0        0.0366
      7  C7         9.2550   35.4700   58.7620 C.ar    0  <0>0        0.0004
      8  O1        11.6060   34.5090   61.3670 O.3     0  <0>0       -0.4755
      9  C2        12.1710   35.1270   62.5250 C.3     0  <0>0        0.2055
     10  C1        13.1490   34.1600   63.1940 C.3     0  <0>0        0.0512
     11  C10        8.5000   38.1610   57.2660 C.3     0  <0>0        0.1380
     12  C11        7.9070   37.6270   55.9880 C.2     0  <0>0        0.3669
     13  O2         8.3170   36.5820   55.5140 O.co2   0  <0>0       -0.2456
     14  O3         7.0160   38.2420   55.4260 O.co2   0  <0>0       -0.2456
     15  N1         6.7560   36.6050   57.9840 N.am    0  <0>0       -0.3017
     16  C12        5.6060   36.4920   58.6800 C.2     0  <0>0        0.2217
     17  O4         5.4860   37.0550   59.7470 O.2     0  <0>0       -0.2751
     18  H13        6.8800   36.0970   57.1670 H       0  <0>0        0.1497
     19  C13        4.4720   35.6660   58.1320 C.3     0  <0>0        0.0688
     20  C18        3.1660   36.0720   58.8190 C.3     0  <0>0        0.0086
     21  C17        2.0150   35.2340   58.2620 C.3     0  <0>0        0.0005
     22  C16        2.2900   33.7520   58.5270 C.3     0  <0>0        0.0000
     23  C19        1.8940   35.4690   56.7550 C.3     0  <0>0        0.0000
     24  C15        3.5950   33.3440   57.8410 C.3     0  <0>0        0.0005
     25  C14        4.7470   34.1840   58.3970 C.3     0  <0>0        0.0086
     26  C21        3.4730   33.5800   56.3330 C.3     0  <0>0        0.0000
     27  C20        3.1990   35.0610   56.0690 C.3     0  <0>0        0.0005
     28  C22        4.3510   35.9010   56.6250 C.3     0  <0>0        0.0086
@<TRIPOS>BOND
     1    14    12   ar
     2    13    12   ar
     3    12    11    1
     4    27    26    1
     5    27    28    1
     6    27    23    1
     7    26    24    1
     8    28    19    1
     9    23    21    1
    10    18    15    1
    11    11     1    1
    12    24    25    1
    13    24    22    1
    14    15     1    1
    15    15    16   am
    16    19    25    1
    17    19    16    1
    18    19    20    1
    19    21    22    1
    20    21    20    1
    21     1     2    1
    22    16    17    2
    23     7     2   ar
    24     7     6   ar
    25     2     3   ar
    26     6     5   ar
    27     3     4   ar
    28     5     4   ar
    29     5     8    1
    30     8     9    1
    31     9    10    1
