@<TRIPOS>MOLECULE
ZINC19996564_replica-1.pdb
 18 18 0 0 0
SMALL
GASTEIGER

@<TRIPOS>ATOM
      1  C7        -0.9700   27.8840   52.7990 C.ar    0  <0>0        0.0485
      2  C8        -1.6880   27.8920   51.6090 C.ar    0  <0>0        0.0142
      3  C9        -1.7870   26.7380   50.8570 C.ar    0  <0>0        0.0012
      4  C10       -1.1750   25.5750   51.2870 C.ar    0  <0>0        0.0000
      5  C11       -0.4610   25.5640   52.4720 C.ar    0  <0>0        0.0051
      6  C12       -0.3510   26.7150   53.2250 C.ar    0  <0>0        0.0845
      7  N1        -0.8670   29.0500   53.5620 N.pl3   0  <0>0       -0.3341
      8  H14       -0.0160   29.5110   53.6300 H       0  <0>0        0.1468
      9  C2        -2.0440   29.5750   54.2580 C.3     0  <0>0        0.0691
     10  C1        -2.8640   30.4360   53.2950 C.3     0  <0>0        0.0212
     11  C3        -1.5940   30.4280   55.4470 C.3     0  <0>0        0.0195
     12  C4        -2.1980   29.8650   56.7350 C.3     0  <0>0        0.0016
     13  C5        -3.0940   28.6720   56.4000 C.3     0  <0>0        0.0001
     14  C6        -1.0730   29.4110   57.6690 C.3     0  <0>0        0.0001
     15  C13        0.4330   26.7040   54.5110 C.3     0  <0>0        0.4197
     16  F1         1.0440   25.4560   54.6740 F       0  <0>0       -0.1658
     17  F2         1.4130   27.7020   54.4700 F       0  <0>0       -0.1658
     18  F3        -0.4300   26.9430   55.5870 F       0  <0>0       -0.1658
@<TRIPOS>BOND
     1     3     4   ar
     2     3     2   ar
     3     4     5   ar
     4     2     1   ar
     5     5     6   ar
     6     1     6   ar
     7     1     7    1
     8     6    15    1
     9    10     9    1
    10     7     8    1
    11     7     9    1
    12     9    11    1
    13    17    15    1
    14    15    16    1
    15    15    18    1
    16    11    12    1
    17    13    12    1
    18    12    14    1
