@<TRIPOS>MOLECULE
ZINC40621698_replica-1.pdb
 22 23 0 0 0
SMALL
GASTEIGER

@<TRIPOS>ATOM
      1  N1        11.4740   34.6020   61.0490 N.3     0  <0>0       -0.2952
      2  H15       11.9080   34.6110   60.1380 H       0  <0>0        0.1235
      3  C9        12.4850   34.5520   62.1140 C.3     0  <0>0        0.0765
      4  C10       12.1670   35.6150   63.1680 C.3     0  <0>0        0.0220
      5  C5        12.4700   33.1880   62.7560 C.ar    0  <0>0       -0.0120
      6  C4        11.2770   32.5030   62.8960 C.ar    0  <0>0       -0.0036
      7  C3        11.2650   31.2520   63.4830 C.ar    0  <0>0       -0.0046
      8  C2        12.4440   30.6860   63.9310 C.ar    0  <0>0       -0.0222
      9  C1        12.4300   29.3220   64.5720 C.3     0  <0>0        0.0310
     10  C7        13.6350   31.3750   63.7960 C.ar    0  <0>0       -0.0088
     11  C6        13.6490   32.6230   63.2040 C.ar    0  <0>0       -0.0249
     12  C8        14.9490   33.3710   63.0520 C.3     0  <0>0        0.0307
     13  C11       10.5870   35.7610   61.2200 C.3     0  <0>0        0.0665
     14  C12        9.3490   35.5900   60.3360 C.3     0  <0>0       -0.0071
     15  C15        8.7580   36.9650   59.9740 C.3     0  <0>0       -0.0759
     16  N2         8.8440   37.0980   58.5010 N.4     0  <0>0        0.3883
     17  C14        8.8530   35.7110   57.9700 C.3     0  <0>0       -0.0773
     18  H31        9.6950   37.5750   58.2430 H       0  <0>0       -0.0796
     19  C13        9.7390   34.9480   58.9860 C.3     0  <0>0       -0.0235
     20  C16        7.6760   37.8290   57.9900 C.3     0  <0>0       -0.0582
     21  C17        7.1970   38.8260   59.0460 C.3     0  <0>0       -0.0229
     22  C18        8.0640   38.5820   56.7160 C.3     0  <0>0       -0.0229
@<TRIPOS>BOND
     1    22    20    1
     2    17    16    1
     3    17    19    1
     4    20    16    1
     5    20    21    1
     6    18    16    1
     7    16    15    1
     8    19    14    1
     9    15    14    1
    10     2     1    1
    11    14    13    1
    12     1    13    1
    13     1     3    1
    14     3     5    1
    15     3     4    1
    16     5     6   ar
    17     5    11   ar
    18     6     7   ar
    19    12    11    1
    20    11    10   ar
    21     7     8   ar
    22    10     8   ar
    23     8     9    1
