@<TRIPOS>MOLECULE
ZINC66367716_replica-1.pdb
 21 21 0 0 0
SMALL
GASTEIGER

@<TRIPOS>ATOM
      1  N1         5.3940   34.7600   57.2770 N.am    0  <0>0       -0.2904
      2  C7         6.6200   35.3130   57.1830 C.2     0  <0>0        0.3042
      3  O1         7.3900   34.9410   56.3180 O.2     0  <0>0       -0.2526
      4  N2         6.9940   36.2770   58.0470 N.am    0  <0>0       -0.2603
      5  C8         6.0660   36.7250   59.0900 C.3     0  <0>0        0.1167
      6  H15        4.7810   35.0570   57.9670 H       0  <0>0        0.1509
      7  C9         8.3270   36.8770   57.9460 C.3     0  <0>0        0.0994
      8  C10        8.2040   38.4020   57.9890 C.3     0  <0>0        0.0265
      9  C11        9.1780   36.4090   59.0980 C.ar    0  <0>0       -0.0041
     10  C16        9.3630   37.2270   60.1960 C.ar    0  <0>0       -0.0004
     11  C15       10.1400   36.7960   61.2560 C.ar    0  <0>0        0.0294
     12  C14       10.7400   35.5490   61.2120 C.ar    0  <0>0        0.1401
     13  C13       10.5570   34.7330   60.1080 C.ar    0  <0>0        0.0294
     14  F1        11.5030   35.1300   62.2450 F       0  <0>0       -0.2042
     15  C12        9.7760   35.1630   59.0530 C.ar    0  <0>0       -0.0004
     16  C3         4.9890   33.7130   56.3360 C.3     0  <0>0        0.0730
     17  C2         4.4050   32.5310   57.1120 C.3     0  <0>0        0.0196
     18  C1         4.1960   32.9320   58.5730 C.3     0  <0>0        0.0017
     19  C4         3.9310   34.2680   55.3800 C.3     0  <0>0        0.0180
     20  C5         3.3090   35.5280   55.9850 C.3     0  <0>0        0.0017
     21  C6         4.5870   34.6160   54.0420 C.3     0  <0>0        0.0017
@<TRIPOS>BOND
     1    21    19    1
     2    19    20    1
     3    19    16    1
     4     3     2    2
     5    16    17    1
     6    16     1    1
     7    17    18    1
     8     2     1   am
     9     2     4   am
    10     1     6    1
    11     7     8    1
    12     7     4    1
    13     7     9    1
    14     4     5    1
    15    15     9   ar
    16    15    13   ar
    17     9    10   ar
    18    13    12   ar
    19    10    11   ar
    20    12    11   ar
    21    12    14    1
