@<TRIPOS>MOLECULE
ZINC44544844_replica-1.pdb
 26 27 0 0 0
SMALL
GASTEIGER

@<TRIPOS>ATOM
      1  C9         1.5550   32.1080   56.8380 C.3     0  <0>0        0.0936
      2  N1         1.2770   31.3570   55.6120 N.am    0  <0>0       -0.2706
      3  C8         0.0040   31.1060   55.2490 C.2     0  <0>0        0.4020
      4  O2        -0.9140   31.5030   55.9390 O.2     0  <0>0       -0.2264
      5  H9         2.0110   31.0390   55.0620 H       0  <0>0        0.1527
      6  O1        -0.2510   30.4140   54.1220 O.3     0  <0>0       -0.4297
      7  C7        -1.4130   29.5810   54.1200 C.3     0  <0>0        0.2367
      8  C4        -1.1530   28.3600   53.2760 C.ar    0  <0>0        0.0213
      9  C3        -0.4100   27.3120   53.7850 C.ar    0  <0>0       -0.0007
     10  C2        -0.1730   26.1920   53.0110 C.ar    0  <0>0       -0.0002
     11  C1        -0.6810   26.1190   51.7270 C.ar    0  <0>0       -0.0000
     12  C6        -1.4250   27.1670   51.2180 C.ar    0  <0>0       -0.0002
     13  C5        -1.6610   28.2880   51.9910 C.ar    0  <0>0       -0.0007
     14  C10        2.4100   33.3320   56.5050 C.3     0  <0>0        0.0370
     15  C11        2.5720   34.1980   57.7570 C.3     0  <0>0        0.1273
     16  C12        3.8550   34.9810   57.6640 C.ar    0  <0>0       -0.0109
     17  C17        4.2780   35.7430   58.7370 C.ar    0  <0>0        0.0085
     18  C16        5.4600   36.4580   58.6540 C.ar    0  <0>0        0.0679
     19  C15        6.2120   36.4170   57.4930 C.ar    0  <0>0        0.0682
     20 Cl          5.9950   37.4100   60.0040 Cl      0  <0>0       -0.0814
     21  C14        5.7850   35.6580   56.4180 C.ar    0  <0>0        0.0119
     22 Cl          7.6920   37.3190   57.3840 Cl      0  <0>0       -0.0814
     23  C13        4.6070   34.9400   56.5040 C.ar    0  <0>0       -0.0028
     24  C18        1.4080   35.1500   57.8630 C.2     0  <0>0        0.3684
     25  O3         1.0940   35.8370   56.9060 O.co2   0  <0>0       -0.2453
     26  O4         0.7830   35.2350   58.9040 O.co2   0  <0>0       -0.2453
@<TRIPOS>BOND
     1    12    11   ar
     2    12    13   ar
     3    11    10   ar
     4    13     8   ar
     5    10     9   ar
     6     8     9   ar
     7     8     7    1
     8     7     6    1
     9     6     3    1
    10     5     2    1
    11     3     2   am
    12     3     4    2
    13     2     1    1
    14    21    23   ar
    15    21    19   ar
    16    23    16   ar
    17    14     1    1
    18    14    15    1
    19    25    24   ar
    20    22    19    1
    21    19    18   ar
    22    16    15    1
    23    16    17   ar
    24    15    24    1
    25    24    26   ar
    26    18    17   ar
    27    18    20    1
