@<TRIPOS>MOLECULE
ZINC36995329_replica-1.pdb
 21 22 0 0 0
SMALL
GASTEIGER

@<TRIPOS>ATOM
      1  C4        -0.4620   27.0640   52.9040 C.ar    0  <0>0       -0.0227
      2  C5         0.2810   26.2820   53.7690 C.ar    0  <0>0       -0.0030
      3  C6         0.4960   26.6990   55.0680 C.ar    0  <0>0        0.0137
      4  C7        -0.0370   27.9050   55.5050 C.ar    0  <0>0        0.0408
      5  C8        -0.7830   28.6880   54.6340 C.ar    0  <0>0       -0.0097
      6  C9        -0.9880   28.2670   53.3340 C.ar    0  <0>0       -0.0073
      7  N1         0.1780   28.3290   56.8190 N.pl3   0  <0>0       -0.3280
      8  H19        0.2100   29.2760   57.0230 H       0  <0>0        0.1472
      9  C13        0.3540   27.3430   57.8880 C.3     0  <0>0        0.1356
     10  C14       -0.9880   26.7760   58.2730 C.ar    0  <0>0        0.0996
     11  N3        -1.3340   25.5160   58.2150 N.ar    0  <0>0       -0.1753
     12  N2        -2.6580   25.4050   58.6590 N.ar    0  <0>0       -0.2745
     13  C16       -3.0940   26.6420   58.9780 C.ar    0  <0>0        0.0921
     14  H1        -3.1710   24.5840   58.7250 H       0  <0>0        0.1890
     15  C15       -2.0810   27.5090   58.7470 C.ar    0  <0>0        0.0381
     16  C10       -1.3630   29.9960   55.1040 C.3     0  <0>0        0.0235
     17  C11       -0.5010   31.1510   54.5890 C.3     0  <0>0        0.0047
     18  C12       -2.7870   30.1450   54.5680 C.3     0  <0>0        0.0047
     19  C2        -0.6940   26.6050   51.4870 C.3     0  <0>0        0.0223
     20  C1        -0.8480   25.0840   51.4620 C.3     0  <0>0        0.0047
     21  C3        -1.9660   27.2560   50.9410 C.3     0  <0>0        0.0047
@<TRIPOS>BOND
     1    21    19    1
     2    20    19    1
     3    19     1    1
     4     1     6   ar
     5     1     2   ar
     6     6     5   ar
     7     2     3   ar
     8    18    16    1
     9    17    16    1
    10     5    16    1
    11     5     4   ar
    12     3     4   ar
    13     4     7    1
    14     7     8    1
    15     7     9    1
    16     9    10    1
    17    11    10   ar
    18    11    12   ar
    19    10    15   ar
    20    12    14    1
    21    12    13   ar
    22    15    13   ar
