@<TRIPOS>MOLECULE
ZINC57497055_replica-1.pdb
 21 23 0 0 0
SMALL
GASTEIGER

@<TRIPOS>ATOM
      1  C9        -1.4110   30.2400   56.5080 C.2     0  <0>0        0.2162
      2  N1        -0.8650   31.3850   56.1960 N.2     0  <0>0       -0.3835
      3  C10        0.0230   32.0130   57.0230 C.2     0  <0>0        0.1305
      4  C11        0.6840   33.2340   56.8260 C.2     0  <0>0        0.0356
      5  C12        1.5360   33.7040   57.7620 C.2     0  <0>0        0.0340
      6  S2         1.4740   32.4400   59.0210 S.3     0  <0>0       -0.0976
      7  C13        0.3160   31.3540   58.2300 C.3     0  <0>0        0.1806
      8  C14       -0.2690   30.1330   58.5550 C.2     0  <0>0        0.2484
      9  O1        -0.0060   29.5730   59.6070 O.2     0  <0>0       -0.2731
     10  N2        -1.1440   29.5870   57.6770 N.am    0  <0>0       -0.2262
     11  C15       -1.7910   28.3060   57.9760 C.3     0  <0>0        0.1230
     12  S1        -2.5460   29.5110   55.3760 S.3     0  <0>0       -0.0631
     13  C2        -1.7810   29.7810   53.7530 C.3     0  <0>0        0.0778
     14  C1        -2.8110   30.3860   52.7980 C.3     0  <0>0        0.0169
     15  C3        -1.2970   28.4650   53.2010 C.ar    0  <0>0       -0.0098
     16  C8        -0.4990   27.6420   53.9750 C.ar    0  <0>0        0.0262
     17  C7        -0.0590   26.4310   53.4690 C.ar    0  <0>0        0.1399
     18  C6        -0.4090   26.0490   52.1850 C.ar    0  <0>0        0.0296
     19  F1         0.7160   25.6230   54.2270 F       0  <0>0       -0.2042
     20  C5        -1.2010   26.8760   51.4120 C.ar    0  <0>0        0.0020
     21  C4        -1.6450   28.0830   51.9190 C.ar    0  <0>0       -0.0033
@<TRIPOS>BOND
     1    20    21   ar
     2    20    18   ar
     3    21    15   ar
     4    18    17   ar
     5    14    13    1
     6    15    13    1
     7    15    16   ar
     8    17    16   ar
     9    17    19    1
    10    13    12    1
    11    12     1    1
    12     2     1    2
    13     2     3    2
    14     1    10    1
    15     4     3    1
    16     4     5    2
    17     3     7    1
    18    10    11    1
    19    10     8   am
    20     5     6    1
    21     7     8    1
    22     7     6    1
    23     8     9    2
