@<TRIPOS>MOLECULE
ZINC09325853_replica-1.pdb
 26 28 0 0 0
SMALL
GASTEIGER

@<TRIPOS>ATOM
      1  C1         1.3030   31.5010   56.6880 C.3     0  <0>0        0.1146
      2  N1         0.9770   31.3610   58.1100 N.pl3   0  <0>0       -0.2787
      3  C2         0.8370   32.4870   58.9020 C.ar    0  <0>0        0.0907
      4  C3         0.9670   33.8390   58.5280 C.ar    0  <0>0        0.1525
      5  C4         0.7910   34.8440   59.4550 C.ar    0  <0>0        0.0391
      6  C5         0.4840   34.5580   60.7750 C.ar    0  <0>0        0.0151
      7  C6         0.3520   33.2370   61.1670 C.ar    0  <0>0        0.0648
      8  C7         0.5260   32.2300   60.2420 C.ar    0  <0>0        0.0552
      9  S1         0.4430   30.4590   60.3100 S.3     0  <0>0       -0.0702
     10  C8         0.8140   30.1240   58.6490 C.3     0  <0>0        0.2247
     11 Cl         -0.0320   32.8500   62.8150 Cl      0  <0>0       -0.0817
     12  N2         0.9090   28.9410   58.0470 N.am    0  <0>0       -0.1757
     13  C9        -0.1900   28.2880   57.6880 C.2     0  <0>0        0.2444
     14  O1        -1.2840   28.7720   57.9090 O.2     0  <0>0       -0.2732
     15  C10       -0.0830   26.9480   57.0060 C.3     0  <0>0        0.0989
     16  C11        0.8530   27.0620   55.8010 C.3     0  <0>0        0.0718
     17  S2         0.5910   25.6480   54.6960 S.3     0  <0>0       -0.1132
     18  C12       -0.2740   26.3350   53.3220 C.ar    0  <0>0        0.0254
     19  C17       -0.5730   25.5420   52.2210 C.ar    0  <0>0        0.0085
     20  C16       -1.2500   26.0830   51.1470 C.ar    0  <0>0        0.0301
     21  C15       -1.6300   27.4150   51.1640 C.ar    0  <0>0        0.1402
     22  C14       -1.3330   28.2070   52.2600 C.ar    0  <0>0        0.0301
     23  F1        -2.2970   27.9400   50.1140 F       0  <0>0       -0.2042
     24  C13       -0.6560   27.6700   53.3380 C.ar    0  <0>0        0.0085
     25  O2         1.2660   34.1550   57.2410 O.3     0  <0>0       -0.4702
     26  C18        1.6100   35.5160   56.9690 C.3     0  <0>0        0.2525
@<TRIPOS>BOND
     1    23    21    1
     2    20    21   ar
     3    20    19   ar
     4    21    22   ar
     5    19    18   ar
     6    22    24   ar
     7    18    24   ar
     8    18    17    1
     9    17    16    1
    10    16    15    1
    11     1     2    1
    12    26    25    1
    13    15    13    1
    14    25     4    1
    15    13    14    2
    16    13    12   am
    17    12    10    1
    18     2    10    1
    19     2     3    1
    20     4     3   ar
    21     4     5   ar
    22    10     9    1
    23     3     8   ar
    24     5     6   ar
    25     8     9    1
    26     8     7   ar
    27     6     7   ar
    28     7    11    1
