@<TRIPOS>MOLECULE
ZINC49065166_replica-1.pdb
 18 20 0 0 0
SMALL
GASTEIGER

@<TRIPOS>ATOM
      1  C6         7.7470   37.3960   58.4070 C.2     0  <0>0        0.1928
      2  C7         8.1070   38.1100   57.1750 C.2     0  <0>0        0.3739
      3  O1         8.9600   38.9700   57.0420 O.2     0  <0>0       -0.2419
      4  O2         7.2910   37.6130   56.2210 O.3     0  <0>0       -0.3911
      5  C8         6.4940   36.6790   56.7790 C.2     0  <0>0        0.2848
      6  N1         6.7490   36.5350   58.0510 N.2     0  <0>0       -0.3648
      7  C5         8.3070   37.5580   59.6650 C.3     0  <0>0        0.0988
      8  C4         9.2700   36.6440   60.1300 C.ar    0  <0>0        0.0151
      9  C1         9.7610   35.4930   59.5130 C.ar    0  <0>0        0.0036
     10  C2        10.7070   34.7980   60.2220 C.ar    0  <0>0        0.0134
     11  C3        11.0920   35.2610   61.4410 C.ar    0  <0>0        0.0635
     12  S1        10.1820   36.6550   61.6620 S.2     0  <0>0       -0.0841
     13 Br         12.3660   34.5070   62.6180 Br      0  <0>0       -0.0419
     14  C9         5.4700   35.9160   56.0450 C.ar    0  <0>0        0.0735
     15  C12        5.7920   35.1540   54.9580 C.ar    0  <0>0        0.0412
     16  S2         4.3320   34.4880   54.4710 S.2     0  <0>0       -0.0857
     17  C11        3.2450   35.2040   55.6860 C.ar    0  <0>0        0.0357
     18  C10        4.0830   35.9460   56.4400 C.ar    0  <0>0        0.0133
@<TRIPOS>BOND
     1    16    15   ar
     2    16    17   ar
     3    15    14   ar
     4    17    18   ar
     5    14    18   ar
     6    14     5    1
     7     4     5    1
     8     4     2    1
     9     5     6    2
    10     3     2    2
    11     2     1    1
    12     6     1    2
    13     1     7    1
    14     9     8   ar
    15     9    10   ar
    16     7     8    1
    17     8    12   ar
    18    10    11   ar
    19    11    12   ar
    20    11    13    1
