@<TRIPOS>MOLECULE
ZINC07505311_replica-1.pdb
 23 26 0 0 0
SMALL
GASTEIGER

@<TRIPOS>ATOM
      1  C1        -1.2270   25.9030   51.1890 C.ar    0  <0>0        0.0000
      2  C2        -0.2950   25.7420   52.2090 C.ar    0  <0>0        0.0001
      3  C3        -0.0970   26.7230   53.1360 C.ar    0  <0>0        0.0022
      4  C4        -0.8420   27.9060   53.0580 C.ar    0  <0>0        0.0266
      5  C5        -1.7900   28.0740   52.0260 C.ar    0  <0>0        0.0019
      6  C6        -1.9690   27.0400   51.0890 C.ar    0  <0>0        0.0001
      7  C7        -2.5450   29.2600   51.9380 C.2     0  <0>0       -0.0032
      8  C8        -2.3620   30.2500   52.8520 C.2     0  <0>0       -0.0082
      9  C9        -1.4440   30.1230   53.8770 C.3     0  <0>0        0.1295
     10  C10       -0.6430   28.9790   54.0510 C.2     0  <0>0        0.1254
     11  N1         0.2030   29.0060   55.0980 N.2     0  <0>0       -0.3828
     12  C11        0.2840   30.0320   55.9150 C.2     0  <0>0        0.2261
     13  S1        -0.9320   31.1520   55.2330 S.3     0  <0>0       -0.0550
     14  N2         1.0950   30.2010   57.0200 N.pl3   0  <0>0       -0.1836
     15  H7         2.0320   30.4250   56.9030 H       0  <0>0        0.1768
     16  S2         0.4700   30.0210   58.5430 S.O2    0  <0>0        0.0815
     17  O1        -0.9100   29.7220   58.3810 O.2     0  <0>0       -0.1494
     18  O2         1.3570   29.1640   59.2480 O.2     0  <0>0       -0.1494
     19  C12        0.5550   31.5940   59.3310 C.ar    0  <0>0        0.1547
     20  S3         0.5430   33.2220   58.5970 S.2     0  <0>0       -0.0665
     21  C15        0.6610   34.1770   60.1000 C.ar    0  <0>0        0.0368
     22  C14        0.7090   33.2060   61.0460 C.ar    0  <0>0        0.0089
     23  C13        0.6560   31.8830   60.6520 C.ar    0  <0>0        0.0274
@<TRIPOS>BOND
     1     6     1   ar
     2     6     5   ar
     3     1     2   ar
     4     7     5    1
     5     7     8    2
     6     5     4   ar
     7     2     3   ar
     8     8     9    1
     9     4     3   ar
    10     4    10    1
    11     9    10    1
    12     9    13    1
    13    10    11    2
    14    11    12    2
    15    13    12    1
    16    12    14    1
    17    15    14    1
    18    14    16    1
    19    17    16    2
    20    16    18    2
    21    16    19    1
    22    20    19   ar
    23    20    21   ar
    24    19    23   ar
    25    21    22   ar
    26    23    22   ar
