@<TRIPOS>MOLECULE
ZINC40722295_replica-1.pdb
 31 35 0 0 0
SMALL
GASTEIGER

@<TRIPOS>ATOM
      1  C9         3.1100   34.0430   59.9890 C.ar    0  <0>0        0.1666
      2  C10        3.2940   35.0460   59.0510 C.ar    0  <0>0       -0.0066
      3  C11        2.2010   35.6440   58.4530 C.ar    0  <0>0       -0.0032
      4  C12        0.9210   35.2430   58.7880 C.ar    0  <0>0        0.0029
      5  C13        0.7290   34.2430   59.7230 C.ar    0  <0>0        0.0400
      6  C14        1.8210   33.6360   60.3220 C.ar    0  <0>0        0.1720
      7  C16        4.6880   35.4860   58.6840 C.3     0  <0>0       -0.0509
      8  N1         5.3820   35.9700   59.8850 N.4     0  <0>0        0.3891
      9  H18        4.9140   36.7920   60.2350 H       0  <0>0       -0.0838
     10  H34        5.3710   35.2500   60.5920 H       0  <0>0       -0.0838
     11  C17        6.7720   36.3030   59.5470 C.3     0  <0>0       -0.0453
     12  C22        7.7160   35.6170   60.5360 C.3     0  <0>0       -0.0195
     13  C21        9.1640   35.9640   60.1840 C.3     0  <0>0       -0.0020
     14  C20        9.3580   37.4800   60.2600 C.3     0  <0>0       -0.0001
     15  C23        9.4740   35.4820   58.7650 C.3     0  <0>0       -0.0001
     16  C19        8.4140   38.1660   59.2710 C.3     0  <0>0       -0.0020
     17  C18        6.9660   37.8190   59.6230 C.3     0  <0>0       -0.0195
     18  C25        8.7230   37.6840   57.8520 C.3     0  <0>0       -0.0001
     19  C24        8.5300   36.1680   57.7760 C.3     0  <0>0       -0.0020
     20  C26        7.0820   35.8200   58.1280 C.3     0  <0>0       -0.0195
     21  O1         4.1840   33.4540   60.5790 O.3     0  <0>0       -0.4680
     22  C8         4.5340   32.1440   60.1310 C.3     0  <0>0        0.2318
     23  C7         6.0010   32.1050   59.7890 C.ar    0  <0>0        0.0172
     24  C2         6.4050   32.1250   58.4670 C.ar    0  <0>0       -0.0223
     25  C1         5.3770   32.1880   57.3670 C.3     0  <0>0        0.0308
     26  C3         7.7510   32.0940   58.1550 C.ar    0  <0>0       -0.0045
     27  C4         8.6930   32.0360   59.1640 C.ar    0  <0>0       -0.0003
     28  C5         8.2900   32.0100   60.4860 C.ar    0  <0>0       -0.0002
     29  C6         6.9440   32.0420   60.7990 C.ar    0  <0>0       -0.0010
     30  O2         1.6340   32.6480   61.2380 O.3     0  <0>0       -0.4684
     31  C15        0.6770   32.8930   62.2710 C.3     0  <0>0        0.2526
@<TRIPOS>BOND
     1    25    24    1
     2    19    18    1
     3    19    20    1
     4    19    15    1
     5    18    16    1
     6    20    11    1
     7    26    24   ar
     8    26    27   ar
     9     3     4   ar
    10     3     2   ar
    11    24    23   ar
    12     7     2    1
    13     7     8    1
    14    15    13    1
    15     4     5   ar
    16     2     1   ar
    17    27    28   ar
    18    16    17    1
    19    16    14    1
    20    11    17    1
    21    11     8    1
    22    11    12    1
    23     5     6   ar
    24    23    22    1
    25    23    29   ar
    26     8     9    1
    27     8    10    1
    28     1     6   ar
    29     1    21    1
    30    22    21    1
    31    13    14    1
    32    13    12    1
    33     6    30    1
    34    28    29   ar
    35    30    31    1
