@<TRIPOS>MOLECULE
ZINC05682072_replica-1.pdb
 28 32 0 0 0
SMALL
GASTEIGER

@<TRIPOS>ATOM
      1  C7        -0.0020   28.9490   55.3180 C.2     0  <0>0        0.0108
      2  C8         0.0130   30.2920   55.3470 C.2     0  <0>0        0.0146
      3  C9         0.3680   30.7710   56.6840 C.2     0  <0>0        0.0676
      4  C10        0.5690   29.7430   57.5130 C.2     0  <0>0        0.0245
      5  C11        0.3510   28.4790   56.7120 C.3     0  <0>0        0.1458
      6  N1         0.4740   32.1210   57.0460 N.pl3   0  <0>0       -0.1951
      7  N3        -0.4240   32.8500   57.8390 N.pl3   0  <0>0       -0.0442
      8  N2        -0.0020   34.0580   57.9650 N.2     0  <0>0       -0.1458
      9  C23        1.1550   34.2240   57.2840 C.2     0  <0>0        0.1035
     10  C18        1.4780   32.9930   56.6880 C.3     0  <0>0        0.1589
     11  C22        2.0050   35.3210   57.0930 C.2     0  <0>0        0.0184
     12  C19        2.6310   32.8750   55.9190 C.2     0  <0>0        0.0011
     13  C20        3.4500   33.9680   55.7470 C.2     0  <0>0       -0.0025
     14  C21        3.1320   35.1860   56.3360 C.2     0  <0>0        0.0011
     15  C4        -0.3080   28.0990   54.1550 C.ar    0  <0>0       -0.0011
     16  C3        -1.0830   28.5990   53.1050 C.ar    0  <0>0       -0.0002
     17  C2        -1.3670   27.7970   52.0190 C.ar    0  <0>0       -0.0000
     18  C1        -0.8850   26.5000   51.9680 C.ar    0  <0>0       -0.0000
     19  C6        -0.1180   25.9980   53.0040 C.ar    0  <0>0       -0.0000
     20  C5         0.1780   26.7910   54.0940 C.ar    0  <0>0       -0.0002
     21  C12       -0.7840   27.6780   57.2970 C.ar    0  <0>0        0.0096
     22  C17       -2.0550   28.2160   57.3530 C.ar    0  <0>0       -0.0014
     23  C16       -3.0940   27.4810   57.8900 C.ar    0  <0>0       -0.0002
     24  C15       -2.8630   26.2060   58.3700 C.ar    0  <0>0       -0.0000
     25  C14       -1.5920   25.6660   58.3130 C.ar    0  <0>0       -0.0002
     26  C13       -0.5530   26.4000   57.7720 C.ar    0  <0>0       -0.0014
     27  O1         1.5470   27.6970   56.6840 O.3     0  <0>0       -0.3749
     28  H13        1.4780   26.8560   57.1560 H       0  <0>0        0.2115
@<TRIPOS>BOND
     1    18    17   ar
     2    18    19   ar
     3    17    16   ar
     4    19    20   ar
     5    16    15   ar
     6    20    15   ar
     7    15     1    1
     8     1     2    2
     9     1     5    1
    10     2     3    1
    11    13    12    2
    12    13    14    1
    13    12    10    1
    14    14    11    2
    15    27     5    1
    16    27    28    1
    17     3     6    1
    18     3     4    2
    19    10     6    1
    20    10     9    1
    21     5    21    1
    22     5     4    1
    23     6     7    1
    24    11     9    1
    25     9     8    2
    26    21    22   ar
    27    21    26   ar
    28    22    23   ar
    29    26    25   ar
    30     7     8    1
    31    23    24   ar
    32    25    24   ar
