@<TRIPOS>MOLECULE
ZINC63654870_replica-1.pdb
 32 35 0 0 0
SMALL
GASTEIGER

@<TRIPOS>ATOM
      1  C8         0.3490   28.0490   55.1250 C.3     0  <0>0        0.1061
      2  C9        -0.4950   28.8610   54.1680 C.3     0  <0>0        0.0930
      3  C10       -0.8190   27.9970   53.1270 C.ar    0  <0>0        0.0026
      4  C11       -1.5770   28.1690   51.9480 C.ar    0  <0>0       -0.0022
      5  C12       -1.7310   27.1280   51.0890 C.ar    0  <0>0       -0.0002
      6  C13       -1.1570   25.8810   51.3410 C.ar    0  <0>0        0.0012
      7  C14       -0.4170   25.6460   52.4530 C.ar    0  <0>0        0.0140
      8  C15       -0.2110   26.6850   53.3970 C.ar    0  <0>0        0.0417
      9  N1         0.4570   26.7100   54.5360 N.pl3   0  <0>0       -0.3299
     10  H25        0.9410   25.9640   54.9220 H       0  <0>0        0.1471
     11  S1        -0.9430   30.4510   54.3290 S.3     0  <0>0       -0.1328
     12  C16        0.4160   31.1960   55.2710 C.3     0  <0>0        0.0791
     13  C17       -0.1560   32.0260   56.4210 C.3     0  <0>0        0.1010
     14  N2         0.2600   33.4230   56.2710 N.am    0  <0>0       -0.3032
     15  C18        0.3430   34.2220   57.3530 C.2     0  <0>0        0.2269
     16  O2         0.0730   33.7850   58.4510 O.2     0  <0>0       -0.2747
     17  H17        0.4760   33.7720   55.3920 H       0  <0>0        0.1495
     18  C19        0.7700   35.6590   57.1970 C.3     0  <0>0        0.1113
     19  C20        2.2610   35.7620   57.3790 C.ar    0  <0>0       -0.0131
     20  C25        3.0960   35.7400   56.2770 C.ar    0  <0>0       -0.0038
     21  C24        4.4650   35.8380   56.4430 C.ar    0  <0>0       -0.0003
     22  C23        5.0000   35.9510   57.7130 C.ar    0  <0>0       -0.0000
     23  C22        4.1660   35.9700   58.8160 C.ar    0  <0>0       -0.0003
     24  C21        2.7970   35.8750   58.6490 C.ar    0  <0>0       -0.0038
     25  C5        -0.3230   27.9700   56.4720 C.ar    0  <0>0       -0.0032
     26  C4        -1.7020   28.0230   56.5580 C.ar    0  <0>0        0.0005
     27  C3        -2.3210   27.9500   57.7920 C.ar    0  <0>0        0.0366
     28  C2        -1.5570   27.8240   58.9430 C.ar    0  <0>0        0.1387
     29  C7        -0.1740   27.7770   58.8540 C.ar    0  <0>0        0.0366
     30  C6         0.4400   27.8440   57.6180 C.ar    0  <0>0        0.0005
     31  O1        -2.1630   27.7530   60.1580 O.3     0  <0>0       -0.4714
     32  C1        -1.6040   28.5430   61.2090 C.3     0  <0>0        0.2525
@<TRIPOS>BOND
     1     5     6   ar
     2     5     4   ar
     3     6     7   ar
     4     4     3   ar
     5     7     8   ar
     6     3     8   ar
     7     3     2    1
     8     8     9    1
     9     2    11    1
    10     2     1    1
    11    11    12    1
    12     9    10    1
    13     9     1    1
    14     1    25    1
    15    12    13    1
    16    17    14    1
    17    14    13    1
    18    14    15   am
    19    20    21   ar
    20    20    19   ar
    21    21    22   ar
    22    25    26   ar
    23    25    30   ar
    24    26    27   ar
    25    18    15    1
    26    18    19    1
    27    15    16    2
    28    19    24   ar
    29    30    29   ar
    30    22    23   ar
    31    27    28   ar
    32    24    23   ar
    33    29    28   ar
    34    28    31    1
    35    31    32    1
