@<TRIPOS>MOLECULE
ZINC00882446_replica-1.pdb
 30 34 0 0 0
SMALL
GASTEIGER

@<TRIPOS>ATOM
      1  C12        8.5000   36.2480   59.1490 C.2     0  <0>0        0.0914
      2  C13        8.0540   36.0260   57.8180 C.3     0  <0>0        0.1144
      3  C14        7.5810   34.7980   57.1880 C.2     0  <0>0       -0.0038
      4  C15        7.2060   34.8370   55.8880 C.2     0  <0>0        0.0331
      5  S2         7.4660   36.5400   55.4300 S.3     0  <0>0       -0.0718
      6  C16        8.0690   37.1580   56.9790 C.2     0  <0>0        0.0950
      7  N2         8.4720   38.3340   57.4170 N.2     0  <0>0       -0.2414
      8  C17        8.8760   38.4800   58.6640 C.3     0  <0>0        0.2511
      9  N3         8.8880   37.4620   59.5070 N.2     0  <0>0       -0.2417
     10  S1         8.5420   34.9220   60.3090 S.3     0  <0>0       -0.0891
     11  C11       10.3150   34.8750   60.6690 C.3     0  <0>0        0.1486
     12  C10       10.6250   33.6630   61.5100 C.2     0  <0>0        0.2407
     13  N1        11.7730   33.6070   62.2130 N.am    0  <0>0       -0.2582
     14  C4        12.1050   32.4580   62.9440 C.ar    0  <0>0        0.0498
     15  C9        12.6960   34.7500   62.2300 C.3     0  <0>0        0.0986
     16  C3        11.1300   31.4940   63.1700 C.ar    0  <0>0        0.0146
     17  C5        13.3900   32.2760   63.4350 C.ar    0  <0>0       -0.0084
     18  C2        11.4380   30.3540   63.8840 C.ar    0  <0>0        0.0013
     19  C1        12.7170   30.1730   64.3760 C.ar    0  <0>0       -0.0002
     20  C6        13.6930   31.1270   64.1460 C.ar    0  <0>0       -0.0030
     21  C7        14.4690   33.3060   63.2190 C.3     0  <0>0        0.0294
     22  C8        14.1180   34.2070   62.0360 C.3     0  <0>0        0.0266
     23  O1         9.8410   32.7390   61.5540 O.2     0  <0>0       -0.2736
     24  C18        7.5140   33.5320   57.9550 C.ar    0  <0>0       -0.0026
     25  C23        8.6030   32.6610   57.9620 C.ar    0  <0>0        0.0020
     26  C22        8.5360   31.4830   58.6780 C.ar    0  <0>0        0.0296
     27  C21        7.3900   31.1660   59.3900 C.ar    0  <0>0        0.1401
     28  C20        6.3060   32.0290   59.3850 C.ar    0  <0>0        0.0296
     29  F1         7.3300   30.0120   60.0890 F       0  <0>0       -0.2042
     30  C19        6.3650   33.2100   58.6750 C.ar    0  <0>0        0.0020
@<TRIPOS>BOND
     1     5     4    1
     2     5     6    1
     3     4     3    2
     4     6     7    2
     5     6     2    1
     6     3     2    1
     7     3    24    1
     8     7     8    1
     9     2     1    1
    10    24    25   ar
    11    24    30   ar
    12    25    26   ar
    13     8     9    1
    14    30    28   ar
    15    26    27   ar
    16     1     9    2
    17     1    10    1
    18    28    27   ar
    19    27    29    1
    20    10    11    1
    21    11    12    1
    22    12    23    2
    23    12    13   am
    24    22    15    1
    25    22    21    1
    26    13    15    1
    27    13    14    1
    28    14    16   ar
    29    14    17   ar
    30    16    18   ar
    31    21    17    1
    32    17    20   ar
    33    18    19   ar
    34    20    19   ar
