@<TRIPOS>MOLECULE
ZINC50491758_replica-1.pdb
 19 20 0 0 0
SMALL
GASTEIGER

@<TRIPOS>ATOM
      1  C9        -1.1380   29.5680   56.5630 C.3     0  <0>0        0.0734
      2  C10       -2.4700   28.8060   56.4020 C.3     0  <0>0        0.0251
      3  C11       -2.3610   27.6330   57.4080 C.3     0  <0>0        0.0024
      4  C12       -1.6370   28.2830   58.6130 C.3     0  <0>0        0.0024
      5  C13       -0.6080   29.2350   57.9690 C.3     0  <0>0        0.0251
      6  O1        -0.2040   29.1340   55.5730 O.3     0  <0>0       -0.3631
      7  C8        -0.7780   28.3220   54.5470 C.3     0  <0>0        0.1148
      8  C3         0.2070   27.2160   54.1610 C.3     0  <0>0        0.0272
      9  C4        -0.4080   26.3470   53.0630 C.3     0  <0>0        0.0024
     10  C5        -0.7100   27.2110   51.8370 C.3     0  <0>0        0.0002
     11  C6        -1.6950   28.3170   52.2230 C.3     0  <0>0        0.0025
     12  C7        -1.0790   29.1870   53.3210 C.3     0  <0>0        0.0295
     13  C2         0.5090   26.3520   55.3860 C.3     0  <0>0        0.0024
     14  C1         0.6090   24.8850   54.9640 C.3     0  <0>0        0.0001
     15  C14       -1.3760   31.0740   56.4350 C.3     0  <0>0       -0.0539
     16  N1        -0.4490   31.7920   57.3190 N.4     0  <0>0        0.3839
     17  C15        0.4020   32.6830   56.5190 C.3     0  <0>0       -0.1055
     18  H26       -0.9740   32.3380   57.9860 H       0  <0>0       -0.0845
     19  H30        0.1300   31.1280   57.8120 H       0  <0>0       -0.0845
@<TRIPOS>BOND
     1    10    11    1
     2    10     9    1
     3    11    12    1
     4     9     8    1
     5    12     7    1
     6     8     7    1
     7     8    13    1
     8     7     6    1
     9    14    13    1
    10     6     1    1
    11     2     1    1
    12     2     3    1
    13    15     1    1
    14    15    16    1
    15    17    16    1
    16     1     5    1
    17    16    19    1
    18    16    18    1
    19     3     4    1
    20     5     4    1
