@<TRIPOS>MOLECULE
ZINC16183355_replica-1.pdb
 29 32 0 0 0
SMALL
GASTEIGER

@<TRIPOS>ATOM
      1  N1         5.3420   35.4630   58.1620 N.am    0  <0>0       -0.1550
      2  C7         6.5310   35.5550   58.7920 C.2     0  <0>0        0.2732
      3  O1         6.7600   35.3050   59.9640 O.2     0  <0>0       -0.2678
      4  C8         7.4910   36.0170   57.7830 C.2     0  <0>0        0.0817
      5  C9         8.8520   36.2630   57.9560 C.2     0  <0>0        0.0436
      6  C20        6.7080   36.1570   56.5500 C.2     0  <0>0        0.1749
      7  N2         5.4820   35.8270   56.8230 N.2     0  <0>0       -0.1671
      8  C10        9.4430   36.0760   59.2120 C.ar    0  <0>0        0.1456
      9  O2        10.0730   34.9570   59.6330 O.2     0  <0>0       -0.4535
     10  C13       10.5180   35.1410   60.8880 C.ar    0  <0>0        0.1453
     11  C12       10.1620   36.4090   61.3010 C.ar    0  <0>0        0.0406
     12  C11        9.4830   37.0080   60.2430 C.ar    0  <0>0        0.0406
     13  C14       11.2610   34.1520   61.6900 C.ar    0  <0>0        0.0346
     14  C19       10.6840   32.9140   61.9890 C.ar    0  <0>0        0.0035
     15  C18       11.3840   31.9940   62.7400 C.ar    0  <0>0        0.0068
     16  C17       12.6560   32.2930   63.1980 C.ar    0  <0>0        0.0346
     17  C16       13.2340   33.5180   62.9060 C.ar    0  <0>0        0.0068
     18 Br         13.6080   31.0250   64.2270 Br      0  <0>0       -0.0490
     19  C15       12.5470   34.4450   62.1520 C.ar    0  <0>0        0.0035
     20  C21        7.2320   36.6030   55.2090 C.3     0  <0>0        0.4365
     21  F1         7.1220   37.9950   55.1050 F       0  <0>0       -0.1643
     22  F2         8.5750   36.2310   55.0850 F       0  <0>0       -0.1643
     23  F3         6.4840   36.0010   54.1910 F       0  <0>0       -0.1643
     24  C4         4.1430   35.0580   58.7630 C.ar    0  <0>0        0.0771
     25  C3         2.9830   35.7940   58.5670 C.ar    0  <0>0        0.0168
     26  C2         1.8030   35.3920   59.1600 C.ar    0  <0>0        0.0013
     27  C1         1.7760   34.2580   59.9510 C.ar    0  <0>0        0.0001
     28  C6         2.9300   33.5220   60.1470 C.ar    0  <0>0        0.0013
     29  C5         4.1130   33.9170   59.5530 C.ar    0  <0>0        0.0168
@<TRIPOS>BOND
     1    23    20    1
     2    22    20    1
     3    21    20    1
     4    20     6    1
     5     6     7    2
     6     6     4    1
     7     7     1    1
     8     4     5    2
     9     4     2    1
    10     5     8    1
    11     1    24    1
    12     1     2   am
    13    25    24   ar
    14    25    26   ar
    15    24    29   ar
    16     2     3    2
    17    26    27   ar
    18     8     9   ar
    19     8    12   ar
    20    29    28   ar
    21     9    10   ar
    22    27    28   ar
    23    12    11   ar
    24    10    11   ar
    25    10    13    1
    26    13    14   ar
    27    13    19   ar
    28    14    15   ar
    29    19    17   ar
    30    15    16   ar
    31    17    16   ar
    32    16    18    1
