@<TRIPOS>MOLECULE
ZINC40140621_replica-1.pdb
 28 31 0 0 0
SMALL
GASTEIGER

@<TRIPOS>ATOM
      1  C9         0.3310   30.4850   55.8530 C.ar    0  <0>0        0.1518
      2  C10       -0.4950   29.7470   56.7320 C.ar    0  <0>0        0.0152
      3  C11       -0.8990   28.6640   56.0350 C.ar    0  <0>0        0.0581
      4  N2        -0.3400   28.7550   54.7980 N.ar    0  <0>0       -0.2338
      5  N3         0.3670   29.8240   54.7110 N.ar    0  <0>0       -0.1611
      6  C18       -1.7960   27.7980   56.8900 C.3     0  <0>0        0.0459
      7  C19       -1.5450   28.2700   58.3400 C.3     0  <0>0        0.0111
      8  C20       -1.0730   29.7260   58.1260 C.3     0  <0>0        0.0297
      9  C8         1.0170   31.7590   56.1530 C.2     0  <0>0        0.2687
     10  N1         2.3630   31.8030   56.2010 N.am    0  <0>0       -0.2794
     11  H7         2.8830   31.0160   55.9750 H       0  <0>0        0.1552
     12  O1         0.3670   32.7650   56.3560 O.2     0  <0>0       -0.2681
     13  C7         3.0100   32.9850   56.5770 C.ar    0  <0>0        0.0467
     14  C2         3.3450   33.2000   57.9080 C.ar    0  <0>0       -0.0061
     15  C1         3.0110   32.1620   58.9470 C.3     0  <0>0        0.0324
     16  C3         3.9880   34.3660   58.2770 C.ar    0  <0>0        0.0266
     17  C4         4.2950   35.3210   57.3230 C.ar    0  <0>0        0.1399
     18  C5         3.9560   35.1110   55.9970 C.ar    0  <0>0        0.0309
     19  F3         4.9230   36.4600   57.6850 F       0  <0>0       -0.2042
     20  C6         3.3130   33.9470   55.6230 C.ar    0  <0>0        0.0167
     21  C12       -0.5130   27.8220   53.7670 C.ar    0  <0>0        0.0848
     22  C17       -1.2220   28.1690   52.6260 C.ar    0  <0>0        0.0511
     23  C16       -1.3860   27.2480   51.6070 C.ar    0  <0>0        0.1689
     24  C15       -0.8530   25.9740   51.7330 C.ar    0  <0>0        0.1675
     25  F1        -2.0720   27.5870   50.4940 F       0  <0>0       -0.2017
     26  C14       -0.1510   25.6240   52.8740 C.ar    0  <0>0        0.0335
     27  F2        -1.0180   25.0730   50.7400 F       0  <0>0       -0.2018
     28  C13        0.0200   26.5450   53.8890 C.ar    0  <0>0        0.0216
@<TRIPOS>BOND
     1    25    23    1
     2    27    24    1
     3    23    24   ar
     4    23    22   ar
     5    24    26   ar
     6    22    21   ar
     7    26    28   ar
     8    21    28   ar
     9    21     4    1
    10     5     4   ar
    11     5     1   ar
    12     4     3   ar
    13    20    18   ar
    14    20    13   ar
    15     1     9    1
    16     1     2   ar
    17    11    10    1
    18    18    17   ar
    19     3     2   ar
    20     3     6    1
    21     9    10   am
    22     9    12    2
    23    10    13    1
    24    13    14   ar
    25     2     8    1
    26     6     7    1
    27    17    19    1
    28    17    16   ar
    29    14    16   ar
    30    14    15    1
    31     8     7    1
