@<TRIPOS>MOLECULE
ZINC46813700_replica-1.pdb
 22 24 0 0 0
SMALL
GASTEIGER

@<TRIPOS>ATOM
      1  C1        -1.2200   27.8870   52.2130 C.ar    0  <0>0        0.0309
      2  C2        -1.2550   28.7400   53.2990 C.ar    0  <0>0        0.0181
      3  C3        -0.6940   28.3500   54.5090 C.ar    0  <0>0        0.0649
      4  C4        -0.1010   27.1030   54.6300 C.ar    0  <0>0       -0.0050
      5  C5        -0.0670   26.2530   53.5370 C.ar    0  <0>0        0.0266
      6  C6        -0.6250   26.6430   52.3330 C.ar    0  <0>0        0.1399
      7  F1        -0.5890   25.8080   51.2710 F       0  <0>0       -0.2042
      8  C7         0.5070   26.6440   55.9290 C.3     0  <0>0        0.0295
      9  C8         0.8270   27.8400   56.8230 C.3     0  <0>0        0.0281
     10  C9        -0.4230   28.7240   56.9370 C.3     0  <0>0        0.1162
     11  N1        -0.7360   29.2330   55.5950 N.pl3   0  <0>0       -0.1909
     12  S1        -1.1320   30.8260   55.3710 S.O2    0  <0>0        0.0766
     13  O1        -0.8450   31.1280   54.0120 O.2     0  <0>0       -0.1497
     14  O2        -2.4230   31.0060   55.9350 O.2     0  <0>0       -0.1497
     15  C10       -0.0180   31.7820   56.3460 C.ar    0  <0>0        0.1278
     16  C15       -0.4700   32.4150   57.4880 C.ar    0  <0>0        0.0521
     17  C14        0.4060   33.1620   58.2570 C.ar    0  <0>0        0.1687
     18  C13        1.7330   33.2820   57.8750 C.ar    0  <0>0        0.1675
     19  F2        -0.0330   33.7770   59.3770 F       0  <0>0       -0.2018
     20  C12        2.1810   32.6510   56.7270 C.ar    0  <0>0        0.0333
     21  F3         2.5890   34.0130   58.6220 F       0  <0>0       -0.2018
     22  C11        1.3050   31.9020   55.9640 C.ar    0  <0>0        0.0226
@<TRIPOS>BOND
     1     7     6    1
     2     1     6   ar
     3     1     2   ar
     4     6     5   ar
     5     2     3   ar
     6     5     4   ar
     7    13    12    2
     8     3     4   ar
     9     3    11    1
    10     4     8    1
    11    12    11    1
    12    12    14    2
    13    12    15    1
    14    11    10    1
    15     8     9    1
    16    22    15   ar
    17    22    20   ar
    18    15    16   ar
    19    20    18   ar
    20     9    10    1
    21    16    17   ar
    22    18    17   ar
    23    18    21    1
    24    17    19    1
