@<TRIPOS>MOLECULE
ZINC21116064_replica-1.pdb
 26 29 0 0 0
SMALL
GASTEIGER

@<TRIPOS>ATOM
      1  C8         9.0280   34.2560   60.6630 C.ar    0  <0>0        0.0365
      2  C9         8.3440   33.2820   59.9320 C.ar    0  <0>0        0.0044
      3  C10        7.1670   33.6010   59.2910 C.ar    0  <0>0        0.0156
      4  C11        6.6580   34.8930   59.3710 C.ar    0  <0>0        0.0612
      5  C12        7.3370   35.8670   60.0990 C.ar    0  <0>0        0.0712
      6  C13        8.5130   35.5510   60.7460 C.ar    0  <0>0        0.0157
      7 Cl          6.6980   37.4780   60.1960 Cl      0  <0>0       -0.0809
      8  N2         5.4650   35.2140   58.7220 N.am    0  <0>0       -0.2797
      9  C14        4.2840   34.9200   59.2990 C.2     0  <0>0        0.2510
     10  O1         4.2530   34.4690   60.4280 O.2     0  <0>0       -0.2698
     11  H8         5.4890   35.7050   57.7380 H       0  <0>0        0.1552
     12  C15        3.0230   35.1450   58.5600 C.ar    0  <0>0        0.0728
     13  C19        1.8080   34.6900   59.0750 C.ar    0  <0>0        0.1034
     14  N3         0.6850   34.8910   58.4180 N.ar    0  <0>0       -0.2422
     15  C18        0.6580   35.5210   57.2600 C.ar    0  <0>0        0.0989
     16  C17        1.8200   36.0030   56.6830 C.ar    0  <0>0        0.0208
     17  C16        3.0260   35.8220   57.3350 C.ar    0  <0>0        0.0077
     18  C7        10.2900   33.9150   61.3500 C.2     0  <0>0        0.1572
     19  N1        10.6550   32.7710   61.8860 N.2     0  <0>0       -0.3988
     20  C5        11.8500   32.6020   62.4860 C.2     0  <0>0        0.1238
     21  C4        12.6940   33.7360   62.5060 C.3     0  <0>0        0.1282
     22  C6        12.3620   31.4330   63.0990 C.2     0  <0>0        0.0288
     23  C3        13.9400   33.7220   63.0850 C.2     0  <0>0       -0.0082
     24  S1        11.7110   34.9540   61.6640 S.3     0  <0>0       -0.0716
     25  C2        14.4030   32.5580   63.6700 C.2     0  <0>0       -0.0032
     26  C1        13.5980   31.4280   63.6670 C.2     0  <0>0        0.0020
@<TRIPOS>BOND
     1    16    15   ar
     2    16    17   ar
     3    15    14   ar
     4    17    12   ar
     5    11     8    1
     6    14    13   ar
     7    12    13   ar
     8    12     9    1
     9     8     9   am
    10     8     4    1
    11     3     4   ar
    12     3     2   ar
    13     9    10    2
    14     4     5   ar
    15     2     1   ar
    16     5     7    1
    17     5     6   ar
    18     1     6   ar
    19     1    18    1
    20    18    24    1
    21    18    19    2
    22    24    21    1
    23    19    20    2
    24    20    21    1
    25    20    22    1
    26    21    23    1
    27    23    25    2
    28    22    26    2
    29    26    25    1
