@<TRIPOS>MOLECULE
ZINC66756178_replica-1.pdb
 26 27 0 0 0
SMALL
GASTEIGER

@<TRIPOS>ATOM
      1  C8         0.7820   31.3960   56.5220 C.2     0  <0>0        0.2404
      2  O3         0.3410   32.5030   56.2920 O.2     0  <0>0       -0.2733
      3  N2         0.6830   30.4250   55.5930 N.am    0  <0>0       -0.3027
      4  H15        1.0910   29.5600   55.7500 H       0  <0>0        0.1495
      5  C4         1.4400   31.1070   57.8460 C.3     0  <0>0        0.1510
      6  N1         1.0600   32.1370   58.8160 N.am    0  <0>0       -0.2640
      7  C3         2.0120   32.8410   59.4600 C.2     0  <0>0        0.4020
      8  O2         3.1870   32.6210   59.2360 O.2     0  <0>0       -0.2264
      9  H7         0.1230   32.3130   58.9940 H       0  <0>0        0.1532
     10  O1         1.6640   33.7880   60.3510 O.3     0  <0>0       -0.4347
     11  C2         0.4140   33.6210   61.0200 C.3     0  <0>0        0.2102
     12  C1         0.6320   32.8470   62.3230 C.3     0  <0>0        0.0513
     13  C5         0.9860   29.7370   58.3530 C.3     0  <0>0        0.0270
     14  C6         2.1580   29.0320   59.0380 C.3     0  <0>0        0.0022
     15  C7        -0.1560   29.9170   59.3560 C.3     0  <0>0        0.0022
     16  C9        -0.0420   30.6780   54.3440 C.3     0  <0>0        0.0934
     17  C10       -1.2520   29.7450   54.2600 C.3     0  <0>0        0.0370
     18  C12       -2.1940   29.6980   55.4650 C.3     0  <0>0        0.0061
     19  C11       -2.6370   30.3900   54.1750 C.3     0  <0>0        0.0061
     20  C13       -1.0320   28.4630   53.4980 C.ar    0  <0>0       -0.0211
     21  C18       -0.2780   27.4490   54.0570 C.ar    0  <0>0       -0.0034
     22  C17       -0.0800   26.2710   53.3610 C.ar    0  <0>0        0.0111
     23  C16       -0.6270   26.1120   52.1010 C.ar    0  <0>0        0.0577
     24  C15       -1.3780   27.1310   51.5390 C.ar    0  <0>0        0.0111
     25 Cl         -0.3730   24.6360   51.2230 Cl      0  <0>0       -0.0822
     26  C14       -1.5790   28.3050   52.2380 C.ar    0  <0>0       -0.0034
@<TRIPOS>BOND
     1    25    23    1
     2    24    23   ar
     3    24    26   ar
     4    23    22   ar
     5    26    20   ar
     6    22    21   ar
     7    20    21   ar
     8    20    17    1
     9    19    17    1
    10    19    18    1
    11    17    16    1
    12    17    18    1
    13    16     3    1
    14     3     4    1
    15     3     1   am
    16     2     1    2
    17     1     5    1
    18     5    13    1
    19     5     6    1
    20    13    14    1
    21    13    15    1
    22     6     9    1
    23     6     7   am
    24     8     7    2
    25     7    10    1
    26    10    11    1
    27    11    12    1
