@<TRIPOS>MOLECULE
ZINC43955018_replica-1.pdb
 26 28 0 0 0
SMALL
GASTEIGER

@<TRIPOS>ATOM
      1  N1        -1.2700   29.1880   54.3020 N.pl3   0  <0>0       -0.3058
      2  C7        -0.4720   30.4190   54.2360 C.3     0  <0>0        0.0909
      3  C8         0.3140   30.5670   55.5430 C.3     0  <0>0        0.0229
      4  C9        -0.6550   30.5080   56.7260 C.3     0  <0>0        0.0209
      5  C10       -1.3650   29.1530   56.7400 C.3     0  <0>0        0.0229
      6  C11       -2.1740   28.9920   55.4440 C.3     0  <0>0        0.0909
      7  C12        0.1220   30.6910   58.0310 C.3     0  <0>0        0.0915
      8  N2         1.3250   31.4880   57.7760 N.3     0  <0>0       -0.1794
      9  H16        2.0720   31.0980   57.2960 H       0  <0>0        0.1488
     10  S1         1.4090   33.0540   58.3090 S.O2    0  <0>0        0.0607
     11  O1         0.0940   33.5860   58.2160 O.2     0  <0>0       -0.1530
     12  O2         2.1370   33.0290   59.5280 O.2     0  <0>0       -0.1530
     13  C13        2.3960   33.9450   57.1520 C.ar    0  <0>0        0.1281
     14  C18        2.6530   35.2890   57.3540 C.ar    0  <0>0        0.0531
     15  C17        3.4310   35.9880   56.4490 C.ar    0  <0>0        0.0080
     16 Br          1.9460   36.1700   58.8710 Br      0  <0>0       -0.0476
     17  C16        3.9430   35.3450   55.3380 C.ar    0  <0>0        0.0006
     18  C15        3.6820   34.0030   55.1340 C.ar    0  <0>0        0.0014
     19  C14        2.9080   33.3030   56.0410 C.ar    0  <0>0        0.0204
     20  C5        -1.1770   28.2240   53.2930 C.ar    0  <0>0        0.0757
     21  C4        -1.8270   28.4190   52.0800 C.ar    0  <0>0        0.1533
     22  C3        -1.7310   27.4630   51.0850 C.ar    0  <0>0        0.0309
     23  F1        -2.5510   29.5410   51.8730 F       0  <0>0       -0.2029
     24  C2        -0.9890   26.3160   51.2970 C.ar    0  <0>0        0.0024
     25  C1        -0.3420   26.1190   52.5020 C.ar    0  <0>0        0.0014
     26  C6        -0.4340   27.0690   53.5000 C.ar    0  <0>0        0.0168
@<TRIPOS>BOND
     1    22    24   ar
     2    22    21   ar
     3    24    25   ar
     4    23    21    1
     5    21    20   ar
     6    25    26   ar
     7    20    26   ar
     8    20     1    1
     9     2     1    1
    10     2     3    1
    11     1     6    1
    12    18    17   ar
    13    18    19   ar
    14    17    15   ar
    15     6     5    1
    16     3     4    1
    17    19    13   ar
    18    15    14   ar
    19     4     5    1
    20     4     7    1
    21    13    14   ar
    22    13    10    1
    23     9     8    1
    24    14    16    1
    25     8     7    1
    26     8    10    1
    27    11    10    2
    28    10    12    2
