@<TRIPOS>MOLECULE
ZINC13302310_replica-1.pdb
 23 25 0 0 0
SMALL
GASTEIGER

@<TRIPOS>ATOM
      1  C4        12.0410   34.0060   62.4530 C.ar    0  <0>0       -0.0224
      2  C5        11.9960   35.3870   62.3870 C.ar    0  <0>0       -0.0046
      3  C6        10.9610   36.0300   61.7310 C.ar    0  <0>0       -0.0045
      4  C7         9.9480   35.2990   61.1310 C.ar    0  <0>0       -0.0200
      5  C8        10.0140   33.9100   61.1770 C.ar    0  <0>0        0.0304
      6  C9        11.0500   33.2600   61.8490 C.ar    0  <0>0       -0.0018
      7  C10        8.9650   33.1270   60.4970 C.2     0  <0>0        0.1727
      8  O1         8.7160   31.9840   60.7820 O.2     0  <0>0       -0.2913
      9  C11        8.2100   33.8700   59.4040 C.3     0  <0>0        0.0700
     10  C12        7.6640   35.1530   60.0460 C.3     0  <0>0        0.0216
     11  C13        8.8120   36.0530   60.4700 C.3     0  <0>0        0.0199
     12  C14        9.4140   36.8010   59.2790 C.3     0  <0>0        0.0041
     13  C15        8.3410   37.5450   58.4920 C.3     0  <0>0        0.0009
     14  C16        7.3120   36.5440   57.9720 C.3     0  <0>0        0.0107
     15  C17        6.6440   35.8150   59.1340 C.3     0  <0>0        0.0945
     16  C18        5.7430   36.7890   59.9030 C.3     0  <0>0        0.0113
     17  C20        8.3310   37.0760   61.5140 C.3     0  <0>0        0.0044
     18  C19        5.7120   34.7720   58.5430 C.2     0  <0>0        0.3638
     19  O2         5.7110   34.5660   57.3530 O.co2   0  <0>0       -0.2457
     20  O3         4.8870   34.0780   59.3450 O.co2   0  <0>0       -0.2457
     21  C2        13.1670   33.3180   63.1790 C.3     0  <0>0        0.0224
     22  C1        13.0180   31.8030   63.0330 C.3     0  <0>0        0.0047
     23  C3        14.5040   33.7600   62.5800 C.3     0  <0>0        0.0047
@<TRIPOS>BOND
     1    19    18   ar
     2    14    13    1
     3    14    15    1
     4    13    12    1
     5    18    15    1
     6    18    20   ar
     7    15    16    1
     8    15    10    1
     9    12    11    1
    10     9    10    1
    11     9     7    1
    12    10    11    1
    13    11     4    1
    14    11    17    1
    15     7     8    2
    16     7     5    1
    17     4     5   ar
    18     4     3   ar
    19     5     6   ar
    20     3     2   ar
    21     6     1   ar
    22     2     1   ar
    23     1    21    1
    24    23    21    1
    25    22    21    1
