@<TRIPOS>MOLECULE
ZINC26806479_replica-1.pdb
 24 25 0 0 0
SMALL
GASTEIGER

@<TRIPOS>ATOM
      1  C10        6.6290   34.6750   57.3800 C.3     0  <0>0        0.0884
      2  C11        6.4630   34.2190   55.8990 C.3     0  <0>0        0.0222
      3  C12        6.4060   35.6080   55.1700 C.3     0  <0>0        0.0044
      4  C13        5.2450   36.2060   56.0420 C.3     0  <0>0        0.0390
      5  C14        5.8220   35.9920   57.4750 C.3     0  <0>0        0.1143
      6  C16        4.1650   35.0930   55.8870 C.3     0  <0>0        0.1214
      7  C17        4.9700   33.7770   55.7920 C.3     0  <0>0        0.0844
      8 Br          4.5020   32.5770   57.2780 Br      0  <0>0       -0.0791
      9  C9         8.0810   34.9280   57.6930 C.2     0  <0>0        0.2257
     10  N1         8.5550   34.6880   58.9320 N.am    0  <0>0       -0.2795
     11  O1         8.8250   35.3460   56.8300 O.2     0  <0>0       -0.2749
     12  C4         9.9320   35.0520   59.2720 C.3     0  <0>0        0.0934
     13  C3         9.9220   36.2340   60.2450 C.3     0  <0>0        0.0215
     14  C2        10.7570   35.8860   61.4790 C.3     0  <0>0        0.0018
     15  C1        11.3530   34.4870   61.3140 C.3     0  <0>0        0.0001
     16  C5         7.6920   34.0640   59.9380 C.3     0  <0>0        0.0934
     17  C6         8.2460   32.6840   60.2990 C.3     0  <0>0        0.0215
     18  C7         7.4180   31.6040   59.5990 C.3     0  <0>0        0.0018
     19  C8         8.1470   31.1400   58.3370 C.3     0  <0>0        0.0001
     20  C15        6.7280   37.1360   57.8530 C.2     0  <0>0        0.3649
     21  O2         6.9290   37.3870   59.0180 O.co2   0  <0>0       -0.2457
     22  O3         7.3110   37.8750   56.8960 O.co2   0  <0>0       -0.2457
     23  O4         3.4030   35.3000   54.6950 O.3     0  <0>0       -0.3836
     24  H27        2.8660   36.2480   54.5450 H       0  <0>0        0.2104
@<TRIPOS>BOND
     1    24    23    1
     2    23     6    1
     3     3     2    1
     4     3     4    1
     5     7     6    1
     6     7     2    1
     7     7     8    1
     8     6     4    1
     9     2     1    1
    10     4     5    1
    11    11     9    2
    12    22    20   ar
    13     1     5    1
    14     1     9    1
    15     5    20    1
    16     9    10   am
    17    20    21   ar
    18    19    18    1
    19    10    12    1
    20    10    16    1
    21    12    13    1
    22    18    17    1
    23    16    17    1
    24    13    14    1
    25    15    14    1
