@<TRIPOS>MOLECULE
ZINC21507941_replica-1.pdb
 21 23 0 0 0
SMALL
GASTEIGER

@<TRIPOS>ATOM
      1  C7        10.4930   35.0430   60.9660 C.2     0  <0>0        0.0409
      2  C8        10.2270   36.3870   61.2060 C.2     0  <0>0        0.0137
      3  C9         9.5870   37.1470   60.2520 C.2     0  <0>0       -0.0024
      4  C10        9.2020   36.5690   59.0400 C.2     0  <0>0       -0.0143
      5  C11        9.4690   35.2230   58.8060 C.3     0  <0>0        0.0673
      6  C12       10.1150   34.4660   59.7590 C.2     0  <0>0       -0.0034
      7  C13        8.9440   34.8870   57.4320 C.2     0  <0>0       -0.0176
      8  C14        8.3460   36.1630   56.8900 C.ar    0  <0>0       -0.0039
      9  C15        8.5100   37.1470   57.8610 C.ar    0  <0>0       -0.0036
     10  C16        8.0400   38.4380   57.6120 C.ar    0  <0>0       -0.0003
     11  C17        7.4210   38.7260   56.4140 C.ar    0  <0>0       -0.0000
     12  C18        7.2620   37.7410   55.4560 C.ar    0  <0>0       -0.0000
     13  C19        7.7260   36.4600   55.6960 C.ar    0  <0>0       -0.0003
     14  N1        11.1420   34.2760   61.9350 N.pl3   0  <0>0       -0.3329
     15  H14       10.6960   33.3300   62.2770 H       0  <0>0        0.1468
     16  C6        12.4170   34.7300   62.4950 C.3     0  <0>0        0.0869
     17  C4        13.0730   33.5810   63.2630 C.3     0  <0>0        0.0195
     18  C5        14.5070   33.3880   62.7650 C.3     0  <0>0        0.0017
     19  C3        12.2770   32.2940   63.0360 C.3     0  <0>0        0.0017
     20  C2        13.1280   31.0890   63.4390 C.3     0  <0>0        0.0001
     21  C1        12.2670   30.0950   64.2200 C.3     0  <0>0        0.0000
@<TRIPOS>BOND
     1    12    13   ar
     2    12    11   ar
     3    13     8   ar
     4    11    10   ar
     5     8     7    2
     6     8     9   ar
     7     7     5    1
     8    10     9   ar
     9     9     4    2
    10     5     4    1
    11     5     6    1
    12     4     3    1
    13     6     1    2
    14     3     2    2
    15     1     2    1
    16     1    14    1
    17    14    15    1
    18    14    16    1
    19    16    17    1
    20    18    17    1
    21    19    17    1
    22    19    20    1
    23    20    21    1
