@<TRIPOS>MOLECULE
ZINC49903066_replica-1.pdb
 24 25 0 0 0
SMALL
GASTEIGER

@<TRIPOS>ATOM
      1  C10       -1.9760   30.6480   55.6090 C.3     0  <0>0        0.1521
      2  C9        -2.1910   30.0640   54.2110 C.3     0  <0>0        0.1213
      3  N1        -0.9210   29.5420   53.6990 N.pl3   0  <0>0       -0.3307
      4  H12       -0.1090   30.0640   53.7920 H       0  <0>0        0.1469
      5  C8        -0.8810   28.2920   53.0770 C.ar    0  <0>0        0.0406
      6  C3        -0.1870   27.2430   53.6670 C.ar    0  <0>0       -0.0091
      7  C4        -0.1540   26.0070   53.0520 C.ar    0  <0>0       -0.0031
      8  C5        -0.8020   25.8150   51.8470 C.ar    0  <0>0       -0.0002
      9  C6        -1.4900   26.8580   51.2530 C.ar    0  <0>0        0.0012
     10  C7        -1.5280   28.0960   51.8640 C.ar    0  <0>0        0.0140
     11  C2         0.5220   27.4520   54.9810 C.3     0  <0>0        0.0276
     12  C1         0.2070   26.2870   55.9210 C.3     0  <0>0        0.0051
     13  C11       -2.0480   29.5450   56.6310 C.ar    0  <0>0        0.0059
     14  C16       -1.1310   29.4990   57.6650 C.ar    0  <0>0       -0.0022
     15  C15       -1.1990   28.4880   58.6060 C.ar    0  <0>0       -0.0045
     16  C14       -2.1810   27.5190   58.5080 C.ar    0  <0>0       -0.0225
     17  C13       -3.0940   27.5620   57.4710 C.ar    0  <0>0       -0.0045
     18  C12       -3.0270   28.5740   56.5330 C.ar    0  <0>0       -0.0022
     19  C17       -2.2530   26.4150   59.5320 C.3     0  <0>0        0.0223
     20  C18       -0.8590   26.1640   60.1100 C.3     0  <0>0        0.0047
     21  C19       -2.7680   25.1360   58.8690 C.3     0  <0>0        0.0044
     22  C20       -1.5830   24.2430   58.4960 C.3     0  <0>0        0.0003
     23  O1        -2.9910   31.6170   55.8800 O.3     0  <0>0       -0.3783
     24  H27       -3.6980   31.6410   55.2210 H       0  <0>0        0.2109
@<TRIPOS>BOND
     1     9     8   ar
     2     9    10   ar
     3     8     7   ar
     4    10     5   ar
     5     7     6   ar
     6     5     6   ar
     7     5     3    1
     8     6    11    1
     9     3     4    1
    10     3     2    1
    11     2     1    1
    12    11    12    1
    13    24    23    1
    14     1    23    1
    15     1    13    1
    16    18    13   ar
    17    18    17   ar
    18    13    14   ar
    19    17    16   ar
    20    14    15   ar
    21    22    21    1
    22    16    15   ar
    23    16    19    1
    24    21    19    1
    25    19    20    1
