@<TRIPOS>MOLECULE
ZINC37334008_replica-1.pdb
 22 23 0 0 0
SMALL
GASTEIGER

@<TRIPOS>ATOM
      1  C7         9.2550   35.0010   60.6000 C.ar    0  <0>0        0.0581
      2  C8        10.0760   36.0140   61.0790 C.ar    0  <0>0        0.0152
      3  C9        11.2220   35.7030   61.7820 C.ar    0  <0>0        0.0052
      4  C10       11.5640   34.3800   62.0150 C.ar    0  <0>0        0.0722
      5  C11       10.7630   33.3610   61.5490 C.ar    0  <0>0        0.0154
      6  C12        9.5960   33.6600   60.8410 C.ar    0  <0>0        0.0817
      7  C13        8.7560   32.6060   60.3580 C.1     0  <0>0        0.1017
      8  N2         8.0890   31.7700   59.9760 N.1     0  <0>0       -0.1908
      9  N1         8.1000   35.3120   59.8910 N.pl3   0  <0>0       -0.3085
     10  H4         7.3260   34.7310   59.9460 H       0  <0>0        0.1524
     11  C4         8.0570   36.4650   59.0970 C.ar    0  <0>0        0.1039
     12  C3         7.4410   37.6160   59.5730 C.ar    0  <0>0        0.1556
     13  C2         7.4010   38.7530   58.7860 C.ar    0  <0>0        0.0311
     14  F5         6.8810   37.6250   60.8030 F       0  <0>0       -0.2028
     15  C1         7.9740   38.7450   57.5270 C.ar    0  <0>0        0.0047
     16  C6         8.5880   37.6020   57.0510 C.ar    0  <0>0        0.0311
     17  C5         8.6320   36.4600   57.8310 C.ar    0  <0>0        0.1556
     18  F1         9.2320   35.3440   57.3650 F       0  <0>0       -0.2028
     19  C14       12.8190   34.0560   62.7840 C.3     0  <0>0        0.4186
     20  F2        13.9360   34.2850   61.9730 F       0  <0>0       -0.1659
     21  F3        12.8930   34.8700   63.9210 F       0  <0>0       -0.1659
     22  F4        12.7920   32.7130   63.1740 F       0  <0>0       -0.1659
@<TRIPOS>BOND
     1    16    15   ar
     2    16    17   ar
     3    18    17    1
     4    15    13   ar
     5    17    11   ar
     6    13    12   ar
     7    11    12   ar
     8    11     9    1
     9    12    14    1
    10     9    10    1
    11     9     1    1
    12     8     7    3
    13     7     6    1
    14     1     6   ar
    15     1     2   ar
    16     6     5   ar
    17     2     3   ar
    18     5     4   ar
    19     3     4   ar
    20    20    19    1
    21     4    19    1
    22    19    22    1
    23    19    21    1
