@<TRIPOS>MOLECULE
ZINC05667616_replica-1.pdb
 29 31 0 0 0
SMALL
GASTEIGER

@<TRIPOS>ATOM
      1  C10        0.7790   30.9370   58.0340 C.3     0  <0>0        0.1316
      2  C11        0.3710   30.7040   59.4900 C.3     0  <0>0        0.0219
      3  S1        -0.0910   32.3880   57.3880 S.3     0  <0>0       -0.0586
      4  C9         1.2790   33.3410   56.8250 C.2     0  <0>0        0.2111
      5  N1         2.3660   32.8390   56.1670 N.pl3   0  <0>0       -0.2812
      6  C7         3.2120   33.9040   55.8990 C.2     0  <0>0        0.0796
      7  H1         2.5240   31.8820   55.9230 H       0  <0>0        0.1551
      8  C6         2.5820   35.0450   56.4230 C.2     0  <0>0        0.1291
      9  C8         4.4400   34.0190   55.2650 C.2     0  <0>0        0.0535
     10  C5         3.2030   36.2900   56.3050 C.3     0  <0>0        0.0895
     11  N2         1.4080   34.6350   56.9750 N.2     0  <0>0       -0.3835
     12  C4         4.4240   36.3910   55.6760 C.2     0  <0>0        0.0183
     13  C3         5.0450   35.2600   55.1590 C.2     0  <0>0        0.1360
     14  O1         6.2520   35.3720   54.5410 O.2     0  <0>0       -0.4757
     15  C2         7.2160   36.2300   55.1540 C.3     0  <0>0        0.2055
     16  C1         8.1040   35.4110   56.0940 C.3     0  <0>0        0.0512
     17  C12        0.4180   29.7270   57.2120 C.2     0  <0>0        0.2326
     18  O2        -0.0720   28.7540   57.7460 O.2     0  <0>0       -0.2742
     19  N3         0.6400   29.7250   55.8820 N.am    0  <0>0       -0.3033
     20  H15        1.0320   30.5020   55.4550 H       0  <0>0        0.1495
     21  C13        0.2890   28.5480   55.0830 C.3     0  <0>0        0.0937
     22  C14       -0.7340   28.9440   54.0170 C.3     0  <0>0        0.0419
     23  C15       -2.0800   29.2350   54.6840 C.3     0  <0>0        0.0064
     24  C16       -0.8960   27.8140   53.0320 C.ar    0  <0>0       -0.0208
     25  C21       -1.6390   28.0020   51.8810 C.ar    0  <0>0       -0.0042
     26  C20       -1.7870   26.9650   50.9780 C.ar    0  <0>0       -0.0003
     27  C19       -1.1930   25.7430   51.2260 C.ar    0  <0>0       -0.0000
     28  C18       -0.4500   25.5550   52.3760 C.ar    0  <0>0       -0.0003
     29  C17       -0.2970   26.5930   53.2770 C.ar    0  <0>0       -0.0042
@<TRIPOS>BOND
     1    26    27   ar
     2    26    25   ar
     3    27    28   ar
     4    25    24   ar
     5    28    29   ar
     6    24    29   ar
     7    24    22    1
     8    22    23    1
     9    22    21    1
    10    14    15    1
    11    14    13    1
    12    21    19    1
    13    15    16    1
    14    13     9    1
    15    13    12    2
    16     9     6    2
    17    20    19    1
    18    12    10    1
    19    19    17   am
    20     6     5    1
    21     6     8    1
    22     7     5    1
    23     5     4    1
    24    10     8    1
    25     8    11    2
    26     4    11    2
    27     4     3    1
    28    17    18    2
    29    17     1    1
    30     3     1    1
    31     1     2    1
