@<TRIPOS>MOLECULE
ZINC37778998_replica-1.pdb
 21 22 0 0 0
SMALL
GASTEIGER

@<TRIPOS>ATOM
      1  C1        13.0470   34.3290   63.0010 C.3     0  <0>0        0.0311
      2  C2        11.8600   34.8310   62.2200 C.ar    0  <0>0       -0.0188
      3  C3        11.4800   36.1560   62.3190 C.ar    0  <0>0       -0.0028
      4  C4        10.3920   36.6220   61.6050 C.ar    0  <0>0        0.0171
      5  C5         9.6790   35.7580   60.7850 C.ar    0  <0>0        0.0790
      6  C6        10.0640   34.4230   60.6850 C.ar    0  <0>0        0.1513
      7  C7        11.1590   33.9650   61.4000 C.ar    0  <0>0        0.0339
      8  N1         8.5780   36.2270   60.0610 N.pl3   0  <0>0       -0.3317
      9  H16        7.6840   36.1480   60.4320 H       0  <0>0        0.1469
     10  C11        8.7720   36.8370   58.7430 C.3     0  <0>0        0.0691
     11  C16        7.9520   36.0730   57.7010 C.3     0  <0>0        0.0195
     12  C15        8.1560   36.7100   56.3250 C.3     0  <0>0        0.0016
     13  C14        7.6970   38.1700   56.3660 C.3     0  <0>0        0.0001
     14  C17        7.3350   35.9470   55.2840 C.3     0  <0>0        0.0001
     15  C13        8.5180   38.9330   57.4080 C.3     0  <0>0        0.0017
     16  C12        8.3140   38.2970   58.7840 C.3     0  <0>0        0.0195
     17  O1         9.3690   33.5720   59.8830 O.3     0  <0>0       -0.4715
     18  C8         8.4770   32.6590   60.5270 C.3     0  <0>0        0.2374
     19  C9         7.0540   32.8930   60.0170 C.3     0  <0>0        0.1894
     20  O2         6.5360   34.0970   60.5840 O.3     0  <0>0       -0.3471
     21  C10        5.1090   34.1580   60.6190 C.3     0  <0>0        0.1743
@<TRIPOS>BOND
     1    14    12    1
     2    12    13    1
     3    12    11    1
     4    13    15    1
     5    15    16    1
     6    11    10    1
     7    10    16    1
     8    10     8    1
     9    17    18    1
    10    17     6    1
    11    19    18    1
    12    19    20    1
    13     8     9    1
    14     8     5    1
    15    20    21    1
    16     6     5   ar
    17     6     7   ar
    18     5     4   ar
    19     7     2   ar
    20     4     3   ar
    21     2     3   ar
    22     2     1    1
