@<TRIPOS>MOLECULE
ZINC21243116_replica-1.pdb
 37 41 0 0 0
SMALL
GASTEIGER

@<TRIPOS>ATOM
      1  C10        0.6840   32.9540   59.2020 C.3     0  <0>0        0.1186
      2  C11        0.3260   32.1120   58.0030 C.2     0  <0>0        0.0436
      3  C12        0.2820   32.5350   56.7270 C.2     0  <0>0        0.0262
      4  C13       -0.1140   31.5830   55.6110 C.3     0  <0>0        0.0458
      5  C14        0.3420   30.1640   55.9490 C.3     0  <0>0        0.0356
      6  C15       -0.3330   29.7580   57.2640 C.3     0  <0>0        0.0736
      7  C16        0.0240   30.7660   58.3160 C.2     0  <0>0        0.1722
      8  O2         0.0540   30.4130   59.4780 O.2     0  <0>0       -0.2916
      9  N2         0.5580   33.8010   56.3270 N.pl3   0  <0>0       -0.3150
     10  C25        1.6530   34.5470   56.7480 C.ar    0  <0>0        0.0614
     11  C26        2.6410   34.9670   55.8730 C.ar    0  <0>0        0.0158
     12  C27        3.6560   35.7840   56.3390 C.ar    0  <0>0        0.0014
     13  C28        3.6860   36.1740   57.6650 C.ar    0  <0>0        0.0013
     14  C29        2.7060   35.7460   58.5430 C.ar    0  <0>0        0.0156
     15  C30        1.6990   34.9140   58.0840 C.ar    0  <0>0        0.0586
     16  N3         0.7420   34.3780   58.9460 N.pl3   0  <0>0       -0.3262
     17  H28       -0.1100   34.3130   55.6190 H       0  <0>0        0.1520
     18  H33        0.0260   35.0540   59.4350 H       0  <0>0        0.1474
     19  C7         2.0290   32.5070   59.7150 C.ar    0  <0>0       -0.0001
     20  C6         2.9010   31.8420   58.8730 C.ar    0  <0>0        0.0008
     21  C5         4.1340   31.4310   59.3390 C.ar    0  <0>0        0.0366
     22  C4         4.4980   31.6860   60.6530 C.ar    0  <0>0        0.1385
     23  C9         3.6210   32.3540   61.4960 C.ar    0  <0>0        0.0366
     24  C8         2.3910   32.7670   61.0230 C.ar    0  <0>0        0.0008
     25  O1         5.7110   31.2820   61.1150 O.3     0  <0>0       -0.4755
     26  C3         6.3200   30.1710   60.4560 C.3     0  <0>0        0.2054
     27  C2         6.9930   29.2680   61.4930 C.3     0  <0>0        0.0473
     28  C1         6.0190   28.9970   62.6410 C.3     0  <0>0        0.0040
     29  C17       -0.0690   29.2200   54.8490 C.ar    0  <0>0       -0.0216
     30  C22       -1.0150   29.6130   53.9200 C.ar    0  <0>0       -0.0030
     31  C21       -1.3930   28.7500   52.9100 C.ar    0  <0>0        0.0142
     32  C20       -0.8230   27.4860   52.8290 C.ar    0  <0>0        0.0479
     33  C19        0.1270   27.0950   53.7630 C.ar    0  <0>0        0.0142
     34  C18        0.5050   27.9650   54.7670 C.ar    0  <0>0       -0.0030
     35  N1        -1.2040   26.6110   51.8090 N.pl3   0  <0>0       -0.3041
     36  C23       -2.0270   27.0950   50.6980 C.3     0  <0>0        0.1122
     37  C24       -0.7820   25.2090   51.8520 C.3     0  <0>0        0.1122
@<TRIPOS>BOND
     1    36    35    1
     2    35    37    1
     3    35    32    1
     4    32    31   ar
     5    32    33   ar
     6    31    30   ar
     7    33    34   ar
     8    30    29   ar
     9    34    29   ar
    10    29     5    1
    11     4     5    1
    12     4     3    1
    13    17     9    1
    14    11    12   ar
    15    11    10   ar
    16     5     6    1
    17     9     3    1
    18     9    10    1
    19    12    13   ar
    20     3     2    2
    21    10    15   ar
    22     6     7    1
    23    13    14   ar
    24     2     7    1
    25     2     1    1
    26    15    14   ar
    27    15    16    1
    28     7     8    2
    29    20    21   ar
    30    20    19   ar
    31    16     1    1
    32    16    18    1
    33     1    19    1
    34    21    22   ar
    35    19    24   ar
    36    26    25    1
    37    26    27    1
    38    22    25    1
    39    22    23   ar
    40    24    23   ar
    41    27    28    1
