@<TRIPOS>MOLECULE
ZINC21033461_replica-1.pdb
 20 20 0 0 0
SMALL
GASTEIGER

@<TRIPOS>ATOM
      1  C9        -0.0910   27.2970   54.5840 C.ar    0  <0>0        0.0788
      2  C10       -0.0360   26.2490   53.6770 C.ar    0  <0>0        0.0140
      3  C11       -0.6190   26.3810   52.4310 C.ar    0  <0>0       -0.0098
      4  C12       -1.2590   27.5580   52.0840 C.ar    0  <0>0        0.0568
      5  C13       -1.3170   28.6090   52.9840 C.ar    0  <0>0        0.0492
      6  C14       -0.7400   28.4790   54.2360 C.ar    0  <0>0        0.1525
      7 Cl         -1.9890   27.7180   50.5180 Cl      0  <0>0       -0.0825
      8  C16       -0.5580   25.2410   51.4470 C.3     0  <0>0        0.0320
      9  N1         0.4990   27.1650   55.8470 N.pl3   0  <0>0       -0.3317
     10  H18        1.5250   27.5230   56.0140 H       0  <0>0        0.1469
     11  C6        -0.2500   26.5470   56.9440 C.3     0  <0>0        0.0691
     12  C5         0.0130   27.3190   58.2380 C.3     0  <0>0        0.0195
     13  C3        -1.1310   28.3040   58.4870 C.3     0  <0>0        0.0016
     14  C4        -1.2620   28.5650   59.9890 C.3     0  <0>0        0.0001
     15  C2        -2.4380   27.7110   57.9570 C.3     0  <0>0        0.0001
     16  C1        -3.0940   26.8640   59.0490 C.3     0  <0>0        0.0000
     17  C7         0.1990   25.0950   57.1150 C.3     0  <0>0        0.0195
     18  C8        -0.2930   24.5640   58.4640 C.3     0  <0>0        0.0017
     19  O1        -0.8000   29.5090   55.1240 O.3     0  <0>0       -0.4702
     20  C15       -2.0210   30.2500   55.1750 C.3     0  <0>0        0.2525
@<TRIPOS>BOND
     1     7     4    1
     2     8     3    1
     3     4     3   ar
     4     4     5   ar
     5     3     2   ar
     6     5     6   ar
     7     2     1   ar
     8     6     1   ar
     9     6    19    1
    10     1     9    1
    11    19    20    1
    12     9    10    1
    13     9    11    1
    14    11    17    1
    15    11    12    1
    16    17    18    1
    17    15    13    1
    18    15    16    1
    19    12    13    1
    20    13    14    1
