@<TRIPOS>MOLECULE
ZINC44139118_replica-1.pdb
 20 19 0 0 0
SMALL
GASTEIGER

@<TRIPOS>ATOM
      1  C5         8.6700   35.8920   57.9110 C.3     0  <0>0        0.0761
      2  C4         8.6620   35.6610   59.4230 C.3     0  <0>0        0.0172
      3  C2        10.0530   35.9500   59.9910 C.3     0  <0>0        0.0014
      4  C1         9.9330   36.9340   61.1570 C.3     0  <0>0        0.0000
      5  C3        10.6830   34.6470   60.4860 C.3     0  <0>0        0.0000
      6  C6         7.7640   37.0770   57.5710 C.3     0  <0>0        0.1036
      7  C7         6.9590   37.4740   58.8090 C.3     0  <0>0        0.0125
      8  C8         8.6210   38.2610   57.1190 C.3     0  <0>0        0.0125
      9  C9         6.8210   36.6870   56.4630 C.2     0  <0>0        0.3173
     10  O1         7.1860   36.7430   55.3120 O.2     0  <0>0       -0.2501
     11  O2         5.5760   36.2770   56.7520 O.3     0  <0>0       -0.4444
     12  C10        4.6400   36.2340   55.6740 C.3     0  <0>0        0.2556
     13  N1         8.1770   34.6900   57.2320 N.3     0  <0>0       -0.2277
     14  H20        8.1540   34.6560   56.2630 H       0  <0>0        0.1381
     15  S1         7.6620   33.3910   58.1180 S.O     0  <0>0        0.1015
     16  O3         8.8200   32.5770   58.2430 O.2     0  <0>0       -0.2403
     17  C11        6.4590   32.5690   57.0360 C.3     0  <0>0        0.0823
     18  C12        5.0410   32.9020   57.5050 C.3     0  <0>0        0.0148
     19  C13        6.6480   33.0590   55.5990 C.3     0  <0>0        0.0148
     20  C14        6.6730   31.0560   57.0920 C.3     0  <0>0        0.0148
@<TRIPOS>BOND
     1    10     9    2
     2    19    17    1
     3    12    11    1
     4    14    13    1
     5     9    11    1
     6     9     6    1
     7    17    20    1
     8    17    18    1
     9    17    15    1
    10     8     6    1
    11    13     1    1
    12    13    15    1
    13     6     1    1
    14     6     7    1
    15     1     2    1
    16    15    16    2
    17     2     3    1
    18     3     5    1
    19     3     4    1
