@<TRIPOS>MOLECULE
ZINC49595136_replica-1.pdb
 22 22 0 0 0
SMALL
GASTEIGER

@<TRIPOS>ATOM
      1  C6         8.5120   36.1390   57.8780 C.ar    0  <0>0        0.1324
      2  C7         9.1820   34.9540   58.1280 C.ar    0  <0>0        0.0208
      3  C8         9.9260   34.8070   59.2780 C.ar    0  <0>0        0.0014
      4  C9        10.0050   35.8610   60.1950 C.ar    0  <0>0        0.0011
      5  C10        9.3270   37.0560   59.9370 C.ar    0  <0>0        0.0127
      6  C11        8.5900   37.1890   58.7780 C.ar    0  <0>0        0.0762
      7 Cl          7.7510   38.6740   58.4510 Cl      0  <0>0       -0.0809
      8  S1         7.5630   36.3160   56.4030 S.O2    0  <0>0        0.0610
      9  O1         7.5760   35.0510   55.7580 O.2     0  <0>0       -0.1530
     10  O2         8.0200   37.5020   55.7670 O.2     0  <0>0       -0.1530
     11  N1         5.9960   36.5980   56.8610 N.3     0  <0>0       -0.1794
     12  H12        5.6100   37.4800   56.7500 H       0  <0>0        0.1488
     13  C5         5.1940   35.5130   57.4330 C.3     0  <0>0        0.0915
     14  C4         4.6010   35.9670   58.7670 C.3     0  <0>0        0.0188
     15  C2         5.0780   35.0320   59.8820 C.3     0  <0>0        0.0014
     16  C1         5.8540   33.8630   59.2700 C.3     0  <0>0        0.0000
     17  C3         5.9880   35.8020   60.8400 C.3     0  <0>0        0.0000
     18  C12       10.7980   35.7120   61.4260 C.2     0  <0>0        0.0068
     19  C13       11.5750   34.6210   61.6010 C.2     0  <0>0        0.0861
     20  C14       12.3380   34.4770   62.7850 C.2     0  <0>0        0.3880
     21  O3        12.3150   35.3550   63.6390 O.co2   0  <0>0       -0.2405
     22  O4        13.0210   33.4750   62.9560 O.co2   0  <0>0       -0.2405
@<TRIPOS>BOND
     1     9     8    2
     2    10     8    2
     3     8    11    1
     4     8     1    1
     5    12    11    1
     6    11    13    1
     7    13    14    1
     8     1     2   ar
     9     1     6   ar
    10     2     3   ar
    11     7     6    1
    12    14    15    1
    13     6     5   ar
    14    16    15    1
    15     3     4   ar
    16    15    17    1
    17     5     4   ar
    18     4    18    1
    19    18    19    2
    20    19    20    1
    21    20    22   ar
    22    20    21   ar
