@<TRIPOS>MOLECULE
ZINC14024651_replica-1.pdb
 26 27 0 0 0
SMALL
GASTEIGER

@<TRIPOS>ATOM
      1  C11        1.5270   32.3470   56.4680 C.2     0  <0>0        0.2645
      2  O2         1.3620   32.6460   57.6340 O.2     0  <0>0       -0.2684
      3  N1         2.4310   33.0140   55.7220 N.am    0  <0>0       -0.2023
      4  H14        2.5630   32.7760   54.7920 H       0  <0>0        0.1776
      5  C8         0.7400   31.2530   55.8670 C.ar    0  <0>0        0.0552
      6  C7        -0.0220   31.4880   54.7180 C.ar    0  <0>0        0.0077
      7  C6        -0.7560   30.4650   54.1600 C.ar    0  <0>0        0.0370
      8  C5        -0.7380   29.2000   54.7360 C.ar    0  <0>0        0.1386
      9  C10        0.0170   28.9630   55.8780 C.ar    0  <0>0        0.0370
     10  C9         0.7590   29.9790   56.4390 C.ar    0  <0>0        0.0077
     11  O1        -1.4630   28.1950   54.1830 O.3     0  <0>0       -0.4755
     12  C4        -1.4630   28.1040   52.7570 C.3     0  <0>0        0.2053
     13  C2        -0.5310   26.9720   52.3190 C.3     0  <0>0        0.0438
     14  C1        -0.0660   26.1890   53.5480 C.3     0  <0>0        0.0038
     15  C3        -1.2790   26.0340   51.3700 C.3     0  <0>0        0.0038
     16  N2         3.1780   34.0530   56.2920 N.2     0  <0>0       -0.1773
     17  C12        4.4740   34.0270   56.2330 C.2     0  <0>0        0.1176
     18  C13        5.2620   35.1200   56.8340 C.ar    0  <0>0        0.0207
     19  C18        6.0640   35.9320   56.0280 C.ar    0  <0>0        0.0013
     20  C17        6.7940   36.9550   56.5960 C.ar    0  <0>0       -0.0042
     21  C16        6.7430   37.1700   57.9620 C.ar    0  <0>0       -0.0225
     22  C15        5.9520   36.3700   58.7660 C.ar    0  <0>0       -0.0042
     23  C14        5.2120   35.3460   58.2120 C.ar    0  <0>0        0.0013
     24  C19        7.5490   38.2860   58.5760 C.3     0  <0>0        0.0224
     25  C20        8.5420   38.8250   57.5440 C.3     0  <0>0        0.0047
     26  C21        8.3130   37.7550   59.7910 C.3     0  <0>0        0.0047
@<TRIPOS>BOND
     1    15    13    1
     2    13    12    1
     3    13    14    1
     4    12    11    1
     5     7     6   ar
     6     7     8   ar
     7    11     8    1
     8     6     5   ar
     9     8     9   ar
    10     4     3    1
    11     3    16    1
    12     3     1   am
    13     5    10   ar
    14     5     1    1
    15     9    10   ar
    16    19    20   ar
    17    19    18   ar
    18    17    16    2
    19    17    18    1
    20     1     2    2
    21    20    21   ar
    22    18    23   ar
    23    25    24    1
    24    21    24    1
    25    21    22   ar
    26    23    22   ar
    27    24    26    1
