@<TRIPOS>MOLECULE
ZINC02730533_replica-1.pdb
 37 40 0 0 0
SMALL
GASTEIGER

@<TRIPOS>ATOM
      1  C15        2.5560   30.9070   60.6950 C.3     0  <0>0        0.0576
      2  C16        2.5240   32.4370   60.6600 C.3     0  <0>0        0.0291
      3  C17        1.4000   32.9960   61.5000 C.3     0  <0>0        0.0051
      4  C18        0.1870   33.3690   60.6510 C.3     0  <0>0        0.0050
      5  C19        0.6250   34.4120   59.6140 C.3     0  <0>0        0.0257
      6  C20        1.6790   33.7790   58.7420 C.2     0  <0>0       -0.0297
      7  C21        2.5080   32.8740   59.2260 C.2     0  <0>0       -0.0158
      8  C22        3.4590   32.1980   58.3050 C.2     0  <0>0        0.0749
      9  C23        4.0660   31.0510   58.7010 C.2     0  <0>0        0.0545
     10  C24        3.8520   30.4240   60.0450 C.3     0  <0>0        0.1921
     11  C25        4.9860   30.7660   60.9210 C.1     0  <0>0        0.0913
     12  N1         5.8590   31.0300   61.5970 N.1     0  <0>0       -0.1945
     13  C26        3.7950   28.9610   59.8880 C.1     0  <0>0        0.0913
     14  N2         3.7500   27.8320   59.7670 N.1     0  <0>0       -0.1945
     15  C27        3.7310   32.7510   57.0130 C.1     0  <0>0        0.1011
     16  N4         3.9470   33.1900   55.9870 N.1     0  <0>0       -0.1908
     17  C5         1.3760   30.3600   59.9340 C.ar    0  <0>0       -0.0240
     18  C4         0.3480   29.7320   60.6100 C.ar    0  <0>0       -0.0261
     19  C3        -0.7370   29.2350   59.9120 C.ar    0  <0>0       -0.0090
     20  C28        0.4060   29.5930   62.1090 C.3     0  <0>0        0.0307
     21  C2        -0.7910   29.3620   58.5370 C.ar    0  <0>0       -0.0227
     22  C1        -1.9740   28.8210   57.7750 C.3     0  <0>0        0.0308
     23  C7         0.2400   29.9860   57.8600 C.ar    0  <0>0        0.0169
     24  C6         1.3250   30.4830   58.5570 C.ar    0  <0>0       -0.0055
     25  C8         0.1810   30.1250   56.3600 C.3     0  <0>0        0.2317
     26  O1         0.3580   28.8430   55.7560 O.3     0  <0>0       -0.4698
     27  C9        -0.2730   28.6280   54.5700 C.ar    0  <0>0        0.1496
     28  C14       -0.1120   27.4180   53.9090 C.ar    0  <0>0        0.0938
     29  C13       -0.7590   27.1980   52.7060 C.ar    0  <0>0        0.0441
     30 Cl          0.8930   26.1790   54.5930 Cl      0  <0>0       -0.0790
     31  C12       -1.5560   28.1880   52.1570 C.ar    0  <0>0        0.1412
     32  C11       -1.7110   29.3980   52.8140 C.ar    0  <0>0        0.0328
     33  F1        -2.1820   27.9750   50.9800 F       0  <0>0       -0.2041
     34  C10       -1.0720   29.6170   54.0180 C.ar    0  <0>0        0.0401
     35  N3         4.9180   30.4360   57.8280 N.pl3   0  <0>0       -0.3582
     36  H20        5.5020   29.5630   58.1520 H       0  <0>0        0.1421
     37  H21        5.0180   30.8130   56.7990 H       0  <0>0        0.1421
@<TRIPOS>BOND
     1    33    31    1
     2    31    29   ar
     3    31    32   ar
     4    29    28   ar
     5    32    34   ar
     6    28    27   ar
     7    28    30    1
     8    34    27   ar
     9    27    26    1
    10    26    25    1
    11    16    15    3
    12    25    23    1
    13    37    35    1
    14    15     8    1
    15    22    21    1
    16    35    36    1
    17    35     9    1
    18    23    21   ar
    19    23    24   ar
    20     8     9    2
    21     8     7    1
    22    21    19   ar
    23    24    17   ar
    24     9    10    1
    25     6     7    2
    26     6     5    1
    27     7     2    1
    28     5     4    1
    29    14    13    3
    30    13    10    1
    31    19    18   ar
    32    17    18   ar
    33    17     1    1
    34    10     1    1
    35    10    11    1
    36    18    20    1
    37     4     3    1
    38     2     1    1
    39     2     3    1
    40    11    12    3
