@<TRIPOS>MOLECULE
ZINC61339335_replica-1.pdb
 26 29 0 0 0
SMALL
GASTEIGER

@<TRIPOS>ATOM
      1  C7        10.5010   35.2550   61.0470 C.2     0  <0>0        0.1225
      2  C8        10.4050   36.5320   61.5240 C.3     0  <0>0        0.1247
      3  S1         9.3210   37.2620   60.3040 S.3     0  <0>0       -0.0593
      4  C9         9.1090   35.8030   59.2940 C.2     0  <0>0        0.2132
      5  N1         9.8540   34.9240   59.9390 N.2     0  <0>0       -0.3842
      6  N2         8.3620   35.6380   58.1340 N.am    0  <0>0       -0.2509
      7  C10        7.0850   35.2150   58.2100 C.2     0  <0>0        0.2539
      8  O1         6.5870   34.9770   59.2920 O.2     0  <0>0       -0.2697
      9  H5         8.7600   35.8280   57.2700 H       0  <0>0        0.1580
     10  C11        6.2920   35.0400   56.9770 C.ar    0  <0>0        0.0834
     11  C16        6.4920   33.9160   56.1670 C.ar    0  <0>0        0.1446
     12  C15        5.7410   33.7560   55.0170 C.ar    0  <0>0        0.0321
     13  F1         7.4120   32.9890   56.5100 F       0  <0>0       -0.2040
     14  C14        4.8040   34.7070   54.6610 C.ar    0  <0>0        0.0319
     15  C13        4.6060   35.8250   55.4560 C.ar    0  <0>0        0.1404
     16  C12        5.3430   35.9970   56.6100 C.ar    0  <0>0        0.0364
     17  F2         3.6870   36.7510   55.1000 F       0  <0>0       -0.2042
     18  C6        11.3260   34.2490   61.7590 C.ar    0  <0>0        0.0261
     19  C1        10.7920   33.0010   62.0690 C.ar    0  <0>0        0.0020
     20  C2        11.5640   32.0670   62.7330 C.ar    0  <0>0       -0.0020
     21  C3        12.8620   32.3690   63.0870 C.ar    0  <0>0        0.0057
     22  C18       13.9370   31.5810   63.8020 C.3     0  <0>0        0.1688
     23  C4        13.4000   33.6110   62.7810 C.ar    0  <0>0        0.0057
     24  O2        14.9060   32.5460   64.2470 O.3     0  <0>0       -0.3443
     25  C17       14.8200   33.6250   63.2980 C.3     0  <0>0        0.1688
     26  C5        12.6390   34.5500   62.1220 C.ar    0  <0>0        0.0001
@<TRIPOS>BOND
     1    14    12   ar
     2    14    15   ar
     3    12    11   ar
     4    17    15    1
     5    15    16   ar
     6    11    13    1
     7    11    10   ar
     8    16    10   ar
     9    10     7    1
    10     9     6    1
    11     6     7   am
    12     6     4    1
    13     7     8    2
    14     4     5    2
    15     4     3    1
    16     5     1    2
    17     3     2    1
    18     1     2    1
    19     1    18    1
    20    18    19   ar
    21    18    26   ar
    22    19    20   ar
    23    26    23   ar
    24    20    21   ar
    25    23    21   ar
    26    23    25    1
    27    21    22    1
    28    25    24    1
    29    22    24    1
