@<TRIPOS>MOLECULE
ZINC43463691_replica-1.pdb
 19 21 0 0 0
SMALL
GASTEIGER

@<TRIPOS>ATOM
      1  C1        -0.1290   30.3800   59.2170 C.3     0  <0>0        0.0503
      2  C2        -0.2230   29.6650   57.8940 C.2     0  <0>0        0.0734
      3  C3         0.2850   28.4030   57.6220 C.3     0  <0>0        0.1625
      4  C4        -0.0070   28.1080   56.2960 C.2     0  <0>0        0.1979
      5  N1         0.2460   27.0450   55.5260 N.2     0  <0>0       -0.3929
      6  C5        -0.1470   27.0010   54.2680 C.2     0  <0>0        0.1075
      7  C6        -0.8450   28.0790   53.7190 C.2     0  <0>0        0.0228
      8  C7        -1.1050   29.1690   54.4910 C.2     0  <0>0        0.1456
      9  N2        -0.6860   29.1870   55.7890 N.pl3   0  <0>0       -0.1619
     10  N3        -0.8040   30.1340   56.8110 N.2     0  <0>0       -0.1794
     11  C9        -1.3340   28.0850   52.2950 C.3     0  <0>0        0.0299
     12  C10       -0.6060   27.0210   51.4750 C.3     0  <0>0        0.0052
     13  C11       -0.6950   25.6860   52.2220 C.3     0  <0>0        0.0078
     14  C12        0.1850   25.7670   53.4680 C.3     0  <0>0        0.0587
     15 Br          1.2120   27.2880   58.8360 Br      0  <0>0       -0.0663
     16  C8        -1.8500   30.3460   53.9170 C.3     0  <0>0        0.4327
     17  F1        -2.4070   29.9890   52.6850 F       0  <0>0       -0.1646
     18  F2        -2.8680   30.7280   54.7970 F       0  <0>0       -0.1646
     19  F3        -0.9640   31.4140   53.7370 F       0  <0>0       -0.1646
@<TRIPOS>BOND
     1    12    13    1
     2    12    11    1
     3    13    14    1
     4    11     7    1
     5    17    16    1
     6    14     6    1
     7     7     6    1
     8     7     8    2
     9    19    16    1
    10    16     8    1
    11    16    18    1
    12     6     5    2
    13     8     9    1
    14     5     4    2
    15     9     4    1
    16     9    10    1
    17     4     3    1
    18    10     2    2
    19     3     2    1
    20     3    15    1
    21     2     1    1
