@<TRIPOS>MOLECULE
ZINC35429831_replica-1.pdb
 30 32 0 0 0
SMALL
GASTEIGER

@<TRIPOS>ATOM
      1  C8         1.0110   31.1810   56.5390 C.1     0  <0>0        0.1947
      2  N2         0.6450   30.6170   57.6740 N.2     0  <0>0       -0.3400
      3  C9        -0.3950   29.7760   57.7080 C.2     0  <0>0        0.1333
      4  C10       -0.8110   29.1590   58.8970 C.2     0  <0>0        0.0293
      5  C11       -1.8770   28.3100   58.8770 C.2     0  <0>0        0.0020
      6  C12       -2.5620   28.0450   57.6930 C.2     0  <0>0       -0.0036
      7  C13       -2.1830   28.6270   56.5190 C.2     0  <0>0       -0.0109
      8  C14       -1.0940   29.5030   56.5040 C.3     0  <0>0        0.1428
      9  C15       -0.6560   30.1380   55.3150 C.2     0  <0>0        0.1836
     10  N3         0.3820   30.9590   55.3880 N.2     0  <0>0       -0.3248
     11  C7         2.1700   32.1080   56.5480 C.2     0  <0>0        0.3317
     12  N1         2.3320   32.9950   55.5470 N.am    0  <0>0       -0.2912
     13  H14        1.6910   33.0290   54.8200 H       0  <0>0        0.1504
     14  O1         2.9730   32.0670   57.4590 O.2     0  <0>0       -0.2567
     15  C6         3.4760   33.9120   55.5570 C.3     0  <0>0        0.0913
     16  C5         3.0130   35.3000   56.0020 C.3     0  <0>0        0.0329
     17  C4         3.8470   35.7560   57.2010 C.3     0  <0>0        0.0593
     18  S1         2.8480   35.6460   58.7100 S.3     0  <0>0       -0.1402
     19  C3         1.1620   35.3600   58.1010 C.3     0  <0>0        0.0576
     20  C2         0.4900   34.2790   58.9500 C.3     0  <0>0        0.0116
     21  C1         1.4110   33.8950   60.1100 C.3     0  <0>0        0.0009
     22  N4        -1.2960   29.9120   54.1140 N.pl3   0  <0>0       -0.2902
     23  H19       -1.8850   30.5880   53.7440 H       0  <0>0        0.1543
     24  C16       -1.0970   28.7100   53.4310 C.ar    0  <0>0        0.0499
     25  C21       -1.7030   28.5000   52.1980 C.ar    0  <0>0        0.0143
     26  C20       -1.4990   27.3130   51.5220 C.ar    0  <0>0       -0.0030
     27  C19       -0.7020   26.3290   52.0770 C.ar    0  <0>0       -0.0218
     28  C18       -0.1020   26.5310   53.3070 C.ar    0  <0>0       -0.0030
     29  C22       -0.4870   25.0320   51.3400 C.3     0  <0>0        0.0310
     30  C17       -0.2970   27.7190   53.9840 C.ar    0  <0>0        0.0143
@<TRIPOS>BOND
     1    29    27    1
     2    26    27   ar
     3    26    25   ar
     4    27    28   ar
     5    25    24   ar
     6    28    30   ar
     7    24    30   ar
     8    24    22    1
     9    23    22    1
    10    22     9    1
    11    13    12    1
    12     9    10    2
    13     9     8    1
    14    10     1    2
    15    12    15    1
    16    12    11   am
    17    15    16    1
    18    16    17    1
    19     8     7    1
    20     8     3    1
    21     7     6    2
    22     1    11    1
    23     1     2    2
    24    11    14    2
    25    17    18    1
    26     2     3    2
    27     6     5    1
    28     3     4    1
    29    19    18    1
    30    19    20    1
    31     5     4    2
    32    20    21    1
