@<TRIPOS>MOLECULE
ZINC61539502_replica-1.pdb
 22 23 0 0 0
SMALL
GASTEIGER

@<TRIPOS>ATOM
      1  N1         6.5060   36.7630   59.2990 N.pl3   0  <0>0       -0.2546
      2  C9         5.4210   36.3340   58.5630 C.1     0  <0>0        0.2231
      3  N2         4.2330   36.1980   59.1440 N.2     0  <0>0       -0.2293
      4  C10        3.1920   35.7860   58.4330 C.1     0  <0>0        0.3317
      5  N3         3.3380   35.5080   57.1420 N.2     0  <0>0       -0.2320
      6  C11        4.5200   35.6440   56.5640 C.1     0  <0>0        0.2286
      7  N4         5.5600   36.0600   57.2680 N.2     0  <0>0       -0.2493
      8 Cl          4.7070   35.2800   54.8760 Cl      0  <0>0        0.0258
      9  H12        6.4030   36.9630   60.2430 H       0  <0>0        0.1605
     10  C4         7.8130   36.9180   58.6560 C.3     0  <0>0        0.1085
     11  C3         8.0980   38.4050   58.4300 C.3     0  <0>0        0.0253
     12  C2         8.6070   38.6140   57.0030 C.3     0  <0>0        0.0021
     13  C1         7.4260   38.5830   56.0310 C.3     0  <0>0        0.0001
     14  C5         8.8810   36.3310   59.5420 C.ar    0  <0>0        0.0257
     15  S1         9.3570   36.8060   61.1960 S.2     0  <0>0       -0.0891
     16  C8        10.6540   35.6040   61.4400 C.ar    0  <0>0        0.0352
     17  C7        10.6430   34.9370   60.2600 C.ar    0  <0>0        0.0072
     18  C6         9.7340   35.3090   59.2880 C.ar    0  <0>0        0.0043
     19  O1         1.9820   35.6460   59.0240 O.2     0  <0>0       -0.3987
     20  C12        0.9560   35.0110   58.2560 C.3     0  <0>0        0.2225
     21  C13        0.3620   33.8530   59.0590 C.3     0  <0>0        0.0486
     22  C14        0.4380   34.1750   60.5530 C.3     0  <0>0        0.0040
@<TRIPOS>BOND
     1     8     6    1
     2    13    12    1
     3     6     5    2
     4     6     7    2
     5    12    11    1
     6     5     4    2
     7     7     2    2
     8    20    19    1
     9    20    21    1
    10    11    10    1
    11     4    19    1
    12     4     3    2
    13     2     3    2
    14     2     1    1
    15    10     1    1
    16    10    14    1
    17    21    22    1
    18    18    14   ar
    19    18    17   ar
    20     1     9    1
    21    14    15   ar
    22    17    16   ar
    23    15    16   ar
