@<TRIPOS>MOLECULE
ZINC00613689_replica-1.pdb
 21 23 0 0 0
SMALL
GASTEIGER

@<TRIPOS>ATOM
      1  C6        -0.8300   29.0130   54.2010 C.2     0  <0>0        0.1166
      2  C7        -2.0960   29.4640   54.4580 C.3     0  <0>0        0.1214
      3  S2        -1.7400   31.0350   55.2320 S.3     0  <0>0       -0.0597
      4  C8         0.0420   30.9360   55.1370 C.2     0  <0>0        0.2117
      5  N2         0.2110   29.7640   54.5540 N.2     0  <0>0       -0.3872
      6  N3         0.9940   31.8470   55.5670 N.pl3   0  <0>0       -0.2685
      7  H8         1.7630   32.0450   55.0090 H       0  <0>0        0.1565
      8  C9         0.8480   32.4780   56.7990 C.ar    0  <0>0        0.1344
      9  N4         0.6770   33.7890   56.8480 N.ar    0  <0>0       -0.2281
     10  C13        0.5300   34.4260   57.9950 C.ar    0  <0>0        0.1116
     11  C12        0.5620   33.7410   59.1950 C.ar    0  <0>0        0.0769
     12  C11        0.7450   32.3630   59.1860 C.ar    0  <0>0        0.0158
     13 Cl          0.3750   34.5910   60.6960 Cl      0  <0>0       -0.0806
     14  C10        0.8900   31.7250   57.9680 C.ar    0  <0>0        0.0354
     15  C3        -0.6210   27.7050   53.5430 C.3     0  <0>0        0.1503
     16  C2        -0.0240   26.5690   54.0220 C.2     0  <0>0        0.1037
     17  C1         0.5430   26.5200   55.4180 C.3     0  <0>0        0.0628
     18  N1         0.0320   25.5200   53.2320 N.2     0  <0>0       -0.4074
     19  C4        -0.4590   25.5480   52.0150 C.2     0  <0>0        0.1347
     20  S1        -1.0750   27.1670   51.9000 S.3     0  <0>0       -0.0739
     21  C5        -0.4820   24.4530   50.9800 C.3     0  <0>0        0.0735
@<TRIPOS>BOND
     1    21    19    1
     2    20    19    1
     3    20    15    1
     4    19    18    2
     5    18    16    2
     6    15    16    1
     7    15     1    1
     8    16    17    1
     9     1     2    1
    10     1     5    2
    11     2     3    1
    12     5     4    2
    13     7     6    1
    14     4     3    1
    15     4     6    1
    16     6     8    1
    17     8     9   ar
    18     8    14   ar
    19     9    10   ar
    20    14    12   ar
    21    10    11   ar
    22    12    11   ar
    23    11    13    1
