@<TRIPOS>MOLECULE
ZINC01930692_replica-1.pdb
 29 31 0 0 0
SMALL
GASTEIGER

@<TRIPOS>ATOM
      1  C4         6.7290   35.4500   58.2310 C.ar    0  <0>0        0.0915
      2  C5         5.3440   35.5760   57.8070 C.ar    0  <0>0       -0.0122
      3  C6         4.4420   35.6580   58.8070 C.ar    0  <0>0        0.0047
      4  S1         5.4020   35.5710   60.2920 S.2     0  <0>0       -0.0767
      5  C7         6.9810   35.4230   59.5960 C.ar    0  <0>0        0.0864
      6  C17        2.9560   35.7920   58.6750 C.3     0  <0>0        0.0327
      7  C18        2.5660   35.4450   57.2310 C.3     0  <0>0        0.0052
      8  C19        3.4940   36.2010   56.2750 C.3     0  <0>0        0.0050
      9  C20        4.9060   35.6160   56.3480 C.3     0  <0>0        0.0268
     10  C21        1.1150   35.8600   56.9770 C.3     0  <0>0        0.0004
     11  N1         8.2010   35.3070   60.2440 N.am    0  <0>0       -0.2774
     12  C8         8.7950   36.3990   60.7640 C.2     0  <0>0        0.2465
     13  O3         8.2630   37.4850   60.6650 O.2     0  <0>0       -0.2729
     14  H7         8.6270   34.4390   60.3230 H       0  <0>0        0.1554
     15  C9        10.1220   36.2730   61.4680 C.3     0  <0>0        0.1739
     16  N2        10.9220   35.2330   60.8200 N.pl3   0  <0>0       -0.3253
     17  H10       11.0240   35.2290   59.8550 H       0  <0>0        0.1473
     18  C10       11.5380   34.2430   61.5910 C.ar    0  <0>0        0.0450
     19  C15       12.8540   34.4020   62.0040 C.ar    0  <0>0        0.0140
     20  C14       13.4590   33.4220   62.7670 C.ar    0  <0>0       -0.0030
     21  C13       12.7570   32.2840   63.1180 C.ar    0  <0>0       -0.0218
     22  C12       11.4460   32.1240   62.7090 C.ar    0  <0>0       -0.0030
     23  C16       13.4210   31.2180   63.9500 C.3     0  <0>0        0.0310
     24  C11       10.8330   33.1020   61.9500 C.ar    0  <0>0        0.0140
     25  C3         7.8160   35.3500   57.2550 C.2     0  <0>0        0.3426
     26  O2         7.9180   34.3590   56.5560 O.2     0  <0>0       -0.2448
     27  O1         8.7060   36.3570   57.1310 O.3     0  <0>0       -0.4454
     28  C2         8.2400   37.5720   56.4870 C.3     0  <0>0        0.2089
     29  C1         8.4340   38.7570   57.4350 C.3     0  <0>0        0.0513
@<TRIPOS>BOND
     1     8     9    1
     2     8     7    1
     3     9     2    1
     4    28    27    1
     5    28    29    1
     6    26    25    2
     7    10     7    1
     8    27    25    1
     9     7     6    1
    10    25     1    1
    11     2     1   ar
    12     2     3   ar
    13     1     5   ar
    14     6     3    1
    15     3     4   ar
    16     5    11    1
    17     5     4   ar
    18    17    16    1
    19    11    14    1
    20    11    12   am
    21    13    12    2
    22    12    15    1
    23    16    15    1
    24    16    18    1
    25    18    24   ar
    26    18    19   ar
    27    24    22   ar
    28    19    20   ar
    29    22    21   ar
    30    20    21   ar
    31    21    23    1
