@<TRIPOS>MOLECULE
ZINC03464288_replica-1.pdb
 29 31 0 0 0
SMALL
GASTEIGER

@<TRIPOS>ATOM
      1  C9        -0.9620   30.6690   54.7550 C.ar    0  <0>0        0.1865
      2  N2         0.2320   31.2280   54.7040 N.ar    0  <0>0       -0.1249
      3  N3         0.8190   31.6980   55.8550 N.ar    0  <0>0       -0.1331
      4  C10        0.1890   31.5770   57.0090 C.ar    0  <0>0        0.1611
      5  S1        -1.3250   30.7760   56.5010 S.2     0  <0>0       -0.0242
      6  S2         0.7010   32.0790   58.6190 S.3     0  <0>0       -0.0768
      7  C11        0.1660   33.8080   58.7310 C.3     0  <0>0        0.1489
      8  C12        0.9780   34.6490   57.7780 C.2     0  <0>0        0.2341
      9  O1         0.4750   35.6150   57.2440 O.2     0  <0>0       -0.2741
     10  N4         2.2610   34.3270   57.5200 N.am    0  <0>0       -0.3015
     11  H14        2.6620   33.5550   57.9480 H       0  <0>0        0.1497
     12  C13        3.0490   35.1450   56.5950 C.3     0  <0>0        0.0941
     13  C14        3.5270   34.2760   55.4290 C.3     0  <0>0        0.0262
     14  C15        4.2420   35.7140   57.3190 C.ar    0  <0>0       -0.0045
     15  C20        4.2040   35.8770   58.6910 C.ar    0  <0>0       -0.0027
     16  C19        5.2980   36.3980   59.3560 C.ar    0  <0>0       -0.0003
     17  C18        6.4300   36.7580   58.6480 C.ar    0  <0>0       -0.0000
     18  C17        6.4680   36.5940   57.2750 C.ar    0  <0>0       -0.0003
     19  C16        5.3750   36.0690   56.6120 C.ar    0  <0>0       -0.0027
     20  N1        -1.7300   30.1370   53.7270 N.pl3   0  <0>0       -0.2913
     21  H11       -2.4870   30.6360   53.3800 H       0  <0>0        0.1541
     22  C5        -1.4140   28.8860   53.1920 C.ar    0  <0>0        0.0494
     23  C4        -1.8620   28.5370   51.9240 C.ar    0  <0>0        0.0143
     24  C3        -1.5470   27.2990   51.3990 C.ar    0  <0>0       -0.0033
     25  C2        -0.7860   26.4080   52.1330 C.ar    0  <0>0       -0.0257
     26  C1        -0.4440   25.0580   51.5570 C.3     0  <0>0        0.0307
     27  C7        -0.3390   26.7520   53.3950 C.ar    0  <0>0       -0.0246
     28  C6        -0.6460   27.9900   53.9250 C.ar    0  <0>0        0.0101
     29  C8         0.4900   25.7770   54.1920 C.3     0  <0>0        0.0307
@<TRIPOS>BOND
     1    24    23   ar
     2    24    25   ar
     3    26    25    1
     4    23    22   ar
     5    25    27   ar
     6    22    20    1
     7    22    28   ar
     8    21    20    1
     9    27    28   ar
    10    27    29    1
    11    20     1    1
    12     2     1   ar
    13     2     3   ar
    14     1     5   ar
    15    13    12    1
    16     3     4   ar
    17     5     4   ar
    18    12    14    1
    19    12    10    1
    20    19    18   ar
    21    19    14   ar
    22     4     6    1
    23     9     8    2
    24    18    17   ar
    25    14    15   ar
    26    10     8   am
    27    10    11    1
    28     8     7    1
    29     6     7    1
    30    17    16   ar
    31    15    16   ar
