@<TRIPOS>MOLECULE
ZINC35587220_replica-1.pdb
 24 25 0 0 0
SMALL
GASTEIGER

@<TRIPOS>ATOM
      1  C9        -0.4610   29.4770   55.3740 C.2     0  <0>0        0.1313
      2  S1        -1.8900   30.0950   56.0860 S.2     0  <0>0       -0.0189
      3  N2         0.5910   30.2920   55.1590 N.am    0  <0>0       -0.3158
      4  H17        1.4000   29.9430   54.7550 H       0  <0>0        0.1485
      5  N1        -0.3880   28.1770   55.0270 N.am    0  <0>0       -0.3177
      6  H16       -0.3720   27.4920   55.7150 H       0  <0>0        0.1484
      7  C6        -0.3350   27.7980   53.6140 C.3     0  <0>0        0.0705
      8  C5        -1.4940   28.4570   52.8640 C.3     0  <0>0        0.0195
      9  C4        -1.4380   28.0600   51.3880 C.3     0  <0>0        0.0017
     10  C3        -1.5500   26.5390   51.2630 C.3     0  <0>0        0.0001
     11  C2        -0.3900   25.8800   52.0130 C.3     0  <0>0        0.0016
     12  C1        -0.5020   24.3590   51.8880 C.3     0  <0>0        0.0001
     13  C7        -0.4460   26.2770   53.4900 C.3     0  <0>0        0.0180
     14  C8         0.7130   25.6180   54.2390 C.3     0  <0>0        0.0017
     15  C10        0.5110   31.7060   55.5350 C.3     0  <0>0        0.0931
     16  C11        1.7430   32.0860   56.3590 C.3     0  <0>0        0.0475
     17  C12        1.3070   32.7570   57.6350 C.ar    0  <0>0       -0.0203
     18  C17        1.2240   34.1360   57.6960 C.ar    0  <0>0       -0.0011
     19  C16        0.8190   34.7540   58.8630 C.ar    0  <0>0        0.0366
     20  C15        0.5060   33.9900   59.9780 C.ar    0  <0>0        0.1387
     21  C14        0.5950   32.6080   59.9160 C.ar    0  <0>0        0.0366
     22  C13        0.9960   31.9940   58.7450 C.ar    0  <0>0       -0.0011
     23  O1         0.1120   34.5970   61.1290 O.3     0  <0>0       -0.4714
     24  C18       -0.4030   33.7550   62.1620 C.3     0  <0>0        0.2525
@<TRIPOS>BOND
     1    10     9    1
     2    10    11    1
     3     9     8    1
     4    12    11    1
     5    11    13    1
     6     8     7    1
     7    13     7    1
     8    13    14    1
     9     7     5    1
    10     4     3    1
    11     5     1    1
    12     5     6    1
    13     3     1    1
    14     3    15    1
    15     1     2    2
    16    15    16    1
    17    16    17    1
    18    17    18   ar
    19    17    22   ar
    20    18    19   ar
    21    22    21   ar
    22    19    20   ar
    23    21    20   ar
    24    20    23    1
    25    23    24    1
