@<TRIPOS>MOLECULE
ZINC21076865_replica-1.pdb
 24 25 0 0 0
SMALL
GASTEIGER

@<TRIPOS>ATOM
      1  C6         0.8990   33.1310   57.2280 C.ar    0  <0>0        0.1909
      2  N1         0.0630   33.0310   56.1520 N.ar    0  <0>0       -0.3033
      3  H1        -0.5070   33.7350   55.8050 H       0  <0>0        0.1706
      4  C7         0.1710   31.7640   55.6510 C.ar    0  <0>0        0.2346
      5  N2         1.0370   31.1090   56.3850 N.ar    0  <0>0       -0.1110
      6  N3         1.5030   31.9770   57.3810 N.ar    0  <0>0       -0.1210
      7  N4        -0.5170   31.2580   54.5560 N.pl3   0  <0>0       -0.2047
      8  H13       -1.1410   31.8220   54.0740 H       0  <0>0        0.1775
      9  N5        -0.3090   29.9340   54.1480 N.2     0  <0>0       -0.1774
     10  C8        -1.1830   29.3430   53.3910 C.2     0  <0>0        0.1184
     11  C9        -0.9640   27.9500   52.9630 C.ar    0  <0>0        0.0313
     12  C14       -1.5320   27.4810   51.7750 C.ar    0  <0>0        0.0600
     13  C13       -1.3180   26.1770   51.3790 C.ar    0  <0>0        0.0228
     14 Cl         -2.4990   28.5410   50.7970 Cl      0  <0>0       -0.0822
     15  C12       -0.5510   25.3290   52.1620 C.ar    0  <0>0        0.0585
     16  C11        0.0100   25.7860   53.3430 C.ar    0  <0>0        0.0115
     17 Cl         -0.2920   23.6890   51.6590 Cl      0  <0>0       -0.0822
     18  C10       -0.1910   27.0890   53.7480 C.ar    0  <0>0        0.0033
     19  S1         1.1300   34.5630   58.2290 S.3     0  <0>0       -0.0758
     20  C5         0.5550   34.0470   59.8700 C.3     0  <0>0        0.0652
     21  C4         1.7360   33.5090   60.6800 C.3     0  <0>0        0.0121
     22  C2         1.2440   32.4310   61.6480 C.3     0  <0>0        0.0009
     23  C1         0.1890   33.0280   62.5810 C.3     0  <0>0        0.0000
     24  C3         0.6290   31.2760   60.8540 C.3     0  <0>0        0.0000
@<TRIPOS>BOND
     1    14    12    1
     2    13    12   ar
     3    13    15   ar
     4    17    15    1
     5    12    11   ar
     6    15    16   ar
     7    11    10    1
     8    11    18   ar
     9    16    18   ar
    10    10     9    2
    11     8     7    1
    12     9     7    1
    13     7     4    1
    14     4     2   ar
    15     4     5   ar
    16     3     2    1
    17     2     1   ar
    18     5     6   ar
    19     1     6   ar
    20     1    19    1
    21    19    20    1
    22    20    21    1
    23    21    22    1
    24    24    22    1
    25    22    23    1
