@<TRIPOS>MOLECULE
ZINC37104230_replica-1.pdb
 21 22 0 0 0
SMALL
GASTEIGER

@<TRIPOS>ATOM
      1  C9        -0.1250   30.1280   54.7400 C.ar    0  <0>0        0.0461
      2  C10       -1.1540   30.9740   54.3430 C.ar    0  <0>0        0.0144
      3  C11       -2.0690   30.5530   53.3970 C.ar    0  <0>0        0.0028
      4  C12       -1.9650   29.2900   52.8450 C.ar    0  <0>0        0.0176
      5  C13       -0.9380   28.4400   53.2370 C.ar    0  <0>0        0.0653
      6  C14       -0.0150   28.8620   54.1820 C.ar    0  <0>0        0.0318
      7  N1         0.8000   30.5540   55.6960 N.pl3   0  <0>0       -0.3340
      8  H18        1.5810   31.0610   55.4230 H       0  <0>0        0.1468
      9  C6         0.5910   30.2350   57.1110 C.3     0  <0>0        0.0690
     10  C5        -0.8940   29.9590   57.3570 C.3     0  <0>0        0.0195
     11  C3        -1.0530   28.5990   58.0390 C.3     0  <0>0        0.0016
     12  C4         0.2300   27.7850   57.8600 C.3     0  <0>0        0.0001
     13  C2        -2.2270   27.8460   57.4080 C.3     0  <0>0        0.0001
     14  C1        -3.0580   28.8140   56.5630 C.3     0  <0>0        0.0000
     15  C7         1.0400   31.4160   57.9720 C.3     0  <0>0        0.0195
     16  C8         0.0990   32.6010   57.7430 C.3     0  <0>0        0.0017
     17  N2        -0.8340   27.1600   52.6760 N.ar    0  <0>0       -0.3035
     18  C18       -0.1570   26.1050   53.2170 C.ar    0  <0>0        0.0802
     19  C17       -0.2900   25.0500   52.3900 C.ar    0  <0>0        0.0205
     20  C16       -1.0700   25.4670   51.2930 C.ar    0  <0>0        0.0205
     21  C15       -1.3900   26.7620   51.4930 C.ar    0  <0>0        0.0802
@<TRIPOS>BOND
     1    20    21   ar
     2    20    19   ar
     3    21    17   ar
     4    19    18   ar
     5    17    18   ar
     6    17     5    1
     7     4     5   ar
     8     4     3   ar
     9     5     6   ar
    10     3     2   ar
    11     6     1   ar
    12     2     1   ar
    13     1     7    1
    14     8     7    1
    15     7     9    1
    16    14    13    1
    17     9    10    1
    18     9    15    1
    19    10    11    1
    20    13    11    1
    21    16    15    1
    22    12    11    1
