@<TRIPOS>MOLECULE
ZINC14023387_replica-1.pdb
 29 30 0 0 0
SMALL
GASTEIGER

@<TRIPOS>ATOM
      1  C4         0.3240   30.5770   55.8520 C.2     0  <0>0        0.2782
      2  O1         0.7280   30.1960   56.9310 O.2     0  <0>0       -0.2697
      3  N1         0.9010   31.6380   55.2540 N.am    0  <0>0       -0.2307
      4  H7         0.5790   31.9430   54.3910 H       0  <0>0        0.1729
      5  N2         1.9670   32.3000   55.8770 N.am    0  <0>0       -0.2302
      6  C5         1.7420   33.4280   56.5790 C.2     0  <0>0        0.2614
      7  O2         0.6150   33.8740   56.6680 O.2     0  <0>0       -0.2686
      8  H8         2.8670   31.9440   55.8060 H       0  <0>0        0.1731
      9  C6         2.8670   34.1240   57.2410 C.ar    0  <0>0        0.0548
     10  C11        2.7000   35.4210   57.7280 C.ar    0  <0>0        0.0042
     11  C10        3.7530   36.0640   58.3450 C.ar    0  <0>0       -0.0041
     12  C9         4.9730   35.4250   58.4820 C.ar    0  <0>0       -0.0228
     13  C8         5.1450   34.1390   58.0020 C.ar    0  <0>0       -0.0041
     14  C7         4.0980   33.4830   57.3880 C.ar    0  <0>0        0.0042
     15  C12        6.1180   36.1340   59.1570 C.3     0  <0>0        0.0189
     16  C13        7.0100   36.7860   58.0990 C.3     0  <0>0        0.0044
     17  C14        5.5690   37.2120   60.0950 C.3     0  <0>0        0.0044
     18  C15        6.9380   35.1270   59.9650 C.3     0  <0>0        0.0044
     19  C3        -0.8220   29.8660   55.1810 C.3     0  <0>0        0.2424
     20  C2        -2.0130   29.8010   56.1390 C.3     0  <0>0        0.0532
     21  C1        -3.0940   30.7800   55.6750 C.3     0  <0>0        0.0044
     22  O3        -0.4200   28.5390   54.8330 O.3     0  <0>0       -0.4699
     23  C16       -0.8090   28.0770   53.6150 C.ar    0  <0>0        0.1388
     24  C21       -0.4460   26.8020   53.2060 C.ar    0  <0>0        0.0327
     25  C20       -0.8430   26.3350   51.9680 C.ar    0  <0>0       -0.0188
     26  C19       -1.6010   27.1380   51.1360 C.ar    0  <0>0       -0.0041
     27  C22       -0.4480   24.9510   51.5230 C.3     0  <0>0        0.0311
     28  C18       -1.9650   28.4090   51.5410 C.ar    0  <0>0        0.0028
     29  C17       -1.5760   28.8780   52.7810 C.ar    0  <0>0        0.0369
@<TRIPOS>BOND
     1    26    28   ar
     2    26    25   ar
     3    27    25    1
     4    28    29   ar
     5    25    24   ar
     6    29    23   ar
     7    24    23   ar
     8    23    22    1
     9     4     3    1
    10    22    19    1
    11    19     1    1
    12    19    20    1
    13     3     1   am
    14     3     5    1
    15    21    20    1
    16     8     5    1
    17     1     2    2
    18     5     6   am
    19     6     7    2
    20     6     9    1
    21     9    14   ar
    22     9    10   ar
    23    14    13   ar
    24    10    11   ar
    25    13    12   ar
    26    16    15    1
    27    11    12   ar
    28    12    15    1
    29    15    18    1
    30    15    17    1
