@<TRIPOS>MOLECULE
ZINC37060465_replica-1.pdb
 22 23 0 0 0
SMALL
GASTEIGER

@<TRIPOS>ATOM
      1  N1        -0.3580   30.6280   56.5960 N.pl3   0  <0>0       -0.3322
      2  H14       -0.1180   29.6880   56.6170 H       0  <0>0        0.1468
      3  C2        -1.1540   31.1550   55.4850 C.3     0  <0>0        0.0695
      4  C1        -2.6220   30.7710   55.6830 C.3     0  <0>0        0.0212
      5  C3        -0.6450   30.5670   54.1680 C.3     0  <0>0        0.0242
      6  C4        -1.7870   29.8340   53.4610 C.3     0  <0>0        0.0280
      7  C5        -1.3150   28.4730   53.0230 C.ar    0  <0>0       -0.0221
      8  C10       -0.5160   27.7150   53.8580 C.ar    0  <0>0       -0.0043
      9  C9        -0.0870   26.4630   53.4570 C.ar    0  <0>0       -0.0003
     10  C8        -0.4500   25.9730   52.2160 C.ar    0  <0>0       -0.0000
     11  C7        -1.2450   26.7330   51.3790 C.ar    0  <0>0       -0.0003
     12  C6        -1.6770   27.9830   51.7810 C.ar    0  <0>0       -0.0043
     13  C11        0.0580   31.4780   57.6250 C.ar    0  <0>0        0.0741
     14  C16        0.3040   30.9680   58.8950 C.ar    0  <0>0        0.1532
     15  C15        0.7190   31.8130   59.9080 C.ar    0  <0>0        0.0326
     16  F1         0.1430   29.6490   59.1370 F       0  <0>0       -0.2029
     17  C14        0.8780   33.1640   59.6620 C.ar    0  <0>0        0.0265
     18  C13        0.6300   33.6740   58.4010 C.ar    0  <0>0        0.1442
     19  C12        0.2200   32.8350   57.3820 C.ar    0  <0>0        0.0406
     20  N2         0.8030   35.1220   58.1430 N.pl3   0  <0>0        0.0577
     21  O1         0.3350   35.6170   57.1430 O.2     0  <0>0       -0.1261
     22  O2         1.4100   35.8080   58.9300 O.2     0  <0>0       -0.1261
@<TRIPOS>BOND
     1    11    12   ar
     2    11    10   ar
     3    12     7   ar
     4    10     9   ar
     5     7     6    1
     6     7     8   ar
     7     9     8   ar
     8     6     5    1
     9     5     3    1
    10     3     4    1
    11     3     1    1
    12     1     2    1
    13     1    13    1
    14    21    20    2
    15    19    13   ar
    16    19    18   ar
    17    13    14   ar
    18    20    18    1
    19    20    22    2
    20    18    17   ar
    21    14    16    1
    22    14    15   ar
    23    17    15   ar
