@<TRIPOS>MOLECULE
ZINC66154651_replica-1.pdb
 28 29 0 0 0
SMALL
GASTEIGER

@<TRIPOS>ATOM
      1  C13        8.5850   36.9900   61.4840 C.3     0  <0>0        0.1312
      2  C11        7.6210   36.9650   60.2950 C.3     0  <0>0        0.1854
      3  C12        6.3250   36.2620   60.7040 C.3     0  <0>0        0.0491
      4  O1         8.2230   36.2590   59.2080 O.3     0  <0>0       -0.4777
      5  C10        7.9110   36.6780   57.9540 C.ar    0  <0>0        0.1344
      6  C5         7.3210   35.8010   57.0560 C.ar    0  <0>0        0.0115
      7  C6         6.9990   36.2300   55.7830 C.ar    0  <0>0       -0.0013
      8  C7         7.2700   37.5310   55.4010 C.ar    0  <0>0       -0.0001
      9  C8         7.8650   38.4060   56.2930 C.ar    0  <0>0        0.0031
     10  C9         8.1880   37.9810   57.5660 C.ar    0  <0>0        0.0366
     11  C3         7.0240   34.3820   57.4710 C.3     0  <0>0        0.0253
     12  C4         5.8430   33.8490   56.6580 C.3     0  <0>0        0.0048
     13  C2         8.2550   33.5090   57.2170 C.3     0  <0>0        0.0045
     14  C1         8.4200   32.5140   58.3670 C.3     0  <0>0        0.0003
     15  N1         9.9590   36.8330   61.0010 N.pl3   0  <0>0       -0.3298
     16  H20       10.2720   37.3610   60.2500 H       0  <0>0        0.1469
     17  C14       10.8180   35.9240   61.6230 C.ar    0  <0>0        0.0448
     18  C19       10.8710   34.6070   61.1840 C.ar    0  <0>0        0.0155
     19  C18       11.7250   33.7110   61.7980 C.ar    0  <0>0        0.0143
     20  C17       12.5170   34.1210   62.8550 C.ar    0  <0>0        0.0315
     21  C16       12.4610   35.4300   63.2970 C.ar    0  <0>0        0.0143
     22  C15       11.6140   36.3320   62.6850 C.ar    0  <0>0        0.0155
     23  N2        13.3760   33.2110   63.4770 N.pl3   0  <0>0       -0.3758
     24  H35       13.2070   33.2150   64.4710 H       0  <0>0        0.1277
     25  C20       13.1340   31.8640   62.9430 C.3     0  <0>0        0.0726
     26  C21       13.0730   30.8610   64.0970 C.3     0  <0>0        0.0215
     27  C22       14.7710   33.5960   63.2160 C.3     0  <0>0        0.0726
     28  C23       15.4950   33.8200   64.5460 C.3     0  <0>0        0.0215
@<TRIPOS>BOND
     1     8     7   ar
     2     8     9   ar
     3     7     6   ar
     4     9    10   ar
     5    12    11    1
     6     6    11    1
     7     6     5   ar
     8    13    11    1
     9    13    14    1
    10    10     5   ar
    11     5     4    1
    12     4     2    1
    13    16    15    1
    14     2     3    1
    15     2     1    1
    16    15     1    1
    17    15    17    1
    18    18    17   ar
    19    18    19   ar
    20    17    22   ar
    21    19    20   ar
    22    22    21   ar
    23    20    21   ar
    24    20    23    1
    25    25    23    1
    26    25    26    1
    27    27    23    1
    28    27    28    1
    29    23    24    1
