@<TRIPOS>MOLECULE
ZINC40281053_replica-1.pdb
 21 23 0 0 0
SMALL
GASTEIGER

@<TRIPOS>ATOM
      1  C8         8.0910   36.7990   57.6010 C.3     0  <0>0        0.1012
      2 Br          8.3230   38.7140   57.2250 Br      0  <0>0       -0.0720
      3  C7         8.9200   36.4180   58.8000 C.ar    0  <0>0       -0.0116
      4  C2         9.3760   35.1210   58.9410 C.ar    0  <0>0       -0.0217
      5  C1         9.0420   34.0890   57.8950 C.3     0  <0>0        0.0308
      6  C3        10.1410   34.7700   60.0370 C.ar    0  <0>0        0.0324
      7  C4        10.4480   35.7210   61.0000 C.ar    0  <0>0        0.1384
      8  C5         9.9850   37.0220   60.8590 C.ar    0  <0>0        0.0366
      9  C6         9.2200   37.3670   59.7610 C.ar    0  <0>0       -0.0003
     10  O3        11.2000   35.3790   62.0780 O.3     0  <0>0       -0.4714
     11  C17       12.1420   34.3180   61.9010 C.3     0  <0>0        0.2525
     12  C9         6.6380   36.5150   57.8840 C.ar    0  <0>0       -0.0046
     13  C14        5.7920   36.1550   56.8520 C.ar    0  <0>0        0.0369
     14  C13        4.4560   35.8870   57.1110 C.ar    0  <0>0        0.1721
     15  C12        3.9690   35.9900   58.4090 C.ar    0  <0>0        0.1724
     16  O1         3.6340   35.5350   56.0850 O.3     0  <0>0       -0.4684
     17  C11        4.8220   36.3580   59.4380 C.ar    0  <0>0        0.0398
     18  O2         2.6610   35.7320   58.6850 O.3     0  <0>0       -0.4684
     19  C10        6.1530   36.6190   59.1740 C.ar    0  <0>0        0.0002
     20  C16        1.7570   35.7330   57.5750 C.3     0  <0>0        0.2526
     21  C15        2.3910   34.9200   56.4380 C.3     0  <0>0        0.2526
@<TRIPOS>BOND
     1    16    21    1
     2    16    14    1
     3    21    20    1
     4    13    14   ar
     5    13    12   ar
     6    14    15   ar
     7     2     1    1
     8    20    18    1
     9     1    12    1
    10     1     3    1
    11    12    19   ar
    12     5     4    1
    13    15    18    1
    14    15    17   ar
    15     3     4   ar
    16     3     9   ar
    17     4     6   ar
    18    19    17   ar
    19     9     8   ar
    20     6     7   ar
    21     8     7   ar
    22     7    10    1
    23    11    10    1
