@<TRIPOS>MOLECULE
ZINC05388092_replica-1.pdb
 20 22 0 0 0
SMALL
GASTEIGER

@<TRIPOS>ATOM
      1  C5         4.7690   35.5690   57.0720 C.ar    0  <0>0        0.1071
      2  C6         4.8350   34.9600   55.7940 C.ar    0  <0>0        0.0263
      3  C7         5.8990   35.2540   54.9940 C.ar    0  <0>0        0.0638
      4  C8         6.8710   36.1510   55.4910 C.ar    0  <0>0        0.2768
      5  O1         7.8410   36.4440   54.8100 O.2     0  <0>0       -0.2655
      6  N1         6.7220   36.6800   56.7190 N.ar    0  <0>0       -0.2121
      7  N2         5.7120   36.3970   57.4590 N.ar    0  <0>0       -0.1660
      8  C9         7.7370   37.6080   57.2230 C.3     0  <0>0        0.1571
      9  C10        8.5720   36.9170   58.2720 C.ar    0  <0>0        0.0022
     10  C15        9.0800   35.6550   58.0280 C.ar    0  <0>0       -0.0018
     11  C14        9.8470   35.0220   58.9900 C.ar    0  <0>0        0.0064
     12  C13       10.1030   35.6520   60.1940 C.ar    0  <0>0        0.0345
     13  C12        9.5940   36.9150   60.4370 C.ar    0  <0>0        0.0064
     14 Br         11.1500   34.7850   61.5100 Br      0  <0>0       -0.0490
     15  C11        8.8330   37.5490   59.4730 C.ar    0  <0>0       -0.0018
     16  C3         3.6310   35.2750   57.9690 C.ar    0  <0>0        0.0488
     17  C2         2.4530   35.9570   58.1190 C.ar    0  <0>0        0.0086
     18  C1         1.5270   35.4880   59.0240 C.ar    0  <0>0        0.0075
     19  C4         1.8120   34.3730   59.7430 C.ar    0  <0>0        0.0355
     20  S1         3.4340   33.9400   59.1360 S.2     0  <0>0       -0.0849
@<TRIPOS>BOND
     1     5     4    2
     2     3     4   ar
     3     3     2   ar
     4     4     6   ar
     5     2     1   ar
     6     6     8    1
     7     6     7   ar
     8     1     7   ar
     9     1    16    1
    10     8     9    1
    11    16    17   ar
    12    16    20   ar
    13    10     9   ar
    14    10    11   ar
    15    17    18   ar
    16     9    15   ar
    17    11    12   ar
    18    18    19   ar
    19    20    19   ar
    20    15    13   ar
    21    12    13   ar
    22    12    14    1
