@<TRIPOS>MOLECULE
ZINC02459158_replica-1.pdb
 29 32 0 0 0
SMALL
GASTEIGER

@<TRIPOS>ATOM
      1  N1         7.3120   35.4180   57.6220 N.am    0  <0>0       -0.2524
      2  C8         7.4650   34.0340   57.7020 C.ar    0  <0>0        0.0529
      3  C9         6.9660   33.0130   56.8940 C.ar    0  <0>0        0.0147
      4  C10        7.2610   31.6970   57.1810 C.ar    0  <0>0        0.0013
      5  C11        8.0530   31.3780   58.2690 C.ar    0  <0>0       -0.0002
      6  C12        8.5530   32.3850   59.0760 C.ar    0  <0>0       -0.0003
      7  C13        8.2600   33.7000   58.7920 C.ar    0  <0>0        0.0242
      8  C14        8.6390   35.0040   59.4560 C.3     0  <0>0        0.1840
      9  C15        7.9640   36.0590   58.6060 C.2     0  <0>0        0.2581
     10  O1         8.0040   37.2590   58.7820 O.2     0  <0>0       -0.2716
     11  C16       10.1580   35.1910   59.4430 C.3     0  <0>0        0.1092
     12  C17       10.6410   35.4740   60.8420 C.2     0  <0>0        0.1762
     13  O2        10.4600   36.5670   61.3360 O.2     0  <0>0       -0.2912
     14  C18       11.3310   34.4260   61.6080 C.ar    0  <0>0        0.0348
     15  C23       10.6840   33.2170   61.8840 C.ar    0  <0>0        0.0033
     16  C22       11.3360   32.2380   62.6020 C.ar    0  <0>0        0.0068
     17  C21       12.6300   32.4500   63.0510 C.ar    0  <0>0        0.0346
     18  C20       13.2770   33.6440   62.7810 C.ar    0  <0>0        0.0068
     19 Br         13.5180   31.1010   64.0350 Br      0  <0>0       -0.0490
     20  C19       12.6400   34.6300   62.0590 C.ar    0  <0>0        0.0033
     21  O3         8.1420   35.0470   60.7950 O.3     0  <0>0       -0.3738
     22  H18        8.3090   35.8830   61.2500 H       0  <0>0        0.2113
     23  C7         6.5310   36.0950   56.5840 C.3     0  <0>0        0.1248
     24  C4         5.0690   36.0520   56.9480 C.ar    0  <0>0       -0.0020
     25  C3         4.1090   36.0150   55.9540 C.ar    0  <0>0       -0.0026
     26  C2         2.7680   35.9760   56.2880 C.ar    0  <0>0       -0.0003
     27  C1         2.3870   35.9720   57.6170 C.ar    0  <0>0       -0.0000
     28  C6         3.3460   36.0090   58.6110 C.ar    0  <0>0       -0.0003
     29  C5         4.6880   36.0440   58.2770 C.ar    0  <0>0       -0.0026
@<TRIPOS>BOND
     1    25    26   ar
     2    25    24   ar
     3    26    27   ar
     4    23    24    1
     5    23     1    1
     6     3     4   ar
     7     3     2   ar
     8    24    29   ar
     9     4     5   ar
    10    27    28   ar
    11     1     2    1
    12     1     9   am
    13     2     7   ar
    14     5     6   ar
    15    29    28   ar
    16     9    10    2
    17     9     8    1
    18     7     6   ar
    19     7     8    1
    20    11     8    1
    21    11    12    1
    22     8    21    1
    23    21    22    1
    24    12    13    2
    25    12    14    1
    26    14    15   ar
    27    14    20   ar
    28    15    16   ar
    29    20    18   ar
    30    16    17   ar
    31    18    17   ar
    32    17    19    1
