@<TRIPOS>MOLECULE
ZINC00206926_replica-1.pdb
 25 28 0 0 0
SMALL
GASTEIGER

@<TRIPOS>ATOM
      1  C8         9.3060   35.3990   59.7680 C.2     0  <0>0        0.1857
      2  C9         8.4460   34.2230   60.0050 C.2     0  <0>0        0.2826
      3  O1         7.3340   34.1640   59.5160 O.2     0  <0>0       -0.2668
      4  N2         8.9090   33.2130   60.7730 N.am    0  <0>0       -0.2493
      5  C10       10.1820   33.3070   61.3190 C.2     0  <0>0        0.0800
      6  C11       10.6540   32.2740   62.1030 C.2     0  <0>0        0.0169
      7  C12       11.9350   32.3510   62.6630 C.ar    0  <0>0       -0.0022
      8  C13       12.4550   31.3230   63.4690 C.ar    0  <0>0       -0.0003
      9  C14       13.7060   31.4470   63.9890 C.ar    0  <0>0       -0.0000
     10  C15       14.4930   32.5700   63.7440 C.ar    0  <0>0       -0.0003
     11  C16       14.0490   33.5990   62.9740 C.ar    0  <0>0       -0.0038
     12  C17       12.7610   33.5340   62.4060 C.ar    0  <0>0       -0.0150
     13  C18       12.2560   34.5620   61.6080 C.3     0  <0>0        0.0865
     14  C19       10.9760   34.4510   61.0670 C.2     0  <0>0        0.1271
     15  N3        10.5050   35.4530   60.2940 N.2     0  <0>0       -0.4000
     16  C20        8.0780   32.0340   61.0270 C.3     0  <0>0        0.1205
     17  C7         8.8170   36.5130   58.9300 C.ar    0  <0>0        0.0472
     18  C2         8.6740   36.3440   57.5450 C.ar    0  <0>0        0.0473
     19  C3         8.2140   37.3980   56.7680 C.ar    0  <0>0        0.0144
     20  C4         7.8950   38.6050   57.3590 C.ar    0  <0>0        0.0013
     21  C5         8.0390   38.7760   58.7260 C.ar    0  <0>0        0.0002
     22  C6         8.4950   37.7400   59.5120 C.ar    0  <0>0        0.0039
     23  N1         8.9920   35.1250   56.9520 N.pl3   0  <0>0       -0.3312
     24  C1         7.9540   34.3510   56.2670 C.3     0  <0>0        0.1085
     25  H4         9.9010   34.7880   56.9940 H       0  <0>0        0.1469
@<TRIPOS>BOND
     1    24    23    1
     2    19    20   ar
     3    19    18   ar
     4    23    25    1
     5    23    18    1
     6    20    21   ar
     7    18    17   ar
     8    21    22   ar
     9    17    22   ar
    10    17     1    1
    11     3     2    2
    12     1     2    1
    13     1    15    2
    14     2     4   am
    15    15    14    2
    16     4    16    1
    17     4     5    1
    18    14     5    1
    19    14    13    1
    20     5     6    2
    21    13    12    1
    22     6     7    1
    23    12     7   ar
    24    12    11   ar
    25     7     8   ar
    26    11    10   ar
    27     8     9   ar
    28    10     9   ar
