@<TRIPOS>MOLECULE
ZINC22018010_replica-1.pdb
 30 33 0 0 0
SMALL
GASTEIGER

@<TRIPOS>ATOM
      1  N1        -1.2060   26.9600   57.2470 N.2     0  <0>0       -0.2699
      2  C8        -1.4220   28.1700   57.6510 C.2     0  <0>0        0.0549
      3  C9        -1.9640   29.1990   56.6930 C.3     0  <0>0        0.0611
      4  C10       -0.8780   29.5770   55.6840 C.3     0  <0>0        0.1329
      5  C11       -1.4150   29.4180   54.2840 C.ar    0  <0>0        0.0070
      6  C14       -1.1730   28.2910   53.3800 C.ar    0  <0>0        0.0136
      7  C13       -1.8770   28.5840   52.1980 C.ar    0  <0>0        0.0563
      8  C15       -0.4440   27.1050   53.4820 C.ar    0  <0>0        0.0012
      9  N2        -2.4890   29.8030   52.3800 N.ar    0  <0>0       -0.3522
     10  C18       -1.8360   27.6810   51.1410 C.ar    0  <0>0        0.0170
     11  C12       -2.2030   30.2850   53.6290 C.ar    0  <0>0        0.0686
     12  H2        -3.1260   30.3850   51.6980 H       0  <0>0        0.1660
     13  C17       -1.1050   26.5190   51.2610 C.ar    0  <0>0        0.0015
     14  C16       -0.4150   26.2340   52.4310 C.ar    0  <0>0        0.0001
     15  C19       -0.4660   31.0100   55.9030 C.2     0  <0>0        0.3688
     16  O1         0.5050   31.4530   55.3350 O.co2   0  <0>0       -0.2453
     17  O2        -1.1750   31.7940   56.7290 O.co2   0  <0>0       -0.2453
     18  C20       -1.1390   28.5410   59.0510 C.ar    0  <0>0        0.0132
     19  C25       -1.9610   28.0770   60.0800 C.ar    0  <0>0        0.0012
     20  C24       -1.6910   28.4270   61.3870 C.ar    0  <0>0        0.0000
     21  C23       -0.6070   29.2360   61.6790 C.ar    0  <0>0        0.0000
     22  C22        0.2110   29.7000   60.6650 C.ar    0  <0>0        0.0000
     23  C21       -0.0440   29.3530   59.3540 C.ar    0  <0>0        0.0012
     24  C7        -0.5630   25.9940   58.1400 C.3     0  <0>0        0.1514
     25  C4        -0.1710   24.7680   57.3540 C.ar    0  <0>0        0.0020
     26  C3        -0.3270   23.5120   57.9100 C.ar    0  <0>0       -0.0023
     27  C2         0.0310   22.3880   57.1900 C.ar    0  <0>0       -0.0003
     28  C1         0.5450   22.5210   55.9130 C.ar    0  <0>0       -0.0000
     29  C6         0.7010   23.7770   55.3580 C.ar    0  <0>0       -0.0003
     30  C5         0.3380   24.9000   56.0760 C.ar    0  <0>0       -0.0023
@<TRIPOS>BOND
     1    10    13   ar
     2    10     7   ar
     3    13    14   ar
     4    12     9    1
     5     7     9   ar
     6     7     6   ar
     7     9    11   ar
     8    14     8   ar
     9     6     8   ar
    10     6     5   ar
    11    11     5   ar
    12     5     4    1
    13    16    15   ar
    14    29    28   ar
    15    29    30   ar
    16     4    15    1
    17     4     3    1
    18    15    17   ar
    19    28    27   ar
    20    30    25   ar
    21     3     2    1
    22    27    26   ar
    23     1     2    2
    24     1    24    1
    25    25    26   ar
    26    25    24    1
    27     2    18    1
    28    18    23   ar
    29    18    19   ar
    30    23    22   ar
    31    19    20   ar
    32    22    21   ar
    33    20    21   ar
