@<TRIPOS>MOLECULE
ZINC61892931_replica-1.pdb
 21 21 0 0 0
SMALL
GASTEIGER

@<TRIPOS>ATOM
      1  C6        10.3780   35.8610   60.8750 C.ar    0  <0>0       -0.0202
      2  C7         9.4550   36.8670   61.0910 C.ar    0  <0>0       -0.0037
      3  C8         8.5240   37.1730   60.1180 C.ar    0  <0>0        0.0061
      4  C9         8.5160   36.4680   58.9200 C.ar    0  <0>0        0.0327
      5  C10        9.4470   35.4580   58.7070 C.ar    0  <0>0        0.0061
      6  C11       10.3780   35.1620   59.6820 C.ar    0  <0>0       -0.0037
      7  C5        11.3920   35.5300   61.9410 C.3     0  <0>0        0.0532
      8  C4        11.8400   34.0760   61.7840 C.3     0  <0>0        0.1555
      9  C3        12.9450   33.7810   62.7650 C.2     0  <0>0        0.3315
     10  O2        13.1370   34.5230   63.7000 O.2     0  <0>0       -0.2486
     11  O1        13.7170   32.6960   62.5990 O.3     0  <0>0       -0.4476
     12  C2        13.7960   31.7820   63.6960 C.3     0  <0>0        0.2086
     13  C1        12.9210   30.5610   63.4050 C.3     0  <0>0        0.0513
     14  N1        10.7040   33.1820   62.0430 N.3     0  <0>0       -0.3131
     15  H13       11.0210   32.2600   62.3040 H       0  <0>0        0.1193
     16  H14       10.0940   33.5680   62.7480 H       0  <0>0        0.1193
     17  S1         7.3310   36.8550   57.6750 S.3     0  <0>0       -0.0144
     18  C12        7.8420   38.4890   57.0740 C.3     0  <0>0        0.4477
     19  F1         9.2380   38.5440   57.0040 F       0  <0>0       -0.1600
     20  F2         7.3020   38.7080   55.8030 F       0  <0>0       -0.1600
     21  F3         7.3810   39.4730   57.9540 F       0  <0>0       -0.1600
@<TRIPOS>BOND
     1    20    18    1
     2    19    18    1
     3    18    17    1
     4    18    21    1
     5    17     4    1
     6     5     4   ar
     7     5     6   ar
     8     4     3   ar
     9     6     1   ar
    10     3     2   ar
    11     1     2   ar
    12     1     7    1
    13     8     7    1
    14     8    14    1
    15     8     9    1
    16    14    15    1
    17    14    16    1
    18    11     9    1
    19    11    12    1
    20     9    10    2
    21    13    12    1
