@<TRIPOS>MOLECULE
ZINC23329183_replica-1.pdb
 28 30 0 0 0
SMALL
GASTEIGER

@<TRIPOS>ATOM
      1  C9        -0.2510   29.9910   56.5940 C.ar    0  <0>0        0.2094
      2  N1         0.0140   29.9800   57.8800 N.ar    0  <0>0       -0.1207
      3  N2         0.6910   31.0260   58.1950 N.ar    0  <0>0       -0.1274
      4  C10        0.8960   31.7600   57.1380 C.ar    0  <0>0        0.2042
      5  N3         0.3090   31.1240   56.0800 N.ar    0  <0>0       -0.2242
      6  C11        1.6470   33.0660   57.0900 C.3     0  <0>0        0.2719
      7  O1         2.5080   33.0790   55.9480 O.3     0  <0>0       -0.4672
      8  C12        3.4880   34.0200   55.9250 C.ar    0  <0>0        0.1392
      9  C17        3.1600   35.3650   55.8630 C.ar    0  <0>0        0.0366
     10  C16        4.1590   36.3190   55.8460 C.ar    0  <0>0       -0.0012
     11  C15        5.4860   35.9330   55.8790 C.ar    0  <0>0       -0.0223
     12  C14        5.8170   34.5910   55.9360 C.ar    0  <0>0       -0.0012
     13  C13        4.8210   33.6340   55.9600 C.ar    0  <0>0        0.0366
     14  C18        6.5740   36.9750   55.8540 C.3     0  <0>0        0.0224
     15  C19        7.1010   37.1950   57.2740 C.3     0  <0>0        0.0047
     16  C20        7.7150   36.5000   54.9530 C.3     0  <0>0        0.0047
     17  N4         0.2860   31.5380   54.7780 N.pl3   0  <0>0       -0.2947
     18  H10       -0.2160   30.8810   54.1990 H       0  <0>0        0.1627
     19  H11       -0.1080   32.4640   54.7000 H       0  <0>0        0.1627
     20  S1        -1.1520   28.7680   55.7000 S.3     0  <0>0       -0.0706
     21  C2         0.1370   27.7360   54.9470 C.3     0  <0>0        0.0770
     22  C1         0.4670   26.5700   55.8820 C.3     0  <0>0        0.0169
     23  C3        -0.3560   27.1990   53.6280 C.ar    0  <0>0       -0.0120
     24  C8        -0.0670   25.8990   53.2600 C.ar    0  <0>0       -0.0034
     25  C7        -0.5220   25.4050   52.0520 C.ar    0  <0>0       -0.0003
     26  C6        -1.2600   26.2150   51.2080 C.ar    0  <0>0       -0.0000
     27  C5        -1.5440   27.5180   51.5740 C.ar    0  <0>0       -0.0003
     28  C4        -1.0920   28.0100   52.7840 C.ar    0  <0>0       -0.0034
@<TRIPOS>BOND
     1    26    27   ar
     2    26    25   ar
     3    27    28   ar
     4    25    24   ar
     5    28    23   ar
     6    24    23   ar
     7    23    21    1
     8    18    17    1
     9    19    17    1
    10    17     5    1
    11    21    20    1
    12    21    22    1
    13    16    14    1
    14    20     1    1
    15    10     9   ar
    16    10    11   ar
    17    14    11    1
    18    14    15    1
    19     9     8   ar
    20    11    12   ar
    21     8     7    1
    22     8    13   ar
    23    12    13   ar
    24     7     6    1
    25     5     1   ar
    26     5     4   ar
    27     1     2   ar
    28     6     4    1
    29     4     3   ar
    30     2     3   ar
