@<TRIPOS>MOLECULE
ZINC46769001_replica-1.pdb
 28 31 0 0 0
SMALL
GASTEIGER

@<TRIPOS>ATOM
      1  C10        0.5700   32.4490   56.5120 C.ar    0  <0>0        0.1985
      2  C11       -0.2120   31.8480   57.4720 C.ar    0  <0>0        0.0454
      3  C12       -0.6310   30.6220   56.9460 C.ar    0  <0>0        0.0440
      4  C13       -0.0880   30.5200   55.6850 C.ar    0  <0>0        0.1812
      5  O2         0.6270   31.6330   55.4400 O.2     0  <0>0       -0.4458
      6  C9         1.2250   33.7560   56.6320 C.2     0  <0>0        0.2808
      7  N1         2.4400   33.9540   56.0810 N.am    0  <0>0       -0.2961
      8  H8         2.8800   33.2330   55.6050 H       0  <0>0        0.1501
      9  O1         0.6730   34.6610   57.2290 O.2     0  <0>0       -0.2668
     10  C2         3.0940   35.2590   56.2020 C.3     0  <0>0        0.0967
     11  C1         3.7710   35.6140   54.8760 C.3     0  <0>0        0.0263
     12  C3         4.1290   35.2030   57.2950 C.ar    0  <0>0        0.0252
     13  C8         3.8860   35.8200   58.5110 C.ar    0  <0>0        0.1378
     14  C7         4.8350   35.7640   59.5180 C.ar    0  <0>0        0.0317
     15  F1         2.7210   36.4720   58.7160 F       0  <0>0       -0.2044
     16  C6         6.0290   35.1020   59.3050 C.ar    0  <0>0        0.0319
     17  C5         6.2740   34.4890   58.0880 C.ar    0  <0>0        0.1400
     18  C4         5.3230   34.5400   57.0830 C.ar    0  <0>0        0.0292
     19  F2         7.4410   33.8410   57.8820 F       0  <0>0       -0.2042
     20  C14       -0.2650   29.3890   54.7600 C.2     0  <0>0        0.1954
     21  S1         0.4000   27.7330   54.8720 S.3     0  <0>0       -0.0501
     22  C20       -0.3210   27.1070   53.3750 C.2     0  <0>0        0.0575
     23  C15       -1.0250   28.2330   52.8840 C.2     0  <0>0        0.1376
     24  C19       -0.3040   25.9010   52.7160 C.2     0  <0>0       -0.0123
     25  N2        -0.9480   29.3400   53.6360 N.2     0  <0>0       -0.3918
     26  C16       -1.7220   28.0500   51.6640 C.2     0  <0>0        0.0283
     27  C17       -1.6980   26.8530   51.0220 C.2     0  <0>0       -0.0188
     28  C18       -0.9980   25.7650   51.5280 C.3     0  <0>0        0.0527
@<TRIPOS>BOND
     1    27    28    1
     2    27    26    2
     3    28    24    1
     4    26    23    1
     5    24    22    2
     6    23    22    1
     7    23    25    2
     8    22    21    1
     9    25    20    2
    10    20    21    1
    11    20     4    1
    12    11    10    1
    13     5     4   ar
    14     5     1   ar
    15     8     7    1
    16     4     3   ar
    17     7    10    1
    18     7     6   am
    19    10    12    1
    20     1     6    1
    21     1     2   ar
    22     6     9    2
    23     3     2   ar
    24    18    12   ar
    25    18    17   ar
    26    12    13   ar
    27    19    17    1
    28    17    16   ar
    29    13    15    1
    30    13    14   ar
    31    16    14   ar
