@<TRIPOS>MOLECULE
ZINC50504100_replica-1.pdb
 20 21 0 0 0
SMALL
GASTEIGER

@<TRIPOS>ATOM
      1  C4         8.9930   36.0520   60.2750 C.3     0  <0>0        0.0734
      2  C5         8.1470   34.7900   60.4600 C.3     0  <0>0        0.0251
      3  C6         9.0050   33.5550   60.1850 C.3     0  <0>0        0.0023
      4  C7        10.1840   33.5250   61.1590 C.3     0  <0>0        0.0002
      5  C8        11.0310   34.7860   60.9730 C.3     0  <0>0        0.0023
      6  C9        10.1730   36.0210   61.2500 C.3     0  <0>0        0.0251
      7  C10       12.2100   34.7550   61.9480 C.3     0  <0>0        0.0001
      8  C3         8.1350   37.2870   60.5510 C.3     0  <0>0       -0.0538
      9  N1         6.7980   36.8670   60.9890 N.4     0  <0>0        0.3853
     10  H7         6.6530   37.1520   61.9470 H       0  <0>0       -0.0844
     11  H32        6.7200   35.8640   60.9210 H       0  <0>0       -0.0844
     12  C2         5.7810   37.4950   60.1340 C.3     0  <0>0       -0.0817
     13  C1         5.0520   36.4170   59.3320 C.3     0  <0>0       -0.0255
     14  O1         9.4860   36.1020   58.9340 O.3     0  <0>0       -0.3631
     15  C11        8.4650   36.2470   57.9460 C.3     0  <0>0        0.1149
     16  C16        8.6210   37.5980   57.2460 C.3     0  <0>0        0.0295
     17  C15        7.5280   37.7550   56.1870 C.3     0  <0>0        0.0025
     18  C14        7.6500   36.6300   55.1570 C.3     0  <0>0        0.0002
     19  C13        7.4930   35.2780   55.8580 C.3     0  <0>0        0.0025
     20  C12        8.5870   35.1220   56.9160 C.3     0  <0>0        0.0295
@<TRIPOS>BOND
     1    18    19    1
     2    18    17    1
     3    19    20    1
     4    17    16    1
     5    20    15    1
     6    16    15    1
     7    15    14    1
     8    14     1    1
     9    13    12    1
    10    12     9    1
    11     3     2    1
    12     3     4    1
    13     1     2    1
    14     1     8    1
    15     1     6    1
    16     8     9    1
    17    11     9    1
    18     5     4    1
    19     5     6    1
    20     5     7    1
    21     9    10    1
