@<TRIPOS>MOLECULE
ZINC47334405_replica-1.pdb
 31 33 0 0 0
SMALL
GASTEIGER

@<TRIPOS>ATOM
      1  C1         8.1120   36.3810   55.4910 C.3     0  <0>0        0.0262
      2  C2         7.2210   36.4960   56.7290 C.3     0  <0>0        0.0957
      3  C3         8.0830   36.6290   57.9580 C.ar    0  <0>0       -0.0014
      4  C8         8.8500   35.5610   58.3810 C.ar    0  <0>0        0.0342
      5  C7         9.6470   35.6860   59.5100 C.ar    0  <0>0        0.1389
      6  C6         9.6630   36.8800   60.2170 C.ar    0  <0>0        0.0369
      7  C5         8.8890   37.9420   59.7930 C.ar    0  <0>0        0.0028
      8  C4         8.1000   37.8180   58.6650 C.ar    0  <0>0       -0.0025
      9  O1        10.4080   34.6390   59.9250 O.3     0  <0>0       -0.4690
     10  C9        10.0770   34.0560   61.1870 C.3     0  <0>0        0.2508
     11  C10       11.3390   33.6090   61.8800 C.ar    0  <0>0        0.1026
     12  N1        11.3650   32.4450   62.4970 N.ar    0  <0>0       -0.2445
     13  C14       12.4480   32.0100   63.1120 C.ar    0  <0>0        0.0986
     14  C13       13.5990   32.7750   63.1410 C.ar    0  <0>0        0.0207
     15  C12       13.6070   34.0080   62.5080 C.ar    0  <0>0        0.0029
     16  C11       12.4520   34.4280   61.8670 C.ar    0  <0>0        0.0185
     17  N2         6.3880   35.2960   56.8450 N.am    0  <0>0       -0.2866
     18  C15        5.2410   35.3380   57.5490 C.2     0  <0>0        0.3046
     19  O2         4.8960   36.3710   58.0900 O.2     0  <0>0       -0.2525
     20  N3         4.4750   34.2330   57.6570 N.am    0  <0>0       -0.2686
     21  H16        4.7070   33.4330   57.1600 H       0  <0>0        0.1564
     22  H15        6.6630   34.4710   56.4140 H       0  <0>0        0.1512
     23  C16        3.3450   34.2420   58.4830 C.ar    0  <0>0        0.0475
     24  C21        3.3510   33.5340   59.6770 C.ar    0  <0>0       -0.0090
     25  C20        2.2360   33.5500   60.4940 C.ar    0  <0>0       -0.0031
     26  C19        1.1120   34.2600   60.1160 C.ar    0  <0>0       -0.0002
     27  C18        1.1010   34.9610   58.9240 C.ar    0  <0>0        0.0013
     28  C17        2.2140   34.9550   58.1080 C.ar    0  <0>0        0.0144
     29  C22        4.5740   32.7550   60.0860 C.3     0  <0>0        0.0236
     30  C23        5.3370   33.5290   61.1630 C.3     0  <0>0        0.0047
     31  C24        4.1490   31.3930   60.6410 C.3     0  <0>0        0.0047
@<TRIPOS>BOND
     1     1     2    1
     2    22    17    1
     3     2    17    1
     4     2     3    1
     5    17    18   am
     6    21    20    1
     7    18    20   am
     8    18    19    2
     9    20    23    1
    10     3     4   ar
    11     3     8   ar
    12    28    23   ar
    13    28    27   ar
    14     4     5   ar
    15    23    24   ar
    16     8     7   ar
    17    27    26   ar
    18     5     9    1
    19     5     6   ar
    20    24    29    1
    21    24    25   ar
    22     7     6   ar
    23     9    10    1
    24    29    31    1
    25    29    30    1
    26    26    25   ar
    27    10    11    1
    28    16    11   ar
    29    16    15   ar
    30    11    12   ar
    31    12    13   ar
    32    15    14   ar
    33    13    14   ar
