@<TRIPOS>MOLECULE
ZINC17067487_replica-1.pdb
 27 29 0 0 0
SMALL
GASTEIGER

@<TRIPOS>ATOM
      1  C8        10.7510   35.6430   61.2840 C.ar    0  <0>0        0.1391
      2  C9        10.6610   34.7480   60.2250 C.ar    0  <0>0        0.0369
      3  C10        9.8850   35.0520   59.1290 C.ar    0  <0>0        0.0031
      4  C11        9.1950   36.2690   59.0790 C.ar    0  <0>0        0.0003
      5  C12        9.2940   37.1690   60.1450 C.ar    0  <0>0        0.0031
      6  C13       10.0680   36.8530   61.2390 C.ar    0  <0>0        0.0369
      7  C14        8.3700   36.6000   57.9080 C.2     0  <0>0        0.0033
      8  C15        8.1050   35.6560   56.9780 C.2     0  <0>0        0.0420
      9  C16        7.2850   35.9850   55.8150 C.2     0  <0>0        0.1956
     10  O2         7.7990   36.4840   54.8300 O.2     0  <0>0       -0.2866
     11  C17        5.8340   35.7150   55.8340 C.ar    0  <0>0        0.0390
     12  C22        5.2300   35.0560   54.7580 C.ar    0  <0>0        0.0044
     13  C21        3.8770   34.8050   54.7790 C.ar    0  <0>0        0.0142
     14  C20        3.1100   35.2040   55.8700 C.ar    0  <0>0        0.0415
     15  C19        3.7090   35.8590   56.9430 C.ar    0  <0>0        0.0142
     16  C18        5.0620   36.1090   56.9310 C.ar    0  <0>0        0.0044
     17  N1         1.7440   34.9490   55.8880 N.pl3   0  <0>0       -0.3570
     18  H18        1.2570   34.9750   56.7270 H       0  <0>0        0.1424
     19  H19        1.2760   34.7450   55.0630 H       0  <0>0        0.1424
     20  O1        11.5130   35.3370   62.3650 O.3     0  <0>0       -0.4706
     21  C7        12.7870   34.7390   62.1130 C.3     0  <0>0        0.2320
     22  C4        12.8390   33.3780   62.7580 C.ar    0  <0>0        0.0212
     23  C3        11.6920   32.6120   62.8500 C.ar    0  <0>0       -0.0007
     24  C2        11.7400   31.3640   63.4420 C.ar    0  <0>0       -0.0002
     25  C1        12.9360   30.8820   63.9420 C.ar    0  <0>0       -0.0000
     26  C6        14.0820   31.6480   63.8500 C.ar    0  <0>0       -0.0002
     27  C5        14.0350   32.8960   63.2580 C.ar    0  <0>0       -0.0007
@<TRIPOS>BOND
     1    12    13   ar
     2    12    11   ar
     3    13    14   ar
     4    10     9    2
     5    19    17    1
     6     9    11    1
     7     9     8    1
     8    11    16   ar
     9    14    17    1
    10    14    15   ar
    11    17    18    1
    12    16    15   ar
    13     8     7    2
    14     7     4    1
    15     4     3   ar
    16     4     5   ar
    17     3     2   ar
    18     5     6   ar
    19     2     1   ar
    20     6     1   ar
    21     1    20    1
    22    21    20    1
    23    21    22    1
    24    22    23   ar
    25    22    27   ar
    26    23    24   ar
    27    27    26   ar
    28    24    25   ar
    29    26    25   ar
