@<TRIPOS>MOLECULE
ZINC03307576_replica-1.pdb
 32 35 0 0 0
SMALL
GASTEIGER

@<TRIPOS>ATOM
      1  C14        5.3830   36.1140   59.6290 C.ar    0  <0>0        0.0212
      2  C15        5.5190   34.7960   60.0310 C.ar    0  <0>0       -0.0005
      3  C16        4.9750   33.7800   59.2730 C.ar    0  <0>0        0.0044
      4  C17        4.2850   34.0830   58.0970 C.ar    0  <0>0        0.0550
      5  C18        4.1510   35.4140   57.6970 C.ar    0  <0>0        0.0044
      6  C19        4.7010   36.4200   58.4650 C.ar    0  <0>0       -0.0005
      7  C13        5.9790   37.2180   60.4630 C.3     0  <0>0        0.2320
      8  O1         7.1930   37.6690   59.8570 O.3     0  <0>0       -0.4706
      9  C12        8.3180   36.9550   60.1250 C.ar    0  <0>0        0.1390
     10  C7         8.9220   36.1950   59.1200 C.ar    0  <0>0        0.0340
     11  C8        10.0750   35.4660   59.4040 C.ar    0  <0>0        0.0030
     12  C9        10.6140   35.4980   60.6740 C.ar    0  <0>0        0.0002
     13  C10       10.0140   36.2520   61.6680 C.ar    0  <0>0        0.0031
     14  C11        8.8720   36.9820   61.3950 C.ar    0  <0>0        0.0369
     15  C4         8.3380   36.1630   57.7570 C.ar    0  <0>0        0.0029
     16  C3         7.9520   34.9490   57.1890 C.ar    0  <0>0        0.0001
     17  C2         7.4100   34.9260   55.9210 C.ar    0  <0>0        0.0000
     18  C1         7.2480   36.1030   55.2120 C.ar    0  <0>0        0.0000
     19  C6         7.6290   37.3100   55.7700 C.ar    0  <0>0        0.0000
     20  C5         8.1670   37.3460   57.0410 C.ar    0  <0>0        0.0001
     21  C20        3.7000   33.0000   57.2800 C.2     0  <0>0        0.2645
     22  O2         4.2990   31.9510   57.1430 O.2     0  <0>0       -0.2684
     23  N1         2.5020   33.1750   56.6880 N.am    0  <0>0       -0.2023
     24  H17        2.0250   34.0130   56.7970 H       0  <0>0        0.1776
     25  N2         1.9470   32.1480   55.9130 N.2     0  <0>0       -0.1758
     26  C21        0.6630   31.9380   55.9360 C.2     0  <0>0        0.1345
     27  C22        0.0820   30.8620   55.1250 C.ar    0  <0>0        0.0777
     28  N3         0.6560   29.6410   54.8630 N.ar    0  <0>0       -0.3507
     29  C25       -0.1910   28.9210   54.0770 C.ar    0  <0>0        0.0725
     30  H1         1.5210   29.3430   55.1850 H       0  <0>0        0.1660
     31  C24       -1.2950   29.6630   53.8340 C.ar    0  <0>0        0.0200
     32  C23       -1.1420   30.8910   54.4930 C.ar    0  <0>0        0.0201
@<TRIPOS>BOND
     1    31    29   ar
     2    31    32   ar
     3    29    28   ar
     4    32    27   ar
     5    28    27   ar
     6    28    30    1
     7    27    26    1
     8    18    19   ar
     9    18    17   ar
    10    19    20   ar
    11    25    26    2
    12    25    23    1
    13    17    16   ar
    14    23    24    1
    15    23    21   am
    16    20    15   ar
    17    22    21    2
    18    16    15   ar
    19    21     4    1
    20     5     4   ar
    21     5     6   ar
    22    15    10    1
    23     4     3   ar
    24     6     1   ar
    25    10    11   ar
    26    10     9   ar
    27     3     2   ar
    28    11    12   ar
    29     1     2   ar
    30     1     7    1
    31     8     9    1
    32     8     7    1
    33     9    14   ar
    34    12    13   ar
    35    14    13   ar
