@<TRIPOS>MOLECULE
ZINC16880635_replica-1.pdb
 28 30 0 0 0
SMALL
GASTEIGER

@<TRIPOS>ATOM
      1  C9        -0.8890   26.6710   57.9270 C.3     0  <0>0        0.1295
      2  C10       -2.2140   26.8790   58.1780 C.2     0  <0>0        0.1005
      3  N1        -2.9120   27.7240   57.4210 N.2     0  <0>0       -0.3631
      4  C11       -2.3510   28.3770   56.4270 C.2     0  <0>0        0.3455
      5  N2        -1.0370   28.2070   56.1250 N.am    0  <0>0       -0.1988
      6  C12       -0.2840   27.3610   56.8610 C.2     0  <0>0        0.2399
      7  O1         0.8980   27.2000   56.6070 O.2     0  <0>0       -0.2739
      8  C22       -2.8870   26.1530   59.3130 C.3     0  <0>0        0.0621
      9  C8        -0.0880   25.7180   58.7750 C.3     0  <0>0        0.0419
     10  C6        -0.1000   24.3500   58.1420 C.ar    0  <0>0       -0.0255
     11  C5        -0.4560   23.2430   58.8900 C.ar    0  <0>0       -0.0258
     12  C4        -0.4710   21.9900   58.3070 C.ar    0  <0>0       -0.0049
     13  C23       -0.8330   23.4050   60.3410 C.3     0  <0>0        0.0307
     14  C3        -0.1190   21.8410   56.9790 C.ar    0  <0>0       -0.0046
     15  C2         0.2410   22.9470   56.2310 C.ar    0  <0>0       -0.0222
     16  C1         0.6250   22.7850   54.7820 C.3     0  <0>0        0.0310
     17  C7         0.2520   24.2010   56.8120 C.ar    0  <0>0       -0.0088
     18  C13       -0.4380   28.9410   55.0080 C.3     0  <0>0        0.1299
     19  C14       -0.8240   28.2830   53.7090 C.ar    0  <0>0       -0.0061
     20  C19       -1.5800   28.9760   52.7820 C.ar    0  <0>0       -0.0242
     21  C18       -1.9340   28.3730   51.5890 C.ar    0  <0>0       -0.0048
     22  C20       -2.0190   30.3890   53.0710 C.3     0  <0>0        0.0308
     23  C17       -1.5320   27.0780   51.3230 C.ar    0  <0>0       -0.0046
     24  C16       -0.7750   26.3860   52.2500 C.ar    0  <0>0       -0.0221
     25  C15       -0.4260   26.9860   53.4450 C.ar    0  <0>0       -0.0072
     26  C21       -0.3370   24.9720   51.9610 C.3     0  <0>0        0.0310
     27  O2        -3.0940   29.2270   55.6890 O.2     0  <0>0       -0.4722
     28  H20       -2.6240   29.9400   55.2350 H       0  <0>0        0.2961
@<TRIPOS>BOND
     1    23    21   ar
     2    23    24   ar
     3    21    20   ar
     4    26    24    1
     5    24    25   ar
     6    20    22    1
     7    20    19   ar
     8    25    19   ar
     9    19    18    1
    10    16    15    1
    11    18     5    1
    12    28    27    1
    13    27     4    1
    14     5     4    1
    15     5     6   am
    16    15    17   ar
    17    15    14   ar
    18     4     3    2
    19     7     6    2
    20    17    10   ar
    21     6     1    1
    22    14    12   ar
    23     3     2    2
    24     1     2    1
    25     1     9    1
    26    10     9    1
    27    10    11   ar
    28     2     8    1
    29    12    11   ar
    30    11    13    1
