@<TRIPOS>MOLECULE
ZINC21017446_replica-1.pdb
 28 32 0 0 0
SMALL
GASTEIGER

@<TRIPOS>ATOM
      1  N1         0.6850   31.2580   56.3680 N.ar    0  <0>0       -0.2295
      2  C7         0.1360   30.4060   57.2780 C.ar    0  <0>0        0.0872
      3  C8         0.0240   30.3900   58.6880 C.ar    0  <0>0        0.0377
      4  C9         0.5540   31.4190   59.4760 C.ar    0  <0>0        0.0326
      5  C10        0.4190   31.3680   60.8340 C.ar    0  <0>0        0.1403
      6  C11       -0.2300   30.2980   61.4460 C.ar    0  <0>0        0.0312
      7  C12       -0.7520   29.2800   60.7050 C.ar    0  <0>0        0.0215
      8  C13       -0.6370   29.3010   59.3070 C.ar    0  <0>0        0.0829
      9  N2        -1.1440   28.3060   58.5620 N.ar    0  <0>0       -0.2437
     10  C14       -1.0560   28.2940   57.2580 C.ar    0  <0>0        0.1018
     11  C15       -0.4170   29.3330   56.5620 C.ar    0  <0>0        0.0562
     12  C16       -0.1570   29.6080   55.1470 C.ar    0  <0>0        0.1042
     13  N3         0.4920   30.7480   55.0800 N.ar    0  <0>0       -0.1651
     14  F3         0.9270   32.3640   61.5940 F       0  <0>0       -0.2042
     15  C3         1.3420   32.4560   56.6740 C.ar    0  <0>0        0.0850
     16  C2         2.7140   32.4630   56.8830 C.ar    0  <0>0        0.0193
     17  C1         3.3600   33.6470   57.1850 C.ar    0  <0>0        0.0038
     18  C6         2.6420   34.8230   57.2780 C.ar    0  <0>0        0.0297
     19  C5         1.2720   34.8210   57.0710 C.ar    0  <0>0        0.1416
     20  C4         0.6210   33.6400   56.7640 C.ar    0  <0>0        0.0488
     21  F1         0.5730   35.9740   57.1630 F       0  <0>0       -0.2041
     22  C17       -0.5550   28.7560   54.0010 C.ar    0  <0>0        0.0196
     23  C22       -1.5040   29.2110   53.0870 C.ar    0  <0>0        0.0039
     24  C21       -1.8710   28.4160   52.0220 C.ar    0  <0>0        0.0297
     25  C20       -1.2970   27.1650   51.8590 C.ar    0  <0>0        0.1401
     26  C19       -0.3530   26.7080   52.7640 C.ar    0  <0>0        0.0297
     27  F2        -1.6580   26.3890   50.8140 F       0  <0>0       -0.2042
     28  C18        0.0240   27.4990   53.8300 C.ar    0  <0>0        0.0039
@<TRIPOS>BOND
     1    27    25    1
     2    25    24   ar
     3    25    26   ar
     4    24    23   ar
     5    26    28   ar
     6    23    22   ar
     7    28    22   ar
     8    22    12    1
     9    13    12   ar
    10    13     1   ar
    11    12    11   ar
    12     1    15    1
    13     1     2   ar
    14    11    10   ar
    15    11     2   ar
    16    15    20   ar
    17    15    16   ar
    18    20    19   ar
    19    16    17   ar
    20    19    21    1
    21    19    18   ar
    22    17    18   ar
    23    10     9   ar
    24     2     3   ar
    25     9     8   ar
    26     3     8   ar
    27     3     4   ar
    28     8     7   ar
    29     4     5   ar
    30     7     6   ar
    31     5     6   ar
    32     5    14    1
