@<TRIPOS>MOLECULE
ZINC59367357_replica-1.pdb
 32 35 0 0 0
SMALL
GASTEIGER

@<TRIPOS>ATOM
      1  C8         8.1500   33.5760   58.8700 C.3     0  <0>0        0.1245
      2  C9         8.9830   32.8290   59.9320 C.3     0  <0>0        0.0737
      3  C10       10.0100   33.8470   60.3720 C.2     0  <0>0        0.0785
      4  N1         9.8320   34.9470   59.7230 N.2     0  <0>0       -0.1819
      5  N2         8.7730   34.9080   58.8140 N.pl3   0  <0>0       -0.2045
      6  C11        8.3680   35.9610   57.9860 C.ar    0  <0>0        0.1287
      7  C16        8.0460   37.1960   58.5370 C.ar    0  <0>0        0.1869
      8  C15        7.6510   38.2380   57.7160 C.ar    0  <0>0        0.1983
      9  F1         8.1220   37.3810   59.8740 F       0  <0>0       -0.2003
     10  C14        7.5670   38.0480   56.3450 C.ar    0  <0>0        0.1992
     11  F2         7.3430   39.4400   58.2500 F       0  <0>0       -0.1993
     12  C13        7.8820   36.8160   55.7940 C.ar    0  <0>0        0.1983
     13  F3         7.1770   39.0650   55.5450 F       0  <0>0       -0.1993
     14  C12        8.2830   35.7720   56.6110 C.ar    0  <0>0        0.1869
     15  F4         7.8000   36.6330   54.4570 F       0  <0>0       -0.1993
     16  F5         8.5920   34.5730   56.0730 F       0  <0>0       -0.2003
     17  C5         6.7110   33.6810   59.3030 C.ar    0  <0>0       -0.0018
     18  C4         5.7130   33.1400   58.5150 C.ar    0  <0>0        0.0005
     19  C3         4.3910   33.2340   58.9100 C.ar    0  <0>0        0.0366
     20  C2         4.0680   33.8740   60.0970 C.ar    0  <0>0        0.1387
     21  C7         5.0710   34.4210   60.8840 C.ar    0  <0>0        0.0366
     22  C6         6.3920   34.3190   60.4880 C.ar    0  <0>0        0.0005
     23  O1         2.7700   33.9690   60.4880 O.3     0  <0>0       -0.4714
     24  C1         1.8500   34.5320   59.5500 C.3     0  <0>0        0.2525
     25  C17       11.0550   33.6180   61.3860 C.ar    0  <0>0        0.0153
     26  C22       12.1190   34.5140   61.5120 C.ar    0  <0>0        0.0043
     27  C21       13.0900   34.2980   62.4660 C.ar    0  <0>0        0.0369
     28  C20       13.0200   33.1860   63.2930 C.ar    0  <0>0        0.1387
     29  C19       11.9660   32.2890   63.1680 C.ar    0  <0>0        0.0369
     30  C18       10.9870   32.4990   62.2220 C.ar    0  <0>0        0.0043
     31  O2        13.9820   32.9730   64.2280 O.3     0  <0>0       -0.4714
     32  C23       15.2010   33.7060   64.0820 C.3     0  <0>0        0.2525
@<TRIPOS>BOND
     1    15    12    1
     2    13    10    1
     3    12    10   ar
     4    12    14   ar
     5    16    14    1
     6    10     8   ar
     7    14     6   ar
     8     8    11    1
     9     8     7   ar
    10     6     7   ar
    11     6     5    1
    12    18    19   ar
    13    18    17   ar
    14     7     9    1
    15     5     1    1
    16     5     4    1
    17     1    17    1
    18     1     2    1
    19    19    20   ar
    20    17    22   ar
    21    24    23    1
    22     4     3    2
    23     2     3    1
    24    20    23    1
    25    20    21   ar
    26     3    25    1
    27    22    21   ar
    28    25    26   ar
    29    25    30   ar
    30    26    27   ar
    31    30    29   ar
    32    27    28   ar
    33    29    28   ar
    34    28    31    1
    35    32    31    1
