@<TRIPOS>MOLECULE
ZINC00331910_replica-1.pdb
 26 29 0 0 0
SMALL
GASTEIGER

@<TRIPOS>ATOM
      1  C1        -0.2920   29.5730   60.0940 C.3     0  <0>0        0.0504
      2  C2        -0.1890   30.1230   58.6940 C.ar    0  <0>0        0.0414
      3  C3        -1.0430   29.8630   57.6920 C.ar    0  <0>0        0.0142
      4  C4        -0.5550   30.6130   56.5250 C.ar    0  <0>0        0.0133
      5  C5         0.5880   31.2720   56.9490 C.ar    0  <0>0        0.0414
      6  N1         0.7920   30.9640   58.2450 N.ar    0  <0>0       -0.3134
      7  C12        1.4530   32.1740   56.1070 C.3     0  <0>0        0.0504
      8  C13       -1.1370   30.6560   55.2320 C.2     0  <0>0        0.0075
      9  C14       -1.0620   29.5540   54.4060 C.2     0  <0>0        0.0779
     10  C22       -1.7280   29.3860   53.1040 C.2     0  <0>0        0.1987
     11  C15       -0.2940   28.3220   54.6540 C.2     0  <0>0        0.1987
     12  C21       -1.3620   28.0480   52.5780 C.ar    0  <0>0        0.0421
     13  O2        -2.4510   30.1980   52.5570 O.2     0  <0>0       -0.2865
     14  C16       -0.5140   27.4150   53.5000 C.ar    0  <0>0        0.0421
     15  C20       -1.7140   27.3920   51.4020 C.ar    0  <0>0        0.0033
     16  C17       -0.0320   26.1380   53.2280 C.ar    0  <0>0        0.0033
     17  C18       -0.3890   25.4990   52.0530 C.ar    0  <0>0        0.0001
     18  C19       -1.2240   26.1230   51.1460 C.ar    0  <0>0        0.0001
     19  O1         0.3950   28.0880   55.6290 O.2     0  <0>0       -0.2865
     20  C6         1.8550   31.4420   59.0220 C.ar    0  <0>0        0.0656
     21  C11        3.0510   30.7380   59.0730 C.ar    0  <0>0        0.0471
     22  C10        4.0990   31.2150   59.8390 C.ar    0  <0>0        0.1416
     23  C9         3.9540   32.3880   60.5600 C.ar    0  <0>0        0.0297
     24  F1         5.2660   30.5340   59.8860 F       0  <0>0       -0.2041
     25  C8         2.7620   33.0870   60.5130 C.ar    0  <0>0        0.0038
     26  C7         1.7140   32.6170   59.7480 C.ar    0  <0>0        0.0176
@<TRIPOS>BOND
     1    18    15   ar
     2    18    17   ar
     3    15    12   ar
     4    17    16   ar
     5    13    10    2
     6    12    10    1
     7    12    14   ar
     8    10     9    1
     9    16    14   ar
    10    14    11    1
    11     9    11    1
    12     9     8    2
    13    11    19    2
    14     8     4    1
    15     7     5    1
    16     4     5   ar
    17     4     3   ar
    18     5     6   ar
    19     3     2   ar
    20     6     2   ar
    21     6    20    1
    22     2     1    1
    23    20    21   ar
    24    20    26   ar
    25    21    22   ar
    26    26    25   ar
    27    22    24    1
    28    22    23   ar
    29    25    23   ar
