@<TRIPOS>MOLECULE
ZINC20604626_replica-1.pdb
 27 29 0 0 0
SMALL
GASTEIGER

@<TRIPOS>ATOM
      1  N1         6.8340   32.9450   59.2080 N.am    0  <0>0       -0.2442
      2  C4         7.8030   33.8450   59.6050 C.2     0  <0>0        0.1776
      3  C5         7.6560   35.1930   59.2270 C.3     0  <0>0        0.1698
      4  C6         8.6170   36.1280   59.6100 C.2     0  <0>0        0.0681
      5  C7         9.6840   35.6890   60.3530 C.2     0  <0>0        0.0326
      6  C8         9.7750   34.3390   60.6970 C.2     0  <0>0        0.1323
      7  N2         8.8490   33.4670   60.3200 N.2     0  <0>0       -0.3903
      8  C16        6.4760   35.5700   58.4290 C.2     0  <0>0        0.2391
      9  O1         6.3030   36.7260   58.0770 O.2     0  <0>0       -0.2739
     10  N3         5.5970   34.6120   58.0990 N.am    0  <0>0       -0.2662
     11  C17        5.7710   33.3600   58.4660 C.2     0  <0>0        0.1460
     12  S1         4.5690   32.1670   57.9820 S.2     0  <0>0       -0.0179
     13  H11        4.7140   34.8930   57.5070 H       0  <0>0        0.1565
     14  C9        10.9300   33.8710   61.4990 C.ar    0  <0>0        0.0296
     15  C14       12.0860   34.6470   61.5790 C.ar    0  <0>0        0.0030
     16  C13       13.1590   34.2060   62.3260 C.ar    0  <0>0        0.0068
     17  C12       13.0910   32.9960   62.9950 C.ar    0  <0>0        0.0346
     18  C11       11.9450   32.2220   62.9180 C.ar    0  <0>0        0.0068
     19 Br         14.5650   32.3980   64.0170 Br      0  <0>0       -0.0490
     20  C10       10.8640   32.6560   62.1790 C.ar    0  <0>0        0.0030
     21  C15        8.4880   37.5780   59.2210 C.3     0  <0>0        0.4159
     22  F1         9.5220   38.3130   59.8110 F       0  <0>0       -0.1661
     23  F2         8.5670   37.6960   57.8290 F       0  <0>0       -0.1661
     24  F3         7.2540   38.0710   59.6610 F       0  <0>0       -0.1661
     25  C3         6.9540   31.5340   59.5820 C.3     0  <0>0        0.1256
     26  C2         7.8290   30.8220   58.5820 C.2     0  <0>0       -0.0043
     27  C1         7.4800   29.6440   58.1280 C.2     0  <0>0       -0.0031
@<TRIPOS>BOND
     1    13    10    1
     2    23    21    1
     3    12    11    2
     4     9     8    2
     5    10     8   am
     6    10    11    1
     7    27    26    2
     8     8     3    1
     9    11     1    1
    10    26    25    1
    11     1    25    1
    12     1     2    1
    13    21     4    1
    14    21    24    1
    15    21    22    1
    16     3     2    1
    17     3     4    1
    18     2     7    2
    19     4     5    2
    20     7     6    2
    21     5     6    1
    22     6    14    1
    23    14    15   ar
    24    14    20   ar
    25    15    16   ar
    26    20    18   ar
    27    16    17   ar
    28    18    17   ar
    29    17    19    1
