@<TRIPOS>MOLECULE
ZINC41586767_replica-1.pdb
 32 36 0 0 0
SMALL
GASTEIGER

@<TRIPOS>ATOM
      1  C1         4.3390   33.1210   60.1330 C.3     0  <0>0        0.0374
      2  C2         4.1170   33.2650   58.6490 C.ar    0  <0>0        0.0465
      3  C3         2.9550   32.7710   58.0720 C.ar    0  <0>0        0.1366
      4  C4         2.7390   32.9000   56.7040 C.ar    0  <0>0        0.0280
      5  C5         3.6750   33.5130   55.9160 C.ar    0  <0>0        0.0064
      6  C6         4.8470   34.0120   56.4830 C.ar    0  <0>0        0.0762
      7  C7         5.0740   33.8960   57.8640 C.ar    0  <0>0        0.1474
      8  O1         6.2610   34.4560   58.1800 O.3     0  <0>0       -0.4504
      9  C8         6.8830   34.9650   57.0910 C.2     0  <0>0        0.1840
     10  C9         8.0880   35.5900   57.0740 C.2     0  <0>0        0.0408
     11  C16        6.0220   34.7070   55.9270 C.2     0  <0>0        0.2327
     12  O2         6.2280   35.0110   54.7640 O.2     0  <0>0       -0.2832
     13  C17        1.4760   32.3740   56.0700 C.3     0  <0>0        0.1051
     14  N1         0.8300   31.4180   56.9800 N.3     0  <0>0       -0.2313
     15  C18        0.7200   31.9980   58.3290 C.3     0  <0>0        0.2848
     16  O3         2.0350   32.1610   58.8650 O.3     0  <0>0       -0.4586
     17  C19       -0.4880   31.0160   56.4710 C.3     0  <0>0        0.0805
     18  C20       -0.5120   31.1600   54.9480 C.3     0  <0>0        0.0446
     19  C21       -0.4800   29.7930   54.3130 C.ar    0  <0>0       -0.0102
     20  C26       -1.4470   29.4370   53.3900 C.ar    0  <0>0        0.0537
     21  C25       -1.4140   28.1830   52.8050 C.ar    0  <0>0        0.0111
     22 Cl         -2.6950   30.5640   52.9610 Cl      0  <0>0       -0.0826
     23  C24       -0.4230   27.2850   53.1510 C.ar    0  <0>0        0.0008
     24  C23        0.5400   27.6400   54.0770 C.ar    0  <0>0       -0.0003
     25  C22        0.5110   28.8930   54.6590 C.ar    0  <0>0       -0.0034
     26  C10        8.7890   35.8670   58.3350 C.ar    0  <0>0        0.0033
     27  C15        9.7000   34.9370   58.8520 C.ar    0  <0>0        0.0024
     28  C14       10.3580   35.2060   60.0310 C.ar    0  <0>0        0.0296
     29  C13       10.1130   36.3890   60.7130 C.ar    0  <0>0        0.1401
     30  C12        9.2090   37.3120   60.2090 C.ar    0  <0>0        0.0296
     31  F1        10.7580   36.6430   61.8720 F       0  <0>0       -0.2042
     32  C11        8.5470   37.0590   59.0270 C.ar    0  <0>0        0.0024
@<TRIPOS>BOND
     1    21    23   ar
     2    21    20   ar
     3    22    20    1
     4    23    24   ar
     5    20    19   ar
     6    24    25   ar
     7    19    25   ar
     8    19    18    1
     9    12    11    2
    10    18    17    1
    11     5     6   ar
    12     5     4   ar
    13    11     6    1
    14    11     9    1
    15    13     4    1
    16    13    14    1
    17    17    14    1
    18     6     7   ar
    19     4     3   ar
    20    14    15    1
    21    10     9    2
    22    10    26    1
    23     9     8    1
    24     7     8    1
    25     7     2   ar
    26     3     2   ar
    27     3    16    1
    28    15    16    1
    29    26    27   ar
    30    26    32   ar
    31     2     1    1
    32    27    28   ar
    33    32    30   ar
    34    28    29   ar
    35    30    29   ar
    36    29    31    1
