@<TRIPOS>MOLECULE
ZINC13388525_replica-1.pdb
 27 28 0 0 0
SMALL
GASTEIGER

@<TRIPOS>ATOM
      1  N1         7.0510   35.4460   57.7670 N.am    0  <0>0       -0.2977
      2  C8         7.9080   34.4140   57.6390 C.2     0  <0>0        0.2462
      3  O2         7.8730   33.7150   56.6430 O.2     0  <0>0       -0.2701
      4  H7         7.0310   35.9600   58.5900 H       0  <0>0        0.1500
      5  C9         8.8770   34.1320   58.6960 C.2     0  <0>0        0.0577
      6  C10        9.1710   35.0790   59.6110 C.2     0  <0>0        0.0047
      7  C11       10.1470   34.7960   60.6750 C.ar    0  <0>0        0.0003
      8  C16       10.3550   33.4800   61.1050 C.ar    0  <0>0        0.0031
      9  C15       11.2730   33.2200   62.0970 C.ar    0  <0>0        0.0372
     10  C14       11.9850   34.2630   62.6790 C.ar    0  <0>0        0.1468
     11  C13       11.7820   35.5710   62.2560 C.ar    0  <0>0        0.0372
     12  C12       10.8700   35.8420   61.2600 C.ar    0  <0>0        0.0031
     13  O3        12.8860   34.0010   63.6600 O.3     0  <0>0       -0.4045
     14  C17       14.1470   33.4630   63.2570 C.3     0  <0>0        0.5753
     15  F1        14.4190   33.8500   61.9400 F       0  <0>0       -0.1328
     16  F2        15.1520   33.9460   64.1020 F       0  <0>0       -0.1328
     17  F3        14.1030   32.0670   63.3330 F       0  <0>0       -0.1328
     18  C5         6.1510   35.7940   56.6640 C.3     0  <0>0        0.1116
     19  C3         4.7350   35.8580   57.1720 C.ar    0  <0>0        0.0256
     20  C2         3.5840   36.0220   56.4750 C.ar    0  <0>0        0.0043
     21  C1         2.3830   36.0460   57.1580 C.ar    0  <0>0        0.0072
     22  C4         2.3920   35.9170   58.5080 C.ar    0  <0>0        0.0352
     23  S1         4.1350   35.7460   58.8510 S.2     0  <0>0       -0.0891
     24  C6         6.5500   37.1560   56.0910 C.3     0  <0>0        0.1386
     25  C7         7.5490   37.8140   57.0090 C.2     0  <0>0        0.3669
     26  O1         7.1770   38.3250   58.0390 O.co2   0  <0>0       -0.2456
     27  O4         8.8510   37.8300   56.6830 O.co2   0  <0>0       -0.2456
@<TRIPOS>BOND
     1    24    18    1
     2    24    25    1
     3    20    21   ar
     4    20    19   ar
     5     3     2    2
     6    18    19    1
     7    18     1    1
     8    27    25   ar
     9    25    26   ar
    10    21    22   ar
    11    19    23   ar
    12     2     1   am
    13     2     5    1
    14     1     4    1
    15    22    23   ar
    16     5     6    2
    17     6     7    1
    18     7     8   ar
    19     7    12   ar
    20     8     9   ar
    21    12    11   ar
    22    15    14    1
    23     9    10   ar
    24    11    10   ar
    25    10    13    1
    26    14    17    1
    27    14    13    1
    28    14    16    1
