@<TRIPOS>MOLECULE
ZINC02471847_replica-1.pdb
 24 27 0 0 0
SMALL
GASTEIGER

@<TRIPOS>ATOM
      1  C7         9.5270   33.6050   61.2260 C.3     0  <0>0        0.0965
      2  C8         9.4380   34.9410   60.4780 C.3     0  <0>0        0.0532
      3  C9         8.0180   35.1370   59.9330 C.3     0  <0>0        0.1351
      4  N1         7.6110   33.9210   59.2290 N.ar    0  <0>0       -0.2184
      5  C10        8.1990   32.7110   59.3940 C.ar    0  <0>0        0.2158
      6  N2         7.5920   31.8570   58.6150 N.ar    0  <0>0       -0.1903
      7  C11        6.6180   32.4800   57.9430 C.ar    0  <0>0        0.2220
      8  N3         6.5960   33.7440   58.2900 N.ar    0  <0>0       -0.1440
      9  N4         9.2560   32.5110   60.2730 N.pl3   0  <0>0       -0.3010
     10  H11        9.7890   31.7000   60.2600 H       0  <0>0        0.1499
     11  C12        7.9980   36.3050   58.9820 C.ar    0  <0>0        0.0381
     12  C17        7.1950   37.3990   59.2450 C.ar    0  <0>0        0.0577
     13  C16        7.1810   38.4740   58.3740 C.ar    0  <0>0        0.0113
     14 Cl          6.2070   37.4270   60.6720 Cl      0  <0>0       -0.0824
     15  C15        7.9630   38.4500   57.2340 C.ar    0  <0>0        0.0032
     16  C14        8.7630   37.3550   56.9660 C.ar    0  <0>0        0.0294
     17  C13        8.7810   36.2810   57.8400 C.ar    0  <0>0        0.1388
     18  F1         9.5630   35.2110   57.5780 F       0  <0>0       -0.2044
     19  C4        10.9080   33.4420   61.8070 C.ar    0  <0>0       -0.0044
     20  C3        11.2130   32.3240   62.5600 C.ar    0  <0>0       -0.0027
     21  C2        12.4800   32.1740   63.0920 C.ar    0  <0>0       -0.0003
     22  C1        13.4420   33.1420   62.8690 C.ar    0  <0>0       -0.0000
     23  C6        13.1370   34.2590   62.1150 C.ar    0  <0>0       -0.0003
     24  C5        11.8700   34.4100   61.5840 C.ar    0  <0>0       -0.0027
@<TRIPOS>BOND
     1    16    15   ar
     2    16    17   ar
     3    15    13   ar
     4    18    17    1
     5    17    11   ar
     6     7     8   ar
     7     7     6   ar
     8     8     4   ar
     9    13    12   ar
    10     6     5   ar
    11    11    12   ar
    12    11     3    1
    13     4     5   ar
    14     4     3    1
    15    12    14    1
    16     5     9    1
    17     3     2    1
    18    10     9    1
    19     9     1    1
    20     2     1    1
    21     1    19    1
    22    24    19   ar
    23    24    23   ar
    24    19    20   ar
    25    23    22   ar
    26    20    21   ar
    27    22    21   ar
