@<TRIPOS>MOLECULE
ZINC40313834_replica-1.pdb
 31 33 0 0 0
SMALL
GASTEIGER

@<TRIPOS>ATOM
      1  N1         5.5270   32.5550   58.2460 N.4     0  <0>0        0.3930
      2  H36        5.6580   32.7060   59.2350 H       0  <0>0       -0.0790
      3  C10        4.5950   33.5580   57.7150 C.3     0  <0>0       -0.0430
      4  C9         5.0090   33.9370   56.2920 C.3     0  <0>0        0.1335
      5  C8         5.1290   35.4580   56.1840 C.3     0  <0>0        0.2321
      6  O1         5.3300   36.0130   57.4860 O.3     0  <0>0       -0.4733
      7  C7         6.3890   36.8520   57.6420 C.ar    0  <0>0        0.1346
      8  C2         6.6660   37.3970   58.8860 C.ar    0  <0>0        0.0121
      9  C1         5.7940   37.0590   60.0690 C.3     0  <0>0        0.0342
     10  C3         7.7460   38.2430   59.0430 C.ar    0  <0>0       -0.0013
     11  C4         8.5460   38.5550   57.9600 C.ar    0  <0>0       -0.0001
     12  C5         8.2670   38.0170   56.7160 C.ar    0  <0>0        0.0031
     13  C6         7.1900   37.1690   56.5550 C.ar    0  <0>0        0.0366
     14  O3         4.0220   33.4700   55.3690 O.3     0  <0>0       -0.3828
     15  H35        3.3760   32.8630   55.7570 H       0  <0>0        0.2104
     16  C11        6.8190   32.6760   57.5570 C.3     0  <0>0       -0.0497
     17  C12        7.7510   33.5260   58.3830 C.ar    0  <0>0       -0.0432
     18  C17        7.5460   33.6540   59.7440 C.ar    0  <0>0       -0.0067
     19  C16        8.4030   34.4310   60.5020 C.ar    0  <0>0       -0.0047
     20  C15        9.4590   35.0870   59.8960 C.ar    0  <0>0       -0.0225
     21  C14        9.6600   34.9630   58.5340 C.ar    0  <0>0       -0.0047
     22  C13        8.8060   34.1820   57.7770 C.ar    0  <0>0       -0.0067
     23  C18       10.3900   35.9360   60.7220 C.3     0  <0>0        0.0224
     24  C19        9.5740   36.8010   61.6850 C.3     0  <0>0        0.0047
     25  C20       11.3330   35.0330   61.5190 C.3     0  <0>0        0.0047
     26  C21        4.9780   31.2100   58.0240 C.3     0  <0>0       -0.0466
     27  C22        5.0210   30.4200   59.3340 C.3     0  <0>0        0.0948
     28  O2         6.2570   29.7050   59.4310 O.3     0  <0>0       -0.3584
     29  C25        7.0020   30.1680   60.5720 C.3     0  <0>0        0.1420
     30  C24        5.9400   30.7510   61.5390 C.3     0  <0>0        0.0345
     31  C23        4.9460   31.3910   60.5330 C.3     0  <0>0        0.0299
@<TRIPOS>BOND
     1    14    15    1
     2    14     4    1
     3     5     4    1
     4     5     6    1
     5     4     3    1
     6    13    12   ar
     7    13     7   ar
     8    12    11   ar
     9     6     7    1
    10    16     1    1
    11    16    17    1
    12     7     8   ar
    13     3     1    1
    14    22    17   ar
    15    22    21   ar
    16    11    10   ar
    17    26     1    1
    18    26    27    1
    19     1     2    1
    20    17    18   ar
    21    21    20   ar
    22     8    10   ar
    23     8     9    1
    24    27    28    1
    25    27    31    1
    26    28    29    1
    27    18    19   ar
    28    20    19   ar
    29    20    23    1
    30    31    30    1
    31    29    30    1
    32    23    25    1
    33    23    24    1
