@<TRIPOS>MOLECULE
ZINC13153836_replica-1.pdb
 22 23 0 0 0
SMALL
GASTEIGER

@<TRIPOS>ATOM
      1  O1         8.7570   34.8530   57.9830 O.3     0  <0>0       -0.4757
      2  C6         9.2970   35.4290   59.0890 C.ar    0  <0>0        0.1342
      3  C5         8.9010   36.7010   59.4720 C.ar    0  <0>0        0.0114
      4  C4         9.4510   37.2860   60.5980 C.ar    0  <0>0       -0.0016
      5  C3        10.3970   36.6020   61.3400 C.ar    0  <0>0       -0.0044
      6  C2        10.7930   35.3330   60.9600 C.ar    0  <0>0       -0.0189
      7  C1        11.8240   34.5920   61.7720 C.3     0  <0>0        0.0311
      8  C7        10.2510   34.7470   59.8320 C.ar    0  <0>0        0.0323
      9  C17        7.8700   37.4460   58.6630 C.3     0  <0>0        0.0253
     10  C18        6.7660   37.9570   59.5920 C.3     0  <0>0        0.0048
     11  C19        8.5340   38.6310   57.9600 C.3     0  <0>0        0.0048
     12  C8         8.4400   33.4620   58.0650 C.3     0  <0>0        0.2068
     13  C9         6.9460   33.2620   57.8010 C.3     0  <0>0        0.0646
     14  C10        6.1370   33.9490   58.9030 C.3     0  <0>0        0.0761
     15  N1         5.1840   34.8890   58.2980 N.3     0  <0>0       -0.2685
     16  C14        5.0930   34.6860   56.8450 C.3     0  <0>0        0.1020
     17  C13        4.1360   35.7230   56.2490 C.3     0  <0>0        0.1312
     18  O2         2.8640   35.6140   56.8910 O.3     0  <0>0       -0.3559
     19  C15        3.9750   35.4680   54.7490 C.3     0  <0>0        0.0335
     20  C12        2.9150   35.8080   58.3080 C.3     0  <0>0        0.1312
     21  C11        3.8590   34.7720   58.9240 C.3     0  <0>0        0.1020
     22  C16        1.5150   35.6380   58.8990 C.3     0  <0>0        0.0335
@<TRIPOS>BOND
     1    19    17    1
     2    17    16    1
     3    17    18    1
     4    16    15    1
     5    18    20    1
     6    13    12    1
     7    13    14    1
     8    11     9    1
     9     1    12    1
    10     1     2    1
    11    15    14    1
    12    15    21    1
    13    20    22    1
    14    20    21    1
    15     9     3    1
    16     9    10    1
    17     2     3   ar
    18     2     8   ar
    19     3     4   ar
    20     8     6   ar
    21     4     5   ar
    22     6     5   ar
    23     6     7    1
