@<TRIPOS>MOLECULE
ZINC02707052_replica-1.pdb
 33 36 0 0 0
SMALL
GASTEIGER

@<TRIPOS>ATOM
      1  C1        -2.8100   26.0780   58.2540 C.3     0  <0>0        0.0307
      2  C2        -2.0290   27.3630   58.1560 C.2     0  <0>0       -0.0253
      3  C3        -1.7670   28.0980   59.3100 C.2     0  <0>0       -0.0023
      4  C4        -1.0650   29.2630   59.2550 C.2     0  <0>0        0.0279
      5  C5        -0.5940   29.7370   58.0160 C.2     0  <0>0        0.1167
      6  C6        -0.8630   28.9860   56.8460 C.3     0  <0>0        0.0962
      7  C7        -1.5890   27.7920   56.9390 C.2     0  <0>0       -0.0193
      8  C8        -0.3890   29.4630   55.5970 C.2     0  <0>0       -0.0092
      9  C9         0.3220   30.6530   55.5830 C.2     0  <0>0        0.0285
     10  C10        0.5460   31.3380   56.7850 C.2     0  <0>0        0.1307
     11  N1         0.0960   30.8770   57.9370 N.2     0  <0>0       -0.4056
     12  C11        1.3120   32.6070   56.7610 C.ar    0  <0>0        0.0298
     13  C16        0.9420   33.6610   57.5950 C.ar    0  <0>0        0.0057
     14  C15        1.6560   34.8400   57.5720 C.ar    0  <0>0        0.0370
     15  C14        2.7430   34.9780   56.7180 C.ar    0  <0>0        0.1393
     16  C13        3.1130   33.9290   55.8860 C.ar    0  <0>0        0.0370
     17  C12        2.4060   32.7460   55.9090 C.ar    0  <0>0        0.0057
     18  O1         3.4440   36.1410   56.6950 O.3     0  <0>0       -0.4656
     19  C17        4.6170   36.1760   55.8800 C.3     0  <0>0        0.2893
     20  C18        5.8330   36.3290   56.7560 C.2     0  <0>0        0.2671
     21  O2         5.8230   35.8950   57.8880 O.2     0  <0>0       -0.2711
     22  N2         6.9320   36.9490   56.2810 N.am    0  <0>0       -0.2990
     23  H14        6.9390   37.2960   55.3750 H       0  <0>0        0.1496
     24  C19        8.1150   37.0970   57.1320 C.3     0  <0>0        0.1214
     25  C20        8.3330   38.5770   57.4490 C.3     0  <0>0        0.1583
     26  O3         9.2620   39.1340   56.5170 O.3     0  <0>0       -0.3802
     27  H19       10.1020   39.4030   56.9120 H       0  <0>0        0.2105
     28  C21       -0.6450   28.7120   54.3460 C.ar    0  <0>0       -0.0032
     29  C26       -1.5100   29.2310   53.3830 C.ar    0  <0>0       -0.0003
     30  C25       -1.7440   28.5250   52.2200 C.ar    0  <0>0       -0.0000
     31  C24       -1.1220   27.3090   52.0070 C.ar    0  <0>0       -0.0000
     32  C23       -0.2630   26.7890   52.9590 C.ar    0  <0>0       -0.0000
     33  C22       -0.0160   27.4870   54.1240 C.ar    0  <0>0       -0.0003
@<TRIPOS>BOND
     1    31    30   ar
     2    31    32   ar
     3    30    29   ar
     4    32    33   ar
     5    29    28   ar
     6    33    28   ar
     7    28     8    1
     8    23    22    1
     9     9     8    2
    10     9    10    1
    11     8     6    1
    12    19    18    1
    13    19    20    1
    14    16    17   ar
    15    16    15   ar
    16    17    12   ar
    17    22    20   am
    18    22    24    1
    19    26    27    1
    20    26    25    1
    21    18    15    1
    22    15    14   ar
    23    20    21    2
    24    12    10    1
    25    12    13   ar
    26    10    11    2
    27     6     7    1
    28     6     5    1
    29     7     2    2
    30    24    25    1
    31    14    13   ar
    32    11     5    2
    33     5     4    1
    34     2     1    1
    35     2     3    1
    36     4     3    2
