@<TRIPOS>MOLECULE
ZINC37986412_replica-1.pdb
 22 24 0 0 0
SMALL
GASTEIGER

@<TRIPOS>ATOM
      1  N1         0.7330   30.3230   55.0690 N.4     0  <0>0        0.3864
      2  H8         1.7210   30.1650   54.9480 H       0  <0>0       -0.0843
      3  H22        0.4270   31.0430   54.4310 H       0  <0>0       -0.0843
      4  C3        -0.0010   29.0810   54.7960 C.3     0  <0>0       -0.0771
      5  C2        -0.8810   29.2700   53.5590 C.3     0  <0>0        0.0011
      6  C1        -2.2870   29.6900   53.9920 C.3     0  <0>0        0.0025
      7  C13       -0.9580   27.9740   52.7940 C.ar    0  <0>0       -0.0246
      8  C18       -0.2850   26.8580   53.2560 C.ar    0  <0>0       -0.0043
      9  C17       -0.3580   25.6680   52.5570 C.ar    0  <0>0       -0.0003
     10  C16       -1.0960   25.5960   51.3900 C.ar    0  <0>0       -0.0000
     11  C15       -1.7650   26.7130   50.9260 C.ar    0  <0>0       -0.0003
     12  C14       -1.6940   27.9020   51.6280 C.ar    0  <0>0       -0.0043
     13  C4         0.4720   30.7530   56.4490 C.3     0  <0>0       -0.0369
     14  C5         0.4480   32.2820   56.5120 C.3     0  <0>0        0.1493
     15  O1         1.7240   32.8270   56.1380 O.3     0  <0>0       -0.4813
     16  C12        1.9570   33.9570   56.8640 C.ar    0  <0>0        0.1344
     17  C7         1.1480   34.0090   57.9920 C.ar    0  <0>0        0.0153
     18  C11        2.8550   34.9970   56.6330 C.ar    0  <0>0        0.0366
     19  C6         0.2780   32.7670   57.9720 C.3     0  <0>0        0.0706
     20  C8         1.2360   35.0620   58.8750 C.ar    0  <0>0       -0.0012
     21  C9         2.1330   36.0890   58.6400 C.ar    0  <0>0       -0.0001
     22  C10        2.9390   36.0520   57.5160 C.ar    0  <0>0        0.0031
@<TRIPOS>BOND
     1    11    10   ar
     2    11    12   ar
     3    10     9   ar
     4    12     7   ar
     5     9     8   ar
     6     7     8   ar
     7     7     5    1
     8     5     6    1
     9     5     4    1
    10     3     1    1
    11     4     1    1
    12     2     1    1
    13     1    13    1
    14    15    14    1
    15    15    16    1
    16    13    14    1
    17    14    19    1
    18    18    16   ar
    19    18    22   ar
    20    16    17   ar
    21    22    21   ar
    22    19    17    1
    23    17    20   ar
    24    21    20   ar
