@<TRIPOS>MOLECULE
ZINC41584501_replica-1.pdb
 30 32 0 0 0
SMALL
GASTEIGER

@<TRIPOS>ATOM
      1  C8         2.9480   35.5990   57.9030 C.ar    0  <0>0        0.0252
      2  C9         2.8010   35.7910   56.5370 C.ar    0  <0>0        0.1305
      3  C10        3.9120   36.0480   55.7370 C.ar    0  <0>0        0.0364
      4  C11        5.1600   36.1040   56.2830 C.ar    0  <0>0        0.0058
      5  C12        5.3320   35.8890   57.6580 C.ar    0  <0>0        0.0307
      6  C13        4.2080   35.6650   58.4750 C.ar    0  <0>0        0.1452
      7  O1         4.3610   35.5280   59.8150 O.2     0  <0>0       -0.4214
      8  C14        5.5560   35.0650   60.2470 C.ar    0  <0>0        0.3454
      9  O2         5.6300   34.2920   61.1850 O.2     0  <0>0       -0.2445
     10  C15        6.7660   35.5240   59.5440 C.ar    0  <0>0        0.0722
     11  C16        6.6290   35.9100   58.2340 C.ar    0  <0>0       -0.0127
     12  C17        7.8240   36.3620   57.4350 C.3     0  <0>0        0.0313
     13  C7         1.7400   35.3270   58.7620 C.3     0  <0>0       -0.0437
     14  N1         1.5710   33.8780   58.9250 N.4     0  <0>0        0.3898
     15  H27        2.3450   33.3970   58.4910 H       0  <0>0       -0.0792
     16  C3         1.5300   33.5470   60.3560 C.3     0  <0>0       -0.0769
     17  C2         0.2490   34.1130   60.9730 C.3     0  <0>0       -0.0228
     18  C1        -0.0980   33.3260   62.2390 C.3     0  <0>0       -0.0022
     19  C4         0.3160   33.4560   58.2900 C.3     0  <0>0       -0.0769
     20  C5         0.5050   32.0790   57.6500 C.3     0  <0>0       -0.0228
     21  C6         1.3710   32.2140   56.3960 C.3     0  <0>0       -0.0022
     22  O3         1.5670   35.7250   55.9760 O.3     0  <0>0       -0.5058
     23  H26        1.3490   34.8600   55.6040 H       0  <0>0        0.2922
     24  C18        8.0820   35.5580   60.2230 C.ar    0  <0>0        0.0060
     25  C23        8.4620   36.6790   60.9580 C.ar    0  <0>0        0.0011
     26  C22        9.6870   36.7030   61.5930 C.ar    0  <0>0        0.0114
     27  C21       10.5430   35.6180   61.4910 C.ar    0  <0>0        0.0577
     28  C20       10.1730   34.5050   60.7560 C.ar    0  <0>0        0.0114
     29 Cl         12.0850   35.6570   62.2860 Cl      0  <0>0       -0.0822
     30  C19        8.9480   34.4680   60.1220 C.ar    0  <0>0        0.0011
@<TRIPOS>BOND
     1    23    22    1
     2     3     4   ar
     3     3     2   ar
     4    22     2    1
     5     4     5   ar
     6    21    20    1
     7     2     1   ar
     8    12    11    1
     9    20    19    1
    10     5    11   ar
    11     5     6   ar
    12     1     6   ar
    13     1    13    1
    14    11    10   ar
    15    19    14    1
    16     6     7   ar
    17    15    14    1
    18    13    14    1
    19    14    16    1
    20    10    24    1
    21    10     8   ar
    22     7     8   ar
    23    30    24   ar
    24    30    28   ar
    25    24    25   ar
    26     8     9    2
    27    16    17    1
    28    28    27   ar
    29    25    26   ar
    30    17    18    1
    31    27    26   ar
    32    27    29    1
