@<TRIPOS>MOLECULE
ZINC03583535_replica-1.pdb
 24 26 0 0 0
SMALL
GASTEIGER

@<TRIPOS>ATOM
      1  C8         9.9460   35.5990   60.3800 C.2     0  <0>0        0.3175
      2  N1        10.6890   34.5250   60.5780 N.2     0  <0>0       -0.3085
      3  C9        11.4460   34.8040   61.6600 C.1     0  <0>0        0.1271
      4  N2        11.1360   36.0130   62.0520 N.2     0  <0>0       -0.0068
      5  O2        10.2800   36.4840   61.3320 O.2     0  <0>0       -0.3108
      6  C10       12.4480   33.9070   62.2870 C.ar    0  <0>0        0.0770
      7  C15       12.0540   32.6810   62.8190 C.ar    0  <0>0        0.0150
      8  C14       12.9900   31.8510   63.4010 C.ar    0  <0>0        0.0721
      9  C13       14.3180   32.2340   63.4560 C.ar    0  <0>0        0.0039
     10  C12       14.7140   33.4520   62.9350 C.ar    0  <0>0        0.0007
     11  C11       13.7880   34.2870   62.3460 C.ar    0  <0>0        0.0111
     12  C16       12.5640   30.5240   63.9760 C.3     0  <0>0        0.4186
     13  F1        13.0830   30.3880   65.2680 F       0  <0>0       -0.1659
     14  F2        11.1680   30.4640   64.0250 F       0  <0>0       -0.1659
     15  F3        13.0470   29.4890   63.1680 F       0  <0>0       -0.1659
     16  C6         8.9440   35.7910   59.3120 C.ar    0  <0>0        0.0785
     17  C5         7.9480   34.8350   59.1050 C.ar    0  <0>0        0.0404
     18  C4         7.0120   35.0190   58.1050 C.ar    0  <0>0        0.0100
     19 Br          7.8780   33.2910   60.1930 Br      0  <0>0       -0.0488
     20  C3         7.0600   36.1480   57.3080 C.ar    0  <0>0        0.0374
     21  C2         8.0470   37.1030   57.5060 C.ar    0  <0>0        0.1390
     22  C7         8.9870   36.9310   58.5090 C.ar    0  <0>0        0.0433
     23  O1         8.0890   38.2100   56.7190 O.3     0  <0>0       -0.4714
     24  C1         7.1520   38.2760   55.6420 C.3     0  <0>0        0.2525
@<TRIPOS>BOND
     1    24    23    1
     2    23    21    1
     3    20    21   ar
     4    20    18   ar
     5    21    22   ar
     6    18    17   ar
     7    22    16   ar
     8    17    16   ar
     9    17    19    1
    10    16     1    1
    11     1     2    2
    12     1     5    1
    13     2     3    2
    14     5     4    1
    15     3     4    2
    16     3     6    1
    17     6    11   ar
    18     6     7   ar
    19    11    10   ar
    20     7     8   ar
    21    10     9   ar
    22    15    12    1
    23     8     9   ar
    24     8    12    1
    25    12    14    1
    26    12    13    1
