@<TRIPOS>MOLECULE
ZINC13457850_replica-1.pdb
 27 28 0 0 0
SMALL
GASTEIGER

@<TRIPOS>ATOM
      1  C9         7.5820   34.6370   57.6790 C.2     0  <0>0        0.2672
      2  O2         8.3830   34.6700   56.7680 O.2     0  <0>0       -0.2711
      3  N1         7.7210   35.4710   58.7290 N.am    0  <0>0       -0.2992
      4  H10        7.0810   35.4440   59.4570 H       0  <0>0        0.1498
      5  C8         6.4370   33.6590   57.6400 C.3     0  <0>0        0.2893
      6  O1         5.4070   34.1660   56.7880 O.3     0  <0>0       -0.4659
      7  C7         4.2690   34.6050   57.3890 C.ar    0  <0>0        0.1355
      8  C2         3.5740   35.6810   56.8560 C.ar    0  <0>0        0.0121
      9  C1         4.0830   36.3610   55.6110 C.3     0  <0>0        0.0342
     10  C3         2.4130   36.1290   57.4590 C.ar    0  <0>0       -0.0011
     11  C4         1.9440   35.5140   58.6010 C.ar    0  <0>0        0.0065
     12  C5         2.6390   34.4340   59.1480 C.ar    0  <0>0        0.0828
     13  C6         3.8080   33.9810   58.5360 C.ar    0  <0>0        0.0432
     14  C20        2.1400   33.7740   60.3720 C.2     0  <0>0        0.3879
     15  O3         1.0090   33.9920   60.7620 O.co2   0  <0>0       -0.2406
     16  O4         2.9360   32.9320   61.0560 O.co2   0  <0>0       -0.2406
     17  C10        8.8380   36.4180   58.7690 C.3     0  <0>0        0.0941
     18  C11        9.7490   36.0710   59.9190 C.ar    0  <0>0       -0.0044
     19  C16       10.4280   34.8670   59.9230 C.ar    0  <0>0       -0.0004
     20  C15       11.2630   34.5490   60.9770 C.ar    0  <0>0        0.0294
     21  C14       11.4200   35.4360   62.0290 C.ar    0  <0>0        0.1401
     22  C13       10.7390   36.6420   62.0230 C.ar    0  <0>0        0.0294
     23  F1        12.2380   35.1260   63.0590 F       0  <0>0       -0.2042
     24  C12        9.9090   36.9600   60.9650 C.ar    0  <0>0       -0.0004
     25  C17        8.2980   37.8360   58.9570 C.3     0  <0>0        0.0222
     26  C18        8.4800   38.6270   57.6590 C.3     0  <0>0        0.0020
     27  C19        6.8120   37.7740   59.3120 C.3     0  <0>0        0.0020
@<TRIPOS>BOND
     1     9     8    1
     2     2     1    2
     3     6     7    1
     4     6     5    1
     5     8     7   ar
     6     8    10   ar
     7     7    13   ar
     8    10    11   ar
     9     5     1    1
    10    26    25    1
    11     1     3   am
    12    13    12   ar
    13    11    12   ar
    14     3    17    1
    15     3     4    1
    16    17    25    1
    17    17    18    1
    18    25    27    1
    19    12    14    1
    20    18    19   ar
    21    18    24   ar
    22    19    20   ar
    23    14    15   ar
    24    14    16   ar
    25    24    22   ar
    26    20    21   ar
    27    22    21   ar
    28    21    23    1
