@<TRIPOS>MOLECULE
ZINC01079465_replica-1.pdb
 29 32 0 0 0
SMALL
GASTEIGER

@<TRIPOS>ATOM
      1  N1         7.0640   37.0760   58.4860 N.ar    0  <0>0       -0.2339
      2  C8         6.0210   36.7490   59.2810 C.ar    0  <0>0        0.1238
      3  C9         5.1030   36.0730   58.4950 C.ar    0  <0>0        0.0497
      4  C10        5.6360   36.0070   57.1930 C.ar    0  <0>0        0.1249
      5  N2         6.8000   36.5980   57.1970 N.ar    0  <0>0       -0.1686
      6  C11        4.9780   35.3590   56.0010 C.3     0  <0>0        0.2526
      7  O1         5.1770   33.9450   56.0590 O.3     0  <0>0       -0.4689
      8  C12        4.1240   33.1910   56.4720 C.ar    0  <0>0        0.1391
      9  C17        2.8510   33.4480   55.9850 C.ar    0  <0>0        0.0369
     10  C16        1.7830   32.6810   56.4060 C.ar    0  <0>0        0.0031
     11  C15        1.9810   31.6560   57.3130 C.ar    0  <0>0        0.0002
     12  C14        3.2490   31.3980   57.8000 C.ar    0  <0>0        0.0031
     13  C13        4.3210   32.1620   57.3820 C.ar    0  <0>0        0.0369
     14  C18        3.8000   35.5220   58.9420 C.ar    0  <0>0        0.0040
     15  C23        3.7630   34.4630   59.8470 C.ar    0  <0>0        0.0001
     16  C22        2.5470   33.9550   60.2590 C.ar    0  <0>0        0.0000
     17  C21        1.3690   34.4940   59.7750 C.ar    0  <0>0        0.0000
     18  C20        1.4010   35.5440   58.8750 C.ar    0  <0>0        0.0000
     19  C19        2.6090   36.0650   58.4620 C.ar    0  <0>0        0.0001
     20  N3         5.8940   37.0360   60.6330 N.pl3   0  <0>0       -0.3428
     21  H20        5.2470   36.5560   61.1720 H       0  <0>0        0.1437
     22  H21        6.4530   37.7170   61.0380 H       0  <0>0        0.1437
     23  C7         8.2660   37.8000   58.9020 C.3     0  <0>0        0.1552
     24  C4         9.1790   36.8680   59.6560 C.ar    0  <0>0        0.0022
     25  C3         9.6450   37.2190   60.9090 C.ar    0  <0>0       -0.0023
     26  C2        10.4840   36.3630   61.5990 C.ar    0  <0>0       -0.0003
     27  C1        10.8550   35.1570   61.0370 C.ar    0  <0>0       -0.0000
     28  C6        10.3880   34.8050   59.7850 C.ar    0  <0>0       -0.0003
     29  C5         9.5470   35.6590   59.0960 C.ar    0  <0>0       -0.0023
@<TRIPOS>BOND
     1     9    10   ar
     2     9     8   ar
     3     6     7    1
     4     6     4    1
     5     7     8    1
     6    10    11   ar
     7     8    13   ar
     8     4     5   ar
     9     4     3   ar
    10     5     1   ar
    11    11    12   ar
    12    13    12   ar
    13    19    18   ar
    14    19    14   ar
    15     1    23    1
    16     1     2   ar
    17     3    14    1
    18     3     2   ar
    19    18    17   ar
    20    23    24    1
    21    14    15   ar
    22    29    24   ar
    23    29    28   ar
    24     2    20    1
    25    24    25   ar
    26    17    16   ar
    27    28    27   ar
    28    15    16   ar
    29    20    22    1
    30    20    21    1
    31    25    26   ar
    32    27    26   ar
