@<TRIPOS>MOLECULE
ZINC19241374_replica-1.pdb
 29 31 0 0 0
SMALL
GASTEIGER

@<TRIPOS>ATOM
      1  N1         7.7470   36.0760   58.0870 N.am    0  <0>0       -0.3015
      2  C14        7.7500   35.9310   56.7470 C.2     0  <0>0        0.2341
      3  O1         8.4910   36.6080   56.0660 O.2     0  <0>0       -0.2741
      4  H20        7.0750   35.4610   58.7050 H       0  <0>0        0.1497
      5  C10        8.6390   37.0510   58.7210 C.3     0  <0>0        0.0940
      6  C7         9.5280   36.3470   59.7130 C.ar    0  <0>0       -0.0045
      7  C6         9.8830   36.9760   60.8910 C.ar    0  <0>0       -0.0030
      8  C5        10.7000   36.3310   61.8010 C.ar    0  <0>0       -0.0045
      9  C4        11.1590   35.0550   61.5340 C.ar    0  <0>0       -0.0225
     10  C9        10.8040   34.4250   60.3560 C.ar    0  <0>0       -0.0045
     11  C8         9.9830   35.0680   59.4480 C.ar    0  <0>0       -0.0030
     12  C2        12.0480   34.3510   62.5270 C.3     0  <0>0        0.0224
     13  C1        11.5370   32.9250   62.7460 C.3     0  <0>0        0.0047
     14  C3        13.4780   34.3030   61.9860 C.3     0  <0>0        0.0047
     15  C11        7.8040   38.1090   59.4450 C.3     0  <0>0        0.0222
     16  C12        7.5180   39.2720   58.4930 C.3     0  <0>0        0.0020
     17  C13        6.4830   37.4890   59.9050 C.3     0  <0>0        0.0020
     18  C15        6.8340   34.9280   56.0950 C.3     0  <0>0        0.1489
     19  S1         5.2950   35.7490   55.5970 S.3     0  <0>0       -0.0768
     20  C16        4.2230   35.5180   56.9750 C.ar    0  <0>0        0.1610
     21  S2         2.4640   35.8070   57.1020 S.2     0  <0>0       -0.0245
     22  C17        2.2660   35.3110   58.8070 C.ar    0  <0>0        0.1828
     23  N3         3.5000   34.9730   59.1250 N.ar    0  <0>0       -0.1252
     24  N2         4.5010   35.0780   58.1870 N.ar    0  <0>0       -0.1331
     25  N4         1.1160   35.2840   59.5890 N.pl3   0  <0>0       -0.3132
     26  H23        0.6330   36.2260   59.8880 H       0  <0>0        0.1487
     27  C18        0.5490   34.0020   60.0130 C.3     0  <0>0        0.0710
     28  C20       -0.1470   33.9530   61.3750 C.3     0  <0>0        0.0212
     29  C19        1.2180   33.2880   61.1880 C.3     0  <0>0        0.0212
@<TRIPOS>BOND
     1    19    18    1
     2    19    20    1
     3     3     2    2
     4    18     2    1
     5     2     1   am
     6    20    21   ar
     7    20    24   ar
     8    21    22   ar
     9     1     4    1
    10     1     5    1
    11    24    23   ar
    12    16    15    1
    13     5    15    1
    14     5     6    1
    15    22    23   ar
    16    22    25    1
    17    15    17    1
    18    11     6   ar
    19    11    10   ar
    20    25    26    1
    21    25    27    1
    22     6     7   ar
    23    27    29    1
    24    27    28    1
    25    10     9   ar
    26     7     8   ar
    27    29    28    1
    28     9     8   ar
    29     9    12    1
    30    14    12    1
    31    12    13    1
