@<TRIPOS>MOLECULE
ZINC40729887_replica-1.pdb
 24 24 0 0 0
SMALL
GASTEIGER

@<TRIPOS>ATOM
      1  C9        -0.0710   28.1190   54.9970 C.ar    0  <0>0       -0.0080
      2  C10        0.4200   26.8670   55.3160 C.ar    0  <0>0        0.0081
      3  C11        0.3370   25.8350   54.3980 C.ar    0  <0>0        0.0583
      4  C12       -0.2370   26.0540   53.1590 C.ar    0  <0>0        0.0258
      5  C13       -0.7290   27.3040   52.8340 C.ar    0  <0>0        0.0920
      6  C14       -0.6510   28.3390   53.7560 C.ar    0  <0>0        0.1428
      7 Cl         -1.4480   27.5790   51.2780 Cl      0  <0>0       -0.0791
      8 Cl          0.9550   24.2640   54.8030 Cl      0  <0>0       -0.0822
      9  C8         0.0210   29.2430   55.9970 C.3     0  <0>0       -0.0511
     10  N1         0.9150   30.2870   55.4790 N.4     0  <0>0        0.3866
     11  H16        0.8630   30.3040   54.4700 H       0  <0>0       -0.0840
     12  H28        1.8620   30.0910   55.7630 H       0  <0>0       -0.0840
     13  C7         0.5030   31.5920   56.0120 C.3     0  <0>0       -0.0787
     14  C6         1.4800   32.0260   57.1070 C.3     0  <0>0        0.0088
     15  C5         0.6970   32.5760   58.3000 C.3     0  <0>0        0.1400
     16  O1        -0.1530   33.6390   57.8630 O.3     0  <0>0       -0.3539
     17  C4         0.5180   34.8890   57.6980 C.3     0  <0>0        0.1422
     18  C3         1.3270   35.2040   58.9580 C.3     0  <0>0        0.0321
     19  C2         2.5030   36.1120   58.5950 C.3     0  <0>0        0.0026
     20  C1         3.7080   35.2540   58.2040 C.3     0  <0>0        0.0001
     21  O2        -1.1400   29.5680   53.4420 O.3     0  <0>0       -0.4787
     22  C15       -2.5500   29.7590   53.5690 C.3     0  <0>0        0.1662
     23  C16       -2.8370   30.6700   54.7640 C.3     0  <0>0        0.0472
     24  C17       -3.0940   30.4040   52.2930 C.3     0  <0>0        0.0472
@<TRIPOS>BOND
     1     7     5    1
     2    24    22    1
     3     5     4   ar
     4     5     6   ar
     5     4     3   ar
     6    21    22    1
     7    21     6    1
     8    22    23    1
     9     6     1   ar
    10     3     8    1
    11     3     2   ar
    12    11    10    1
    13     1     2   ar
    14     1     9    1
    15    10    12    1
    16    10     9    1
    17    10    13    1
    18    13    14    1
    19    14    15    1
    20    17    16    1
    21    17    18    1
    22    16    15    1
    23    20    19    1
    24    19    18    1
