@<TRIPOS>MOLECULE
ZINC02205546_replica-1.pdb
 26 28 0 0 0
SMALL
GASTEIGER

@<TRIPOS>ATOM
      1  C10       -0.0960   28.8790   55.0090 C.2     0  <0>0        0.2261
      2  O1        -1.2350   28.9580   55.4150 O.2     0  <0>0       -0.2748
      3  N1         0.6960   29.9700   55.0090 N.am    0  <0>0       -0.3037
      4  H13        1.6080   29.9080   54.6850 H       0  <0>0        0.1494
      5  C11        0.1790   31.2500   55.4990 C.3     0  <0>0        0.0941
      6  C12        0.6510   31.4740   56.9380 C.3     0  <0>0        0.0491
      7  C13        0.8610   32.9470   57.1750 C.ar    0  <0>0       -0.0021
      8  C16        1.9240   33.7780   56.6050 C.ar    0  <0>0        0.0128
      9  C15        1.7130   35.0770   57.1050 C.ar    0  <0>0        0.0563
     10  C17        2.9920   33.5300   55.7410 C.ar    0  <0>0       -0.0031
     11  N2         0.6070   35.0210   57.9240 N.ar    0  <0>0       -0.3523
     12  C20        2.5750   36.1000   56.7290 C.ar    0  <0>0        0.0166
     13  C14        0.1130   33.7450   57.9530 C.ar    0  <0>0        0.0681
     14  H2         0.2330   35.7740   58.4080 H       0  <0>0        0.1660
     15  C19        3.6290   35.8320   55.8830 C.ar    0  <0>0       -0.0028
     16  C18        3.8300   34.5510   55.3880 C.ar    0  <0>0       -0.0218
     17  C21        4.9840   34.2810   54.4560 C.3     0  <0>0        0.0310
     18  C3         0.4360   27.5630   54.5040 C.3     0  <0>0        0.0987
     19  C2         0.2370   26.4880   55.5740 C.3     0  <0>0        0.0135
     20  C1         0.8040   26.9840   56.9060 C.3     0  <0>0        0.0009
     21  C4        -0.3050   27.1690   53.2530 C.ar    0  <0>0       -0.0139
     22  C9        -1.0470   28.1100   52.5640 C.ar    0  <0>0       -0.0038
     23  C8        -1.7250   27.7500   51.4140 C.ar    0  <0>0       -0.0003
     24  C7        -1.6670   26.4470   50.9580 C.ar    0  <0>0       -0.0000
     25  C6        -0.9290   25.5040   51.6490 C.ar    0  <0>0       -0.0003
     26  C5        -0.2490   25.8650   52.7970 C.ar    0  <0>0       -0.0038
@<TRIPOS>BOND
     1    24    23   ar
     2    24    25   ar
     3    23    22   ar
     4    25    26   ar
     5    22    21   ar
     6    26    21   ar
     7    21    18    1
     8    17    16    1
     9    18     1    1
    10    18    19    1
    11     4     3    1
    12     1     3   am
    13     1     2    2
    14     3     5    1
    15    16    10   ar
    16    16    15   ar
    17     5     6    1
    18    19    20    1
    19    10     8   ar
    20    15    12   ar
    21     8     9   ar
    22     8     7   ar
    23    12     9   ar
    24     6     7    1
    25     9    11   ar
    26     7    13   ar
    27    11    13   ar
    28    11    14    1
