@<TRIPOS>MOLECULE
ZINC20479809_replica-1.pdb
 23 26 0 0 0
SMALL
GASTEIGER

@<TRIPOS>ATOM
      1  C5         3.7930   35.8960   56.5110 C.3     0  <0>0        0.1521
      2  N1         5.1860   36.0140   57.0020 N.am    0  <0>0       -0.2719
      3  C6         6.1560   35.9320   55.8900 C.3     0  <0>0        0.1637
      4  C7         5.8330   34.6610   55.0580 C.3     0  <0>0        0.0886
      5  S2         3.9890   34.7880   55.0500 S.3     0  <0>0       -0.1140
      6  C8         7.4850   35.7720   56.5880 C.2     0  <0>0        0.2533
      7  O1         8.5600   35.5390   56.0770 O.2     0  <0>0       -0.2723
      8  N2         7.2260   35.9450   57.9010 N.am    0  <0>0       -0.2185
      9  C9         5.9180   36.1240   58.1250 C.2     0  <0>0        0.1487
     10  S3         5.2520   36.4600   59.6670 S.2     0  <0>0       -0.0177
     11  C10        8.2030   35.9310   58.9060 C.ar    0  <0>0        0.0607
     12  C15        8.5870   34.7310   59.4870 C.ar    0  <0>0        0.0289
     13  C14        9.5550   34.7180   60.4740 C.ar    0  <0>0        0.0863
     14  C13       10.1380   35.9060   60.8870 C.ar    0  <0>0        0.1507
     15 Cl         10.0400   33.2170   61.1950 Cl      0  <0>0       -0.0799
     16  C12        9.7510   37.1050   60.3140 C.ar    0  <0>0        0.0318
     17  F1        11.0830   35.8940   61.8520 F       0  <0>0       -0.2033
     18  C11        8.7850   37.1210   59.3270 C.ar    0  <0>0        0.0176
     19  C3         2.9090   35.2590   57.5520 C.ar    0  <0>0        0.0356
     20  C2         1.8590   35.7930   58.2210 C.ar    0  <0>0        0.0052
     21  C1         1.1840   35.0130   59.1420 C.ar    0  <0>0        0.0072
     22  C4         1.5980   33.7400   59.3530 C.ar    0  <0>0        0.0352
     23  S1         2.9780   33.6080   58.2290 S.2     0  <0>0       -0.0883
@<TRIPOS>BOND
     1     5     4    1
     2     5     1    1
     3     4     3    1
     4     3     6    1
     5     3     2    1
     6     7     6    2
     7     1     2    1
     8     1    19    1
     9     6     8   am
    10     2     9    1
    11    19    20   ar
    12    19    23   ar
    13     8     9    1
    14     8    11    1
    15     9    10    2
    16    20    21   ar
    17    23    22   ar
    18    11    18   ar
    19    11    12   ar
    20    21    22   ar
    21    18    16   ar
    22    12    13   ar
    23    16    14   ar
    24    13    14   ar
    25    13    15    1
    26    14    17    1
