@<TRIPOS>MOLECULE
ZINC50164498_replica-1.pdb
 18 18 0 0 0
SMALL
GASTEIGER

@<TRIPOS>ATOM
      1  N1        11.3830   34.4140   61.4790 N.am    0  <0>0       -0.3027
      2  C7        10.8450   35.6470   61.3870 C.2     0  <0>0        0.2424
      3  O1        11.0810   36.4780   62.2410 O.2     0  <0>0       -0.2705
      4  H14       11.1940   33.7510   60.7970 H       0  <0>0        0.1497
      5  C8         9.9670   35.9880   60.2430 C.2     0  <0>0        0.0426
      6  C12        9.8140   35.1060   59.1690 C.3     0  <0>0        0.1020
      7  C11        8.9820   35.4620   58.1230 C.2     0  <0>0        0.1714
      8  N2         8.3470   36.6180   58.1260 N.2     0  <0>0       -0.3831
      9 Cl          8.7760   34.3750   56.7850 Cl      0  <0>0       -0.0521
     10  C10        8.4680   37.4800   59.1170 C.2     0  <0>0        0.1892
     11  C9         9.2760   37.2020   60.2040 C.2     0  <0>0        0.0446
     12 Cl          7.6020   38.9830   59.0560 Cl      0  <0>0       -0.0480
     13  C4        12.2520   34.0760   62.6090 C.3     0  <0>0        0.0718
     14  C3        13.7150   34.1610   62.1710 C.3     0  <0>0        0.0196
     15  C2        14.5410   33.1390   62.9540 C.3     0  <0>0        0.0017
     16  C1        15.2850   33.8460   64.0890 C.3     0  <0>0        0.0001
     17  C5        11.9420   32.6540   63.0820 C.3     0  <0>0        0.0196
     18  C6        10.6030   32.2020   62.4970 C.3     0  <0>0        0.0017
@<TRIPOS>BOND
     1     9     7    1
     2     7     8    2
     3     7     6    1
     4     8    10    2
     5    12    10    1
     6    10    11    1
     7     6     5    1
     8    11     5    2
     9     5     2    1
    10     4     1    1
    11     2     1   am
    12     2     3    2
    13     1    13    1
    14    14    13    1
    15    14    15    1
    16    18    17    1
    17    13    17    1
    18    15    16    1
