@<TRIPOS>MOLECULE
ZINC66166059_replica-1.pdb
 25 26 0 0 0
SMALL
GASTEIGER

@<TRIPOS>ATOM
      1  N1         9.8450   34.8010   59.4500 N.pl3   0  <0>0       -0.3297
      2  H11       10.2030   33.9160   59.6240 H       0  <0>0        0.1469
      3  C9        10.1150   35.8960   60.3840 C.3     0  <0>0        0.1351
      4  C8        10.9880   35.3860   61.5310 C.3     0  <0>0        0.2265
      5  O1        10.7280   33.9970   61.7460 O.3     0  <0>0       -0.4736
      6  C6        11.7010   33.2750   62.3600 C.ar    0  <0>0        0.1380
      7  C5        12.9870   33.7850   62.4610 C.ar    0  <0>0        0.0326
      8  C4        13.9740   33.0480   63.0860 C.ar    0  <0>0       -0.0192
      9  C3        13.6820   31.8020   63.6110 C.ar    0  <0>0       -0.0083
     10  C21       15.3720   33.6020   63.1970 C.3     0  <0>0        0.0311
     11  C2        12.4010   31.2910   63.5110 C.ar    0  <0>0       -0.0192
     12  C1        12.0860   29.9330   64.0830 C.3     0  <0>0        0.0311
     13  C7        11.4110   32.0220   62.8810 C.ar    0  <0>0        0.0326
     14  C10        9.0710   35.0300   58.3060 C.ar    0  <0>0        0.0449
     15  C15        8.4910   33.9620   57.6350 C.ar    0  <0>0        0.0174
     16  C14        7.7230   34.1910   56.5100 C.ar    0  <0>0        0.0382
     17  C13        7.5410   35.4850   56.0440 C.ar    0  <0>0        0.1386
     18  C12        8.1240   36.5510   56.7120 C.ar    0  <0>0        0.0382
     19  C11        8.8880   36.3250   57.8400 C.ar    0  <0>0        0.0174
     20  O2         6.7890   35.7080   54.9330 O.3     0  <0>0       -0.4755
     21  C16        5.4240   35.2850   54.9770 C.3     0  <0>0        0.2054
     22  C17        4.5970   36.3110   55.7530 C.3     0  <0>0        0.0473
     23  C18        3.8910   35.6200   56.9210 C.3     0  <0>0        0.0037
     24  C19        4.6180   35.9540   58.2260 C.3     0  <0>0        0.0001
     25  C20        2.4440   36.1100   57.0050 C.3     0  <0>0        0.0001
@<TRIPOS>BOND
     1    20    21    1
     2    20    17    1
     3    21    22    1
     4    22    23    1
     5    17    16   ar
     6    17    18   ar
     7    16    15   ar
     8    18    19   ar
     9    23    25    1
    10    23    24    1
    11    15    14   ar
    12    19    14   ar
    13    14     1    1
    14     1     2    1
    15     1     3    1
    16     3     4    1
    17     4     5    1
    18     5     6    1
    19     6     7   ar
    20     6    13   ar
    21     7     8   ar
    22    13    11   ar
    23     8    10    1
    24     8     9   ar
    25    11     9   ar
    26    11    12    1
