@<TRIPOS>MOLECULE
ZINC37856852_replica-1.pdb
 23 24 0 0 0
SMALL
GASTEIGER

@<TRIPOS>ATOM
      1  C9         9.0870   37.1470   60.9110 C.3     0  <0>0        0.1735
      2  C8        10.3550   36.5270   61.4990 C.3     0  <0>0        0.1206
      3  N1        10.4520   35.1250   61.0840 N.pl3   0  <0>0       -0.3306
      4  H9         9.9230   34.8030   60.3360 H       0  <0>0        0.1469
      5  C5        11.3030   34.2520   61.7640 C.ar    0  <0>0        0.0447
      6  C4        12.5830   34.6620   62.1170 C.ar    0  <0>0        0.0140
      7  C3        13.4220   33.7950   62.7910 C.ar    0  <0>0       -0.0030
      8  C2        12.9890   32.5230   63.1150 C.ar    0  <0>0       -0.0218
      9  C1        13.9080   31.5810   63.8500 C.3     0  <0>0        0.0310
     10  C7        11.7180   32.1100   62.7610 C.ar    0  <0>0       -0.0030
     11  C6        10.8710   32.9720   62.0920 C.ar    0  <0>0        0.0140
     12  C10        8.4630   36.1750   59.9070 C.3     0  <0>0        0.2362
     13  O1         9.2000   36.2160   58.6830 O.3     0  <0>0       -0.4711
     14  C11        8.4830   36.1750   57.5290 C.ar    0  <0>0        0.1595
     15  C16        8.1660   37.3530   56.8670 C.ar    0  <0>0        0.0924
     16  C15        7.4410   37.3090   55.6890 C.ar    0  <0>0        0.0145
     17 Cl          8.6840   38.8800   57.5110 Cl      0  <0>0       -0.0791
     18  C14        7.0230   36.0930   55.1790 C.ar    0  <0>0        0.0019
     19  C13        7.3340   34.9200   55.8400 C.ar    0  <0>0        0.0145
     20  C12        8.0630   34.9580   57.0150 C.ar    0  <0>0        0.0924
     21 Cl          8.4510   33.4830   57.8430 Cl      0  <0>0       -0.0791
     22  O2         8.1540   37.4110   61.9620 O.3     0  <0>0       -0.3791
     23  H17        8.5350   37.8810   62.7170 H       0  <0>0        0.2106
@<TRIPOS>BOND
     1    18    16   ar
     2    18    19   ar
     3    16    15   ar
     4    19    20   ar
     5    15    17    1
     6    15    14   ar
     7    20    14   ar
     8    20    21    1
     9    14    13    1
    10    13    12    1
    11    12     1    1
    12     4     3    1
    13     1     2    1
    14     1    22    1
    15     3     2    1
    16     3     5    1
    17     5    11   ar
    18     5     6   ar
    19    22    23    1
    20    11    10   ar
    21     6     7   ar
    22    10     8   ar
    23     7     8   ar
    24     8     9    1
