@<TRIPOS>MOLECULE
ZINC36849021_replica-1.pdb
 25 27 0 0 0
SMALL
GASTEIGER

@<TRIPOS>ATOM
      1  C1         5.1030   31.0390   60.6420 C.3     0  <0>0        0.0275
      2  C2         5.9520   31.3940   59.4480 C.2     0  <0>0       -0.0264
      3  C3         6.6500   30.4450   58.8060 C.2     0  <0>0        0.0027
      4  S1         7.4670   31.3440   57.5020 S.3     0  <0>0       -0.0639
      5  C4         6.8470   32.9680   57.8550 C.2     0  <0>0        0.1524
      6  C5         6.0170   32.7660   58.9730 C.3     0  <0>0        0.1540
      7  C6         5.3640   33.9320   59.4840 C.2     0  <0>0        0.2422
      8  O1         4.6300   33.8540   60.4540 O.2     0  <0>0       -0.2737
      9  N1         5.5720   35.1160   58.8800 N.am    0  <0>0       -0.2266
     10  C7         6.3920   35.2230   57.7930 C.2     0  <0>0        0.2169
     11  N2         7.0130   34.1670   57.3080 N.2     0  <0>0       -0.3776
     12  C17        4.9060   36.3140   59.3990 C.3     0  <0>0        0.1230
     13  C18        6.7270   28.9730   59.1160 C.3     0  <0>0        0.0376
     14  S2         6.6310   36.7960   57.0370 S.3     0  <0>0       -0.0597
     15  C8         8.3200   37.2560   57.5090 C.3     0  <0>0        0.1171
     16  C9         8.7100   38.5580   56.8050 C.3     0  <0>0        0.0204
     17  C10        8.3900   37.4520   59.0020 C.2     0  <0>0        0.1831
     18  O2         7.6780   38.2740   59.5380 O.2     0  <0>0       -0.2904
     19  C11        9.3210   36.6480   59.8070 C.ar    0  <0>0        0.0356
     20  C16        9.7540   35.4000   59.3430 C.ar    0  <0>0        0.0034
     21  C15       10.6310   34.6540   60.0990 C.ar    0  <0>0        0.0068
     22  C14       11.0750   35.1310   61.3220 C.ar    0  <0>0        0.0346
     23  C13       10.6470   36.3610   61.7910 C.ar    0  <0>0        0.0068
     24 Br         12.2740   34.0960   62.3550 Br      0  <0>0       -0.0490
     25  C12        9.7750   37.1220   61.0420 C.ar    0  <0>0        0.0034
@<TRIPOS>BOND
     1    16    15    1
     2    14    15    1
     3    14    10    1
     4    11    10    2
     5    11     5    2
     6     4     5    1
     7     4     3    1
     8    15    17    1
     9    10     9    1
    10     5     6    1
    11     3    13    1
    12     3     2    2
    13     9    12    1
    14     9     7   am
    15     6     2    1
    16     6     7    1
    17    17    18    2
    18    17    19    1
    19    20    19   ar
    20    20    21   ar
    21     2     1    1
    22     7     8    2
    23    19    25   ar
    24    21    22   ar
    25    25    23   ar
    26    22    23   ar
    27    22    24    1
