@<TRIPOS>MOLECULE
ZINC31888846_replica-1.pdb
 22 24 0 0 0
SMALL
GASTEIGER

@<TRIPOS>ATOM
      1  C9        -0.5330   27.6050   53.3070 C.ar    0  <0>0        0.1428
      2  C10       -0.2910   26.4260   52.6240 C.ar    0  <0>0        0.0371
      3  C11       -0.9720   26.1450   51.4500 C.ar    0  <0>0        0.0063
      4  C12       -1.9050   27.0280   50.9490 C.ar    0  <0>0        0.0404
      5  C13       -2.1630   28.2200   51.6140 C.ar    0  <0>0        0.1794
      6  C14       -1.4730   28.5140   52.8030 C.ar    0  <0>0        0.0878
      7  C15       -1.9630   29.8170   53.2550 C.ar    0  <0>0        0.1043
      8  N1        -2.8420   30.2240   52.3910 N.ar    0  <0>0       -0.0812
      9  O2        -2.9860   29.2600   51.3680 O.2     0  <0>0       -0.3536
     10  O1         0.1340   27.8780   54.4560 O.3     0  <0>0       -0.4750
     11  C8         0.8430   26.7980   55.0670 C.3     0  <0>0        0.2101
     12  C7         0.1090   26.3610   56.3370 C.3     0  <0>0        0.0736
     13  C4         0.1610   24.8590   56.4540 C.ar    0  <0>0       -0.0184
     14  C3        -0.2650   24.2410   57.6150 C.ar    0  <0>0       -0.0041
     15  C2        -0.2180   22.8630   57.7210 C.ar    0  <0>0       -0.0003
     16  C1         0.2540   22.1040   56.6670 C.ar    0  <0>0       -0.0000
     17  C6         0.6800   22.7230   55.5060 C.ar    0  <0>0       -0.0003
     18  C5         0.6280   24.1000   55.3970 C.ar    0  <0>0       -0.0041
     19  C16       -1.5230   30.5550   54.4930 C.3     0  <0>0        0.0607
     20  C17       -2.7130   30.7150   55.4410 C.3     0  <0>0        0.0598
     21  S1        -3.0940   29.1160   56.2090 S.3     0  <0>0       -0.1676
     22  H17       -2.5010   28.2270   55.9510 H       0  <0>0        0.1023
@<TRIPOS>BOND
     1     4     3   ar
     2     4     5   ar
     3     9     5   ar
     4     9     8   ar
     5     3     2   ar
     6     5     6   ar
     7     8     7   ar
     8     2     1   ar
     9     6     7   ar
    10     6     1   ar
    11     7    19    1
    12     1    10    1
    13    10    11    1
    14    19    20    1
    15    11    12    1
    16    18    17   ar
    17    18    13   ar
    18    20    21    1
    19    17    16   ar
    20    22    21    1
    21    12    13    1
    22    13    14   ar
    23    16    15   ar
    24    14    15   ar
