@<TRIPOS>MOLECULE
ZINC33373327_replica-1.pdb
 21 22 0 0 0
SMALL
GASTEIGER

@<TRIPOS>ATOM
      1  C11       -1.2750   29.8580   54.3100 C.2     0  <0>0        0.1806
      2  O1        -2.4620   29.9840   54.0870 O.2     0  <0>0       -0.2909
      3  C10       -0.6760   28.5200   54.3530 C.ar    0  <0>0        0.0351
      4  C4        -0.8350   27.5930   53.2330 C.ar    0  <0>0        0.0028
      5  C3        -1.5510   27.9500   52.0850 C.ar    0  <0>0        0.0001
      6  C5        -0.2370   26.3130   53.3150 C.ar    0  <0>0        0.0001
      7  C2        -1.6710   27.0570   51.0610 C.ar    0  <0>0        0.0000
      8  C1        -1.0870   25.7960   51.1400 C.ar    0  <0>0        0.0000
      9  C6        -0.3800   25.4170   52.2410 C.ar    0  <0>0        0.0000
     10  C7         0.4860   25.9600   54.4680 C.ar    0  <0>0        0.0000
     11  C8         0.6180   26.8370   55.5010 C.ar    0  <0>0        0.0001
     12  C9         0.0520   28.1030   55.4650 C.ar    0  <0>0        0.0029
     13  C12       -0.4180   31.0760   54.5420 C.3     0  <0>0        0.1393
     14  C13       -0.4640   31.4510   56.0010 C.2     0  <0>0        0.2241
     15  O2        -1.5120   31.4270   56.5980 O.2     0  <0>0       -0.2897
     16  C14        0.8000   31.8570   56.7140 C.3     0  <0>0        0.3741
     17  F3         1.3590   30.7400   57.3450 F       0  <0>0       -0.1902
     18  F4         1.7120   32.3730   55.7880 F       0  <0>0       -0.1902
     19  C15        0.4760   32.9240   57.7600 C.3     0  <0>0        0.3853
     20  F1         1.5270   33.0110   58.6790 F       0  <0>0       -0.1917
     21  F2         0.3060   34.1610   57.1280 F       0  <0>0       -0.1917
@<TRIPOS>BOND
     1     7     8   ar
     2     7     5   ar
     3     8     9   ar
     4     5     4   ar
     5     9     6   ar
     6     4     6   ar
     7     4     3   ar
     8     6    10   ar
     9     2     1    2
    10     1     3    1
    11     1    13    1
    12     3    12   ar
    13    10    11   ar
    14    13    14    1
    15    12    11   ar
    16    18    16    1
    17    14    15    2
    18    14    16    1
    19    16    17    1
    20    16    19    1
    21    21    19    1
    22    19    20    1
