@<TRIPOS>MOLECULE
ZINC66164603_replica-1.pdb
 21 22 0 0 0
SMALL
GASTEIGER

@<TRIPOS>ATOM
      1  C8        -2.0500   29.5430   53.8020 C.3     0  <0>0        0.1854
      2  C9        -3.0850   30.2670   52.9390 C.3     0  <0>0        0.0491
      3  O1        -0.9480   29.1400   52.9870 O.3     0  <0>0       -0.4781
      4  C7        -0.7540   27.8040   52.8260 C.ar    0  <0>0        0.1304
      5  C2        -0.0470   27.0850   53.7780 C.ar    0  <0>0        0.0118
      6  C1         0.5100   27.7850   54.9910 C.3     0  <0>0        0.0342
      7  C3         0.1440   25.7270   53.6160 C.ar    0  <0>0       -0.0013
      8  C4        -0.3670   25.0840   52.5030 C.ar    0  <0>0       -0.0004
      9  C5        -1.0680   25.8000   51.5490 C.ar    0  <0>0       -0.0013
     10  C6        -1.2610   27.1590   51.7070 C.ar    0  <0>0        0.0118
     11  C17       -2.0250   27.9380   50.6680 C.3     0  <0>0        0.0342
     12  C10       -1.5540   30.4830   54.9010 C.3     0  <0>0        0.1312
     13  N1        -2.4210   30.3620   56.0760 N.pl3   0  <0>0       -0.3280
     14  H13       -3.1680   30.9700   56.1920 H       0  <0>0        0.1470
     15  C11       -2.1720   29.3710   57.0310 C.ar    0  <0>0        0.0725
     16  C16       -1.1690   29.5490   57.9760 C.ar    0  <0>0        0.1531
     17  C15       -0.9300   28.5670   58.9210 C.ar    0  <0>0        0.0309
     18  F1        -0.4300   30.6800   57.9750 F       0  <0>0       -0.2029
     19  C14       -1.6820   27.4060   58.9190 C.ar    0  <0>0        0.0024
     20  C13       -2.6770   27.2260   57.9750 C.ar    0  <0>0        0.0014
     21  C12       -2.9240   28.2040   57.0320 C.ar    0  <0>0        0.0166
@<TRIPOS>BOND
     1    11    10    1
     2     9    10   ar
     3     9     8   ar
     4    10     4   ar
     5     8     7   ar
     6     4     3    1
     7     4     5   ar
     8     2     1    1
     9     3     1    1
    10     7     5   ar
    11     5     6    1
    12     1    12    1
    13    12    13    1
    14    13    14    1
    15    13    15    1
    16    15    21   ar
    17    15    16   ar
    18    21    20   ar
    19    18    16    1
    20    20    19   ar
    21    16    17   ar
    22    19    17   ar
