@<TRIPOS>MOLECULE
ZINC52331594_replica-1.pdb
 20 21 0 0 0
SMALL
GASTEIGER

@<TRIPOS>ATOM
      1  C8        -0.1270   29.4090   55.3350 C.ar    0  <0>0        0.1104
      2  N1         0.1780   29.3510   56.6240 N.ar    0  <0>0       -0.2372
      3  C9         0.2600   30.4370   57.3550 C.ar    0  <0>0        0.0995
      4  C10        0.0320   31.6520   56.7900 C.ar    0  <0>0        0.0063
      5  S1        -0.3140   31.1720   55.1030 S.2     0  <0>0       -0.0729
      6  C11        0.0670   33.0250   57.4120 C.3     0  <0>0       -0.0459
      7  N2         0.6370   33.9820   56.4550 N.4     0  <0>0        0.3868
      8  H11        1.6150   33.7760   56.3180 H       0  <0>0       -0.0840
      9  H21        0.1510   33.9080   55.5760 H       0  <0>0       -0.0840
     10  C12        0.4930   35.3460   56.9830 C.3     0  <0>0       -0.0812
     11  C13        1.8720   36.0040   57.0750 C.3     0  <0>0       -0.0213
     12  C14        2.3770   35.9290   58.5170 C.3     0  <0>0       -0.0022
     13  C15        2.8490   35.2720   56.1530 C.3     0  <0>0       -0.0022
     14  C5        -0.2680   28.3130   54.3530 C.ar    0  <0>0        0.0238
     15  C4         0.3450   27.0810   54.5860 C.ar    0  <0>0        0.0017
     16  C3         0.2100   26.0610   53.6660 C.ar    0  <0>0       -0.0042
     17  C2        -0.5320   26.2580   52.5150 C.ar    0  <0>0       -0.0218
     18  C1        -0.6760   25.1410   51.5140 C.3     0  <0>0        0.0310
     19  C7        -1.1380   27.4790   52.2760 C.ar    0  <0>0       -0.0042
     20  C6        -1.0140   28.5050   53.1910 C.ar    0  <0>0        0.0017
@<TRIPOS>BOND
     1    18    17    1
     2    19    17   ar
     3    19    20   ar
     4    17    16   ar
     5    20    14   ar
     6    16    15   ar
     7    14    15   ar
     8    14     1    1
     9     5     1   ar
    10     5     4   ar
    11     1     2   ar
    12     9     7    1
    13    13    11    1
    14     8     7    1
    15     7    10    1
    16     7     6    1
    17     2     3   ar
    18     4     3   ar
    19     4     6    1
    20    10    11    1
    21    11    12    1
