@<TRIPOS>MOLECULE
ZINC04008680_replica-1.pdb
 26 27 0 0 0
SMALL
GASTEIGER

@<TRIPOS>ATOM
      1  C7         6.7840   36.4710   58.6140 C.2     0  <0>0        0.0847
      2  C8         7.3300   37.3710   57.7690 C.2     0  <0>0        0.0334
      3  N1         7.3480   37.1510   56.4200 N.am    0  <0>0       -0.2720
      4  C9         6.8400   36.0570   55.8400 C.2     0  <0>0        0.3047
      5  O3         6.9020   35.9500   54.6310 O.2     0  <0>0       -0.2525
      6  N2         6.2630   35.0690   56.5520 N.am    0  <0>0       -0.2826
      7  C10        6.1930   35.2100   58.0170 C.3     0  <0>0        0.1254
      8  C17        7.9290   38.6380   58.3210 C.3     0  <0>0        0.0472
      9  H13        7.7510   37.8260   55.8520 H       0  <0>0        0.1561
     10  H14        5.9010   34.2840   56.1120 H       0  <0>0        0.1515
     11  C6         6.7660   36.6960   60.0100 C.2     0  <0>0        0.3400
     12  O2         5.9510   37.4620   60.4920 O.2     0  <0>0       -0.2451
     13  O1         7.6510   36.0630   60.8090 O.3     0  <0>0       -0.4456
     14  C5         8.5280   36.8810   61.5850 C.3     0  <0>0        0.2088
     15  C4         9.9090   36.9160   60.9280 C.3     0  <0>0        0.0475
     16  C3        10.1810   35.5770   60.2410 C.3     0  <0>0        0.0038
     17  C2        10.8690   34.6300   61.2270 C.3     0  <0>0        0.0001
     18  C1        11.7640   35.4380   62.1700 C.3     0  <0>0        0.0000
     19  C11        4.7430   35.1390   58.4220 C.ar    0  <0>0        0.0006
     20  C16        4.3250   34.1870   59.3320 C.ar    0  <0>0        0.0066
     21  C15        2.9950   34.1180   59.7010 C.ar    0  <0>0        0.0617
     22  C14        2.0820   35.0110   59.1650 C.ar    0  <0>0        0.1462
     23 Br          2.4230   32.8100   60.9410 Br      0  <0>0       -0.0467
     24  C13        2.5020   35.9650   58.2520 C.ar    0  <0>0        0.0299
     25  F1         0.7820   34.9480   59.5270 F       0  <0>0       -0.2037
     26  C12        3.8310   36.0270   57.8820 C.ar    0  <0>0       -0.0000
@<TRIPOS>BOND
     1     5     4    2
     2     4     3   am
     3     4     6   am
     4     9     3    1
     5    10     6    1
     6     3     2    1
     7     6     7    1
     8     2     8    1
     9     2     1    2
    10    26    24   ar
    11    26    19   ar
    12     7    19    1
    13     7     1    1
    14    24    22   ar
    15    19    20   ar
    16     1    11    1
    17    22    25    1
    18    22    21   ar
    19    20    21   ar
    20    21    23    1
    21    11    12    2
    22    11    13    1
    23    16    15    1
    24    16    17    1
    25    13    14    1
    26    15    14    1
    27    17    18    1
