@<TRIPOS>MOLECULE
ZINC12526124_replica-1.pdb
 24 26 0 0 0
SMALL
GASTEIGER

@<TRIPOS>ATOM
      1  C7        -1.3560   29.3660   54.4030 C.2     0  <0>0        0.1233
      2  C8        -2.3680   29.2540   55.3140 C.3     0  <0>0        0.1247
      3  S1        -2.1380   30.7590   56.2520 S.3     0  <0>0       -0.0582
      4  C9        -0.7300   31.3800   55.3440 C.2     0  <0>0        0.2259
      5  N1        -0.5560   30.4280   54.4440 N.2     0  <0>0       -0.3830
      6  N2        -0.0090   32.5470   55.5360 N.pl3   0  <0>0       -0.1841
      7  H6         0.0200   33.2190   54.8370 H       0  <0>0        0.1767
      8  S2         0.8020   32.7950   56.9580 S.O2    0  <0>0        0.0758
      9  O1        -0.1160   33.4170   57.8470 O.2     0  <0>0       -0.1499
     10  O2         1.4570   31.5720   57.2710 O.2     0  <0>0       -0.1499
     11  C10        2.0700   33.9750   56.6350 C.ar    0  <0>0        0.1261
     12  C15        3.0230   33.7190   55.6670 C.ar    0  <0>0        0.0316
     13  C14        4.0150   34.6480   55.4120 C.ar    0  <0>0        0.0590
     14  C13        4.0590   35.8290   56.1310 C.ar    0  <0>0        0.0115
     15 Cl          5.2090   34.3300   54.1920 Cl      0  <0>0       -0.0822
     16  C12        3.1090   36.0820   57.1020 C.ar    0  <0>0        0.0022
     17  C11        2.1140   35.1560   57.3550 C.ar    0  <0>0        0.0202
     18  C5        -1.1480   28.3100   53.3830 C.ar    0  <0>0        0.0369
     19  C4        -0.3680   27.1920   53.6810 C.ar    0  <0>0        0.0598
     20  C3        -0.1780   26.2120   52.7260 C.ar    0  <0>0        0.0115
     21 Cl          0.3620   27.0330   55.2480 Cl      0  <0>0       -0.0822
     22  C2        -0.7590   26.3380   51.4770 C.ar    0  <0>0        0.0009
     23  C1        -1.5330   27.4450   51.1760 C.ar    0  <0>0        0.0001
     24  C6        -1.7300   28.4310   52.1220 C.ar    0  <0>0        0.0031
@<TRIPOS>BOND
     1    23    22   ar
     2    23    24   ar
     3    22    20   ar
     4    24    18   ar
     5    20    19   ar
     6    18    19   ar
     7    18     1    1
     8    19    21    1
     9    15    13    1
    10     1     5    2
    11     1     2    1
    12     5     4    2
    13     7     6    1
    14     2     3    1
    15     4     6    1
    16     4     3    1
    17    13    12   ar
    18    13    14   ar
    19     6     8    1
    20    12    11   ar
    21    14    16   ar
    22    11     8    1
    23    11    17   ar
    24     8    10    2
    25     8     9    2
    26    16    17   ar
