@<TRIPOS>MOLECULE
ZINC02932995_replica-1.pdb
 29 31 0 0 0
SMALL
GASTEIGER

@<TRIPOS>ATOM
      1  C7        -0.9840   29.7250   54.6420 C.1     0  <0>0        0.1692
      2  N2        -1.4860   29.5310   53.4370 N.2     0  <0>0       -0.3386
      3  C8        -1.3080   28.3600   52.8080 C.2     0  <0>0        0.1336
      4  C9        -1.8280   28.1190   51.5290 C.2     0  <0>0        0.0293
      5  C10       -1.6200   26.9100   50.9330 C.2     0  <0>0        0.0020
      6  C11       -0.8960   25.9100   51.5760 C.2     0  <0>0       -0.0036
      7  C12       -0.3760   26.1110   52.8210 C.2     0  <0>0       -0.0110
      8  C13       -0.5720   27.3410   53.4600 C.3     0  <0>0        0.1426
      9  C14       -0.0560   27.6060   54.7530 C.2     0  <0>0        0.1805
     10  N3        -0.2870   28.7950   55.2900 N.2     0  <0>0       -0.3236
     11  S1        -1.2460   31.2810   55.4260 S.3     0  <0>0       -0.0083
     12  C6         0.4570   31.6940   55.8820 C.3     0  <0>0        0.1590
     13  C5         0.4480   32.8130   56.8910 C.2     0  <0>0        0.2346
     14  N1         0.5540   34.0930   56.4790 N.am    0  <0>0       -0.3036
     15  H10        0.6360   34.2920   55.5330 H       0  <0>0        0.1495
     16  O1         0.3460   32.5640   58.0730 O.2     0  <0>0       -0.2741
     17  C4         0.5460   35.1810   57.4590 C.3     0  <0>0        0.0894
     18  C3         1.9820   35.5050   57.8740 C.3     0  <0>0        0.0212
     19  C2         2.7070   36.1870   56.7120 C.3     0  <0>0        0.0017
     20  C1         4.1350   35.6440   56.6130 C.3     0  <0>0        0.0001
     21  N4         0.6680   26.6510   55.4350 N.pl3   0  <0>0       -0.3067
     22  H17        1.4960   26.3120   55.0610 H       0  <0>0        0.1492
     23  C15        0.1850   26.1480   56.7240 C.3     0  <0>0        0.1159
     24  C16        0.1620   24.6410   56.6970 C.ar    0  <0>0       -0.0026
     25  C21       -0.3220   23.9380   57.7840 C.ar    0  <0>0       -0.0026
     26  C20       -0.3440   22.5550   57.7580 C.ar    0  <0>0       -0.0003
     27  C19        0.1180   21.8770   56.6460 C.ar    0  <0>0       -0.0000
     28  C18        0.6020   22.5810   55.5590 C.ar    0  <0>0       -0.0003
     29  C17        0.6190   23.9630   55.5830 C.ar    0  <0>0       -0.0026
@<TRIPOS>BOND
     1     5     4    2
     2     5     6    1
     3     4     3    1
     4     6     7    2
     5     3     2    2
     6     3     8    1
     7     7     8    1
     8     2     1    2
     9     8     9    1
    10     1    10    2
    11     1    11    1
    12     9    10    2
    13     9    21    1
    14    22    21    1
    15    11    12    1
    16    21    23    1
    17    15    14    1
    18    28    29   ar
    19    28    27   ar
    20    29    24   ar
    21    12    13    1
    22    14    13   am
    23    14    17    1
    24    20    19    1
    25    27    26   ar
    26    24    23    1
    27    24    25   ar
    28    19    18    1
    29    13    16    2
    30    17    18    1
    31    26    25   ar
