@<TRIPOS>MOLECULE
ZINC36335361_replica-1.pdb
 22 23 0 0 0
SMALL
GASTEIGER

@<TRIPOS>ATOM
      1  C1         8.4570   38.4300   57.0910 C.3     0  <0>0        0.0261
      2  C2         7.7210   37.4360   57.9930 C.3     0  <0>0        0.0919
      3  C3         8.7160   36.7240   58.8730 C.ar    0  <0>0       -0.0046
      4  C8         9.1570   37.3190   60.0400 C.ar    0  <0>0       -0.0030
      5  C7        10.0650   36.6640   60.8500 C.ar    0  <0>0       -0.0045
      6  C6        10.5410   35.4170   60.4870 C.ar    0  <0>0       -0.0225
      7  C5        10.1040   34.8250   59.3170 C.ar    0  <0>0       -0.0045
      8  C4         9.1920   35.4780   58.5100 C.ar    0  <0>0       -0.0030
      9  C9        11.5340   34.7040   61.3680 C.3     0  <0>0        0.0224
     10  C10       11.8930   35.5960   62.5580 C.3     0  <0>0        0.0047
     11  C11       10.9220   33.3980   61.8760 C.3     0  <0>0        0.0047
     12  N1         7.0120   36.4580   57.1660 N.pl3   0  <0>0       -0.3306
     13  H16        7.4880   35.9720   56.4730 H       0  <0>0        0.1471
     14  C12        5.6480   36.2220   57.3740 C.ar    0  <0>0        0.0449
     15  C17        5.1620   36.0500   58.6630 C.ar    0  <0>0        0.0156
     16  C16        3.8150   35.8230   58.8680 C.ar    0  <0>0        0.0158
     17  C15        2.9490   35.7560   57.7850 C.ar    0  <0>0        0.0480
     18  C14        3.4360   35.9230   56.4960 C.ar    0  <0>0        0.0158
     19  C13        4.7820   36.1550   56.2900 C.ar    0  <0>0        0.0156
     20  N2         1.5850   35.5210   57.9940 N.pl3   0  <0>0       -0.3041
     21  C18        1.0990   35.1620   59.3300 C.3     0  <0>0        0.1122
     22  C19        0.6430   35.6350   56.8790 C.3     0  <0>0        0.1122
@<TRIPOS>BOND
     1    19    18   ar
     2    19    14   ar
     3    13    12    1
     4    18    17   ar
     5    22    20    1
     6     1     2    1
     7    12    14    1
     8    12     2    1
     9    14    15   ar
    10    17    20    1
    11    17    16   ar
    12     2     3    1
    13    20    21    1
    14     8     3   ar
    15     8     7   ar
    16    15    16   ar
    17     3     4   ar
    18     7     6   ar
    19     4     5   ar
    20     6     5   ar
    21     6     9    1
    22     9    11    1
    23     9    10    1
