@<TRIPOS>MOLECULE
ZINC36589290_replica-1.pdb
 25 24 0 0 0
SMALL
GASTEIGER

@<TRIPOS>ATOM
      1  C6         5.2440   33.6970   58.1390 C.3     0  <0>0        0.1518
      2  C5         5.5980   33.7670   59.6260 C.3     0  <0>0        0.0292
      3  C4         6.9950   33.1850   59.8470 C.3     0  <0>0        0.0022
      4  C3         7.9260   34.2770   60.3740 C.3     0  <0>0        0.0001
      5  C2         9.3770   33.9060   60.0620 C.3     0  <0>0        0.0000
      6  C1        10.1710   35.1750   59.7460 C.3     0  <0>0        0.0000
      7  C7         3.7640   33.9140   57.9630 C.2     0  <0>0        0.2405
      8  O1         3.2820   33.9420   56.8510 O.2     0  <0>0       -0.2733
      9  N1         2.9740   34.0780   59.0440 N.am    0  <0>0       -0.3061
     10  H13        3.3590   34.0560   59.9330 H       0  <0>0        0.1494
     11  C8         1.5340   34.2890   58.8730 C.3     0  <0>0        0.0569
     12  C9         1.2980   35.5740   58.0770 C.3     0  <0>0        0.0196
     13  C10        0.9320   33.1040   58.1170 C.3     0  <0>0        0.0196
     14  C11        0.8700   34.4100   60.2460 C.3     0  <0>0        0.0196
     15  N2         5.9790   34.7370   57.4140 N.am    0  <0>0       -0.2727
     16  C12        5.8930   36.0230   57.8100 C.2     0  <0>0        0.2487
     17  O2         5.1240   36.3360   58.6980 O.2     0  <0>0       -0.2699
     18  C13        6.7280   37.0480   57.1660 C.2     0  <0>0        0.0495
     19  C14        7.5390   37.8040   57.9020 C.2     0  <0>0       -0.0391
     20  C15        7.4770   37.7320   59.4060 C.3     0  <0>0        0.0265
     21  C16        8.5190   38.7320   57.2320 C.3     0  <0>0        0.0265
     22  C17        6.8080   34.3800   56.2610 C.3     0  <0>0        0.0611
     23  C18        8.2800   34.6430   56.5900 C.3     0  <0>0        0.0199
     24  C19        6.6150   32.8980   55.9340 C.3     0  <0>0        0.0199
     25  C20        6.3960   35.2260   55.0550 C.3     0  <0>0        0.0199
@<TRIPOS>BOND
     1    25    22    1
     2    24    22    1
     3    22    23    1
     4    22    15    1
     5     8     7    2
     6    18    16    1
     7    18    19    2
     8    21    19    1
     9    15    16   am
    10    15     1    1
    11    16    17    2
    12    19    20    1
    13     7     1    1
    14     7     9   am
    15    12    11    1
    16    13    11    1
    17     1     2    1
    18    11     9    1
    19    11    14    1
    20     9    10    1
    21     2     3    1
    22     6     5    1
    23     3     4    1
    24     5     4    1
