@<TRIPOS>MOLECULE
ZINC38118083_replica-1.pdb
 22 23 0 0 0
SMALL
GASTEIGER

@<TRIPOS>ATOM
      1  C10        7.8210   37.4690   58.4140 C.3     0  <0>0        0.1216
      2  C7         8.8310   36.7040   59.2300 C.ar    0  <0>0       -0.0022
      3  C6         9.2920   37.2240   60.4250 C.ar    0  <0>0       -0.0029
      4  C5        10.2170   36.5220   61.1740 C.ar    0  <0>0       -0.0045
      5  C4        10.6800   35.2980   60.7290 C.ar    0  <0>0       -0.0225
      6  C9        10.2230   34.7790   59.5320 C.ar    0  <0>0       -0.0045
      7  C8         9.2940   35.4800   58.7850 C.ar    0  <0>0       -0.0029
      8  C2        11.6880   34.5320   61.5460 C.3     0  <0>0        0.0224
      9  C1        12.1130   35.3730   62.7520 C.3     0  <0>0        0.0047
     10  C3        11.0620   33.2220   62.0320 C.3     0  <0>0        0.0047
     11  C11        8.5010   38.6750   57.7640 C.3     0  <0>0        0.1610
     12  O1         8.8260   38.3650   56.4070 O.3     0  <0>0       -0.3799
     13  H15        9.6700   37.9060   56.2990 H       0  <0>0        0.2105
     14  N1         7.2730   36.5960   57.3730 N.pl3   0  <0>0       -0.3287
     15  H16        7.8640   36.1850   56.7230 H       0  <0>0        0.1471
     16  C12        5.8970   36.3570   57.3150 C.ar    0  <0>0        0.0449
     17  C17        5.1900   36.0830   58.4780 C.ar    0  <0>0        0.0148
     18  C16        3.8290   35.8530   58.4190 C.ar    0  <0>0        0.0080
     19  C15        3.1730   35.8830   57.2010 C.ar    0  <0>0        0.0346
     20  C14        3.8770   36.1510   56.0400 C.ar    0  <0>0        0.0080
     21 Br          1.3120   35.5620   57.1240 Br      0  <0>0       -0.0490
     22  C13        5.2360   36.3870   56.0940 C.ar    0  <0>0        0.0148
@<TRIPOS>BOND
     1    20    22   ar
     2    20    19   ar
     3    22    16   ar
     4    13    12    1
     5    12    11    1
     6    15    14    1
     7    21    19    1
     8    19    18   ar
     9    16    14    1
    10    16    17   ar
    11    14     1    1
    12    11     1    1
    13     1     2    1
    14    18    17   ar
    15     7     2   ar
    16     7     6   ar
    17     2     3   ar
    18     6     5   ar
    19     3     4   ar
    20     5     4   ar
    21     5     8    1
    22     8    10    1
    23     8     9    1
