@<TRIPOS>MOLECULE
ZINC50851993_replica-1.pdb
 19 20 0 0 0
SMALL
GASTEIGER

@<TRIPOS>ATOM
      1  C4         6.7030   37.1100   59.7310 C.2     0  <0>0        0.1762
      2  C5         7.2170   37.2080   58.4350 C.3     0  <0>0        0.1307
      3  C6         6.4820   36.6810   57.3910 C.2     0  <0>0        0.1071
      4  N2         5.3180   36.1020   57.6450 N.2     0  <0>0       -0.3482
      5  C7         4.8520   36.0220   58.8840 C.1     0  <0>0        0.1387
      6  N3         5.5310   36.5110   59.9150 N.2     0  <0>0       -0.3290
      7  N1         7.4060   37.6240   60.8070 N.pl3   0  <0>0       -0.3108
      8  H8         7.2470   38.5350   61.1000 H       0  <0>0        0.1489
      9  C3         8.3920   36.7930   61.5030 C.3     0  <0>0        0.0888
     10  C2         9.7720   37.0070   60.8780 C.3     0  <0>0        0.0212
     11  C1        10.2390   35.7070   60.2190 C.3     0  <0>0        0.0018
     12  C8         3.5470   35.3670   59.1250 C.ar    0  <0>0        0.0926
     13  C11        3.4640   34.2230   59.8630 C.ar    0  <0>0        0.0475
     14  S1         1.8230   33.8650   59.8630 S.2     0  <0>0       -0.0852
     15  C10        1.2310   35.2240   58.8750 C.ar    0  <0>0        0.0362
     16  C9         2.3690   35.8990   58.5990 C.ar    0  <0>0        0.0195
     17  C12        6.9990   36.7650   55.9770 C.3     0  <0>0        0.0496
     18  C13        7.2010   38.2330   55.5940 C.3     0  <0>0        0.0071
     19  C14        8.3320   36.0230   55.8770 C.3     0  <0>0        0.0071
@<TRIPOS>BOND
     1    18    17    1
     2    19    17    1
     3    17     3    1
     4     3     4    2
     5     3     2    1
     6     4     5    2
     7     2     1    1
     8    16    15   ar
     9    16    12   ar
    10    15    14   ar
    11     5    12    1
    12     5     6    2
    13    12    13   ar
    14     1     6    2
    15     1     7    1
    16    13    14   ar
    17    11    10    1
    18     7     8    1
    19     7     9    1
    20    10     9    1
