@<TRIPOS>MOLECULE
ZINC37293508_replica-1.pdb
 22 24 0 0 0
SMALL
GASTEIGER

@<TRIPOS>ATOM
      1  C8         9.2530   36.5340   59.7190 C.ar    0  <0>0        0.0449
      2  C9         9.8820   35.3250   59.4550 C.ar    0  <0>0        0.0174
      3  C10       10.7680   34.7930   60.3720 C.ar    0  <0>0        0.0382
      4  C11       11.0290   35.4670   61.5560 C.ar    0  <0>0        0.1385
      5  C12       10.4000   36.6740   61.8200 C.ar    0  <0>0        0.0382
      6  C13        9.5190   37.2100   60.9030 C.ar    0  <0>0        0.0174
      7  N1         8.3550   37.0740   58.7910 N.pl3   0  <0>0       -0.3320
      8  H14        7.9870   37.9590   58.9320 H       0  <0>0        0.1468
      9  C7         7.9740   36.3010   57.6060 C.3     0  <0>0        0.0965
     10  C2         6.4870   35.9510   57.6820 C.3     0  <0>0        0.1330
     11  C3         6.0880   35.1440   56.4450 C.3     0  <0>0        0.0313
     12  C4         6.3540   35.9740   55.1870 C.3     0  <0>0        0.0026
     13  C5         7.8420   36.3240   55.1110 C.3     0  <0>0        0.0019
     14  C6         8.2400   37.1310   56.3490 C.3     0  <0>0        0.0220
     15  O1         6.2390   35.1770   58.8560 O.3     0  <0>0       -0.3519
     16  C1         6.5300   33.7860   58.7090 C.3     0  <0>0        0.1741
     17  O2        11.9010   34.9420   62.4580 O.3     0  <0>0       -0.4792
     18  C14       12.5570   33.7260   62.0960 C.3     0  <0>0        0.1659
     19  C18       14.0670   33.8410   62.3610 C.3     0  <0>0        0.0435
     20  C17       14.4190   32.7480   63.3910 C.3     0  <0>0        0.0038
     21  C16       13.2980   31.6930   63.2240 C.3     0  <0>0        0.0038
     22  C15       12.0420   32.5650   62.9730 C.3     0  <0>0        0.0435
@<TRIPOS>BOND
     1    13    12    1
     2    13    14    1
     3    12    11    1
     4    14     9    1
     5    11    10    1
     6     9    10    1
     7     9     7    1
     8    10    15    1
     9    16    15    1
    10     7     8    1
    11     7     1    1
    12     2     1   ar
    13     2     3   ar
    14     1     6   ar
    15     3     4   ar
    16     6     5   ar
    17     4     5   ar
    18     4    17    1
    19    18    19    1
    20    18    17    1
    21    18    22    1
    22    19    20    1
    23    22    21    1
    24    21    20    1
