@<TRIPOS>MOLECULE
ZINC32949088_replica-1.pdb
 29 31 0 0 0
SMALL
GASTEIGER

@<TRIPOS>ATOM
      1  C7        -0.9230   30.8200   55.3860 C.3     0  <0>0        0.0817
      2  N2        -0.4050   32.1850   55.5170 N.am    0  <0>0       -0.2899
      3  C6         0.7960   32.3970   56.0900 C.2     0  <0>0        0.3007
      4  N1         1.2730   33.6520   56.2110 N.am    0  <0>0       -0.2890
      5  O1         1.4500   31.4570   56.4980 O.2     0  <0>0       -0.2528
      6  H13        0.6810   34.5020   55.8410 H       0  <0>0        0.1510
      7  H14       -0.9960   33.0350   55.1480 H       0  <0>0        0.1509
      8  C5         2.5780   33.8830   56.8340 C.3     0  <0>0        0.0909
      9  C4         3.6840   33.6490   55.8020 C.3     0  <0>0        0.0213
     10  C2         3.8380   34.8960   54.9290 C.3     0  <0>0        0.0017
     11  C1         4.0300   36.1230   55.8210 C.3     0  <0>0        0.0001
     12  C3         5.0570   34.7320   54.0170 C.3     0  <0>0        0.0001
     13  C8        -2.2100   30.6830   56.2020 C.3     0  <0>0        0.0463
     14  C9        -2.1130   29.4730   57.0940 C.ar    0  <0>0       -0.0205
     15  C14       -1.1610   29.4250   58.0960 C.ar    0  <0>0       -0.0042
     16  C13       -1.0730   28.3150   58.9130 C.ar    0  <0>0       -0.0003
     17  C12       -1.9360   27.2510   58.7310 C.ar    0  <0>0       -0.0000
     18  C11       -2.8870   27.2980   57.7290 C.ar    0  <0>0       -0.0003
     19  C10       -2.9800   28.4100   56.9140 C.ar    0  <0>0       -0.0042
     20  C15       -1.2180   30.5260   53.9130 C.3     0  <0>0        0.0464
     21  C16       -0.8710   29.0910   53.6090 C.ar    0  <0>0       -0.0173
     22  C21       -1.3590   28.4920   52.4620 C.ar    0  <0>0        0.0360
     23  C20       -1.0380   27.1750   52.1780 C.ar    0  <0>0        0.1761
     24  C19       -0.2320   26.4540   53.0550 C.ar    0  <0>0        0.1764
     25  O2        -1.3780   26.3660   51.1330 O.3     0  <0>0       -0.4346
     26  C18        0.2490   27.0590   54.2060 C.ar    0  <0>0        0.0399
     27  O3        -0.0680   25.1920   52.5600 O.3     0  <0>0       -0.4346
     28  C17       -0.0710   28.3750   54.4810 C.ar    0  <0>0       -0.0009
     29  C22       -1.1110   25.0240   51.5830 C.3     0  <0>0        0.4294
@<TRIPOS>BOND
     1    25    29    1
     2    25    23    1
     3    29    27    1
     4    23    22   ar
     5    23    24   ar
     6    22    21   ar
     7    27    24    1
     8    24    26   ar
     9    21    20    1
    10    21    28   ar
    11    20     1    1
    12    12    10    1
    13    26    28   ar
    14    10     9    1
    15    10    11    1
    16     7     2    1
    17     1     2    1
    18     1    13    1
    19     2     3   am
    20     9     8    1
    21     6     4    1
    22     3     4   am
    23     3     5    2
    24    13    14    1
    25     4     8    1
    26    19    14   ar
    27    19    18   ar
    28    14    15   ar
    29    18    17   ar
    30    15    16   ar
    31    17    16   ar
