@<TRIPOS>MOLECULE
ZINC45282274_replica-1.pdb
 30 32 0 0 0
SMALL
GASTEIGER

@<TRIPOS>ATOM
      1  S1         2.1000   32.2360   56.4330 S.3     0  <0>0       -0.0564
      2  C10        2.9330   33.7870   56.4930 C.2     0  <0>0        0.2383
      3  N1         3.9660   34.0810   57.2530 N.2     0  <0>0       -0.3261
      4  C9         4.3370   35.3510   57.0360 C.1     0  <0>0        0.1048
      5  N3         3.5380   35.8810   56.1400 N.2     0  <0>0       -0.1129
      6  N2         2.6210   34.8840   55.7680 N.pl3   0  <0>0       -0.1952
      7  H1         1.9040   34.9680   55.1200 H       0  <0>0        0.1783
      8  C6         5.4640   36.0450   57.7070 C.ar    0  <0>0        0.0754
      9  C5         5.3250   36.4980   59.0180 C.ar    0  <0>0        0.0107
     10  C4         6.3770   37.1430   59.6380 C.ar    0  <0>0       -0.0036
     11  C3         7.5660   37.3410   58.9600 C.ar    0  <0>0       -0.0221
     12  C8         7.7080   36.8980   57.6570 C.ar    0  <0>0       -0.0036
     13  C7         6.6650   36.2460   57.0300 C.ar    0  <0>0        0.0107
     14  C2         8.7100   38.0460   59.6410 C.3     0  <0>0        0.0264
     15  C1         9.5730   37.0210   60.3810 C.3     0  <0>0        0.0050
     16  C11        0.3420   32.6820   56.4210 C.3     0  <0>0        0.1317
     17  C12       -0.1070   33.0280   57.8410 C.3     0  <0>0        0.0219
     18  C13       -0.4680   31.5180   55.9080 C.2     0  <0>0        0.2326
     19  O1        -1.5080   31.2160   56.4540 O.2     0  <0>0       -0.2742
     20  N4        -0.0370   30.8130   54.8440 N.am    0  <0>0       -0.3033
     21  H16        0.7960   31.0540   54.4080 H       0  <0>0        0.1495
     22  C14       -0.8240   29.6830   54.3460 C.3     0  <0>0        0.0937
     23  C15        0.0180   28.4060   54.4110 C.3     0  <0>0        0.0419
     24  C16       -0.1890   27.7280   55.7680 C.3     0  <0>0        0.0064
     25  C17       -0.4050   27.4680   53.3100 C.ar    0  <0>0       -0.0208
     26  C22       -0.0050   26.1460   53.3370 C.ar    0  <0>0       -0.0042
     27  C21       -0.3970   25.2850   52.3300 C.ar    0  <0>0       -0.0003
     28  C20       -1.1820   25.7480   51.2910 C.ar    0  <0>0       -0.0000
     29  C19       -1.5770   27.0710   51.2600 C.ar    0  <0>0       -0.0003
     30  C18       -1.1900   27.9320   52.2710 C.ar    0  <0>0       -0.0042
@<TRIPOS>BOND
     1    29    28   ar
     2    29    30   ar
     3    28    27   ar
     4    30    25   ar
     5    27    26   ar
     6    25    26   ar
     7    25    23    1
     8    22    23    1
     9    22    20    1
    10    21    20    1
    11    23    24    1
    12    20    18   am
    13     7     6    1
    14     6     5    1
    15     6     2    1
    16    18    16    1
    17    18    19    2
    18     5     4    2
    19    16     1    1
    20    16    17    1
    21     1     2    1
    22     2     3    2
    23    13    12   ar
    24    13     8   ar
    25     4     3    2
    26     4     8    1
    27    12    11   ar
    28     8     9   ar
    29    11    10   ar
    30    11    14    1
    31     9    10   ar
    32    14    15    1
