@<TRIPOS>MOLECULE
ZINC05369978_replica-1.pdb
 28 31 0 0 0
SMALL
GASTEIGER

@<TRIPOS>ATOM
      1  C1         3.1870   32.2790   56.9080 C.3     0  <0>0        0.0037
      2  C2         3.7810   33.5680   56.3360 C.3     0  <0>0        0.0402
      3  C3         5.3280   33.5470   56.4660 C.3     0  <0>0        0.0038
      4  C4         5.5730   34.3080   57.7730 C.3     0  <0>0        0.0062
      5  C5         6.9500   34.9260   57.9300 C.3     0  <0>0        0.0335
      6  C6         8.0130   33.8260   57.9680 C.3     0  <0>0        0.0071
      7  C7         9.4050   34.4590   58.0600 C.3     0  <0>0        0.0226
      8  C8         9.4270   35.3780   59.2660 C.2     0  <0>0       -0.0354
      9  C9        10.3980   35.2400   60.1580 C.2     0  <0>0        0.0339
     10  C10       10.4330   36.0850   61.3620 C.2     0  <0>0        0.1948
     11  O1        11.3410   35.9830   62.1670 O.2     0  <0>0       -0.2866
     12  C11        9.3490   37.0600   61.5690 C.2     0  <0>0        0.0378
     13  C12        8.3970   37.1870   60.6600 C.2     0  <0>0       -0.0171
     14  C13        8.3370   36.3990   59.3960 C.3     0  <0>0        0.0638
     15  C14        6.9750   35.7130   59.2500 C.3     0  <0>0        0.1644
     16  C15        5.8550   36.7500   59.3060 C.3     0  <0>0        0.1409
     17  C16        4.4750   36.1390   59.0150 C.3     0  <0>0        0.0355
     18  C17        4.5570   35.4750   57.6530 C.3     0  <0>0        0.0394
     19  C18        3.2900   34.7880   57.1550 C.3     0  <0>0        0.1686
     20  C21        5.0450   36.4820   56.6110 C.3     0  <0>0        0.0037
     21  F1         6.7900   34.8280   60.3170 F       0  <0>0       -0.2369
     22  C22        8.4720   37.3780   58.2270 C.3     0  <0>0        0.0112
     23  O2         2.4820   34.3480   58.2780 O.3     0  <0>0       -0.4523
     24  C19        1.2470   34.8660   58.3790 C.2     0  <0>0        0.3174
     25  O3         0.6450   34.7930   59.4240 O.2     0  <0>0       -0.2501
     26  C20        0.6120   35.5360   57.1880 C.3     0  <0>0        0.1212
     27  O4         5.8360   37.3460   60.6050 O.3     0  <0>0       -0.3817
     28  H26        5.7060   38.3040   60.5950 H       0  <0>0        0.2104
@<TRIPOS>BOND
     1     2     3    1
     2     2     1    1
     3     2    19    1
     4     3     4    1
     5    20    18    1
     6    19    18    1
     7    19    23    1
     8    26    24    1
     9    18     4    1
    10    18    17    1
    11     4     5    1
    12     5     6    1
    13     5    15    1
    14     6     7    1
    15     7     8    1
    16    22    14    1
    17    23    24    1
    18    24    25    2
    19    17    16    1
    20    15    16    1
    21    15    14    1
    22    15    21    1
    23     8    14    1
    24     8     9    2
    25    16    27    1
    26    14    13    1
    27     9    10    1
    28    28    27    1
    29    13    12    2
    30    10    12    1
    31    10    11    2
