@<TRIPOS>MOLECULE
ZINC61840680_replica-1.pdb
 18 18 0 0 0
SMALL
GASTEIGER

@<TRIPOS>ATOM
      1  C6        -1.3800   29.2020   55.2970 C.3     0  <0>0        0.0987
      2  C5        -0.7780   29.2650   56.7030 C.3     0  <0>0        0.0220
      3  C2        -1.5050   28.2740   57.6140 C.3     0  <0>0        0.0017
      4  C1        -2.9670   28.1590   57.1790 C.3     0  <0>0        0.0001
      5  C3        -1.4400   28.7690   59.0600 C.3     0  <0>0        0.0001
      6  C4        -0.8330   26.9030   57.5140 C.3     0  <0>0        0.0001
      7  C7        -1.8640   30.5940   54.8870 C.3     0  <0>0        0.1565
      8  O1        -2.1030   31.3800   56.0560 O.3     0  <0>0       -0.3802
      9  H15       -2.9020   31.1320   56.5400 H       0  <0>0        0.2105
     10  N1        -0.3610   28.7410   54.3510 N.pl3   0  <0>0       -0.3316
     11  H16        0.5660   29.0000   54.4710 H       0  <0>0        0.1469
     12  C8        -0.7250   27.9280   53.2740 C.ar    0  <0>0        0.0509
     13  C13       -0.3270   26.5960   53.2410 C.ar    0  <0>0        0.0476
     14  C12       -0.6930   25.7950   52.1760 C.ar    0  <0>0        0.0079
     15 Br          0.7060   25.8810   54.6530 Br      0  <0>0       -0.0477
     16  C11       -1.4440   26.3190   51.1400 C.ar    0  <0>0        0.0006
     17  C10       -1.8360   27.6450   51.1680 C.ar    0  <0>0        0.0013
     18  C9        -1.4790   28.4500   52.2320 C.ar    0  <0>0        0.0148
@<TRIPOS>BOND
     1    16    17   ar
     2    16    14   ar
     3    17    18   ar
     4    14    13   ar
     5    18    12   ar
     6    13    12   ar
     7    13    15    1
     8    12    10    1
     9    10    11    1
    10    10     1    1
    11     7     1    1
    12     7     8    1
    13     1     2    1
    14     8     9    1
    15     2     3    1
    16     4     3    1
    17     6     3    1
    18     3     5    1
