@<TRIPOS>MOLECULE
ZINC50732387_replica-1.pdb
 23 23 0 0 0
SMALL
GASTEIGER

@<TRIPOS>ATOM
      1  C7         9.5310   35.8620   60.4380 C.3     0  <0>0        0.0963
      2  C8         9.4360   37.3770   60.2350 C.3     0  <0>0        0.0126
      3  C9         8.3350   37.6890   59.2200 C.3     0  <0>0        0.0221
      4  C10        8.6860   37.0420   57.8760 C.3     0  <0>0        0.0934
      5  N2         8.9210   35.6080   58.0890 N.am    0  <0>0       -0.2783
      6  C11        9.8950   35.1950   59.1080 C.3     0  <0>0        0.1024
      7  C12        8.2550   34.6880   57.3630 C.2     0  <0>0        0.2369
      8  O2         8.4570   33.5070   57.5490 O.2     0  <0>0       -0.2739
      9  C6        10.5930   35.5570   61.4620 C.2     0  <0>0        0.2236
     10  N1        11.0830   34.3070   61.5710 N.am    0  <0>0       -0.3059
     11  H12       10.7540   33.6030   60.9900 H       0  <0>0        0.1494
     12  O1        11.0050   36.4370   62.1880 O.2     0  <0>0       -0.2751
     13  C4        12.1170   34.0100   62.5670 C.3     0  <0>0        0.0716
     14  C5        13.4970   34.1110   61.9150 C.3     0  <0>0        0.0213
     15  C3        11.9110   32.5950   63.1100 C.3     0  <0>0        0.0196
     16  C2        13.2550   31.8680   63.1650 C.3     0  <0>0        0.0017
     17  C1        13.0530   30.4640   63.7390 C.3     0  <0>0        0.0001
     18  C13        7.2580   35.1270   56.3210 C.3     0  <0>0        0.1504
     19  S1         5.6380   34.4030   56.6920 S.3     0  <0>0       -0.0316
     20  C14        5.1280   35.2270   58.2250 C.3     0  <0>0        0.4442
     21  F1         3.7550   35.0410   58.4210 F       0  <0>0       -0.1602
     22  F2         5.8320   34.6800   59.3040 F       0  <0>0       -0.1602
     23  F3         5.4060   36.5960   58.1330 F       0  <0>0       -0.1602
@<TRIPOS>BOND
     1    18    19    1
     2    18     7    1
     3    19    20    1
     4     7     8    2
     5     7     5   am
     6     4     5    1
     7     4     3    1
     8     5     6    1
     9    23    20    1
    10    20    21    1
    11    20    22    1
    12     6     1    1
    13     3     2    1
    14     2     1    1
    15     1     9    1
    16    11    10    1
    17     9    10   am
    18     9    12    2
    19    10    13    1
    20    14    13    1
    21    13    15    1
    22    15    16    1
    23    16    17    1
