@<TRIPOS>MOLECULE
ZINC37068005_replica-1.pdb
 17 18 0 0 0
SMALL
GASTEIGER

@<TRIPOS>ATOM
      1  C1        10.2110   35.0220   59.6580 C.ar    0  <0>0        0.0148
      2  C2         9.3060   35.3510   58.6690 C.ar    0  <0>0        0.0077
      3  C3         8.5630   36.5210   58.7670 C.ar    0  <0>0        0.0328
      4  C4         8.7310   37.3590   59.8610 C.ar    0  <0>0        0.0077
      5  C5         9.6350   37.0300   60.8510 C.ar    0  <0>0        0.0148
      6  C6        10.3780   35.8610   60.7530 C.ar    0  <0>0        0.0447
      7  N1        11.2950   35.5270   61.7560 N.pl3   0  <0>0       -0.3326
      8  H5        11.5820   36.1990   62.3940 H       0  <0>0        0.1468
      9  C7        11.8200   34.1620   61.8440 C.3     0  <0>0        0.0870
     10  C8        12.8990   34.0990   62.9260 C.3     0  <0>0        0.0195
     11  C10       13.5240   32.7350   63.2230 C.3     0  <0>0        0.0017
     12  C9        14.3310   33.8000   62.4790 C.3     0  <0>0        0.0017
     13  S1         7.4080   36.9400   57.5030 S.3     0  <0>0       -0.0144
     14  C11        7.8670   38.6310   57.0340 C.3     0  <0>0        0.4477
     15  F1         7.4390   39.5220   58.0240 F       0  <0>0       -0.1600
     16  F2         9.2570   38.7160   56.8990 F       0  <0>0       -0.1600
     17  F3         7.2600   38.9590   55.8180 F       0  <0>0       -0.1600
@<TRIPOS>BOND
     1    17    14    1
     2    16    14    1
     3    14    13    1
     4    14    15    1
     5    13     3    1
     6     2     3   ar
     7     2     1   ar
     8     3     4   ar
     9     1     6   ar
    10     4     5   ar
    11     6     5   ar
    12     6     7    1
    13     7     9    1
    14     7     8    1
    15     9    10    1
    16    12    10    1
    17    12    11    1
    18    10    11    1
