@<TRIPOS>MOLECULE
ZINC52255592_replica-1.pdb
 21 21 0 0 0
SMALL
GASTEIGER

@<TRIPOS>ATOM
      1  C5         8.7980   37.3060   59.5380 C.3     0  <0>0        0.1432
      2  C4         8.0810   36.3920   58.5430 C.3     0  <0>0        0.1300
      3  C3         6.7430   35.9880   59.1050 C.2     0  <0>0        0.3192
      4  O2         6.6570   35.0190   59.8230 O.2     0  <0>0       -0.2500
      5  O1         5.6470   36.7040   58.8100 O.3     0  <0>0       -0.4484
      6  C2         4.4100   35.9930   58.7280 C.3     0  <0>0        0.2086
      7  C1         4.0710   35.7270   57.2590 C.3     0  <0>0        0.0513
      8  C15        7.8760   37.1370   57.2230 C.3     0  <0>0        0.0133
      9  C16        8.7350   38.4030   57.2130 C.3     0  <0>0        0.0007
     10  C17        8.2880   36.2340   56.0580 C.3     0  <0>0        0.0007
     11  C6         9.7650   36.4940   60.3610 C.ar    0  <0>0        0.0048
     12  C11       10.1740   35.2490   59.9180 C.ar    0  <0>0       -0.0023
     13  C10       11.0640   34.5070   60.6710 C.ar    0  <0>0       -0.0045
     14  C9        11.5380   35.0040   61.8700 C.ar    0  <0>0       -0.0225
     15  C8        11.1260   36.2460   62.3160 C.ar    0  <0>0       -0.0045
     16  C7        10.2380   36.9900   61.5600 C.ar    0  <0>0       -0.0023
     17  C12       12.5060   34.1910   62.6920 C.3     0  <0>0        0.0224
     18  C13       11.9590   32.7740   62.8730 C.3     0  <0>0        0.0047
     19  C14       13.8570   34.1300   61.9760 C.3     0  <0>0        0.0047
     20  O3         7.8370   37.9180   60.4010 O.3     0  <0>0       -0.3795
     21  H19        8.1820   38.6700   60.9020 H       0  <0>0        0.2108
@<TRIPOS>BOND
     1    10     8    1
     2     9     8    1
     3     8     2    1
     4     7     6    1
     5     2     3    1
     6     2     1    1
     7     6     5    1
     8     5     3    1
     9     3     4    2
    10     1    11    1
    11     1    20    1
    12    12    11   ar
    13    12    13   ar
    14    11    16   ar
    15    20    21    1
    16    13    14   ar
    17    16    15   ar
    18    14    15   ar
    19    14    17    1
    20    19    17    1
    21    17    18    1
