@<TRIPOS>MOLECULE
ZINC35491467_replica-1.pdb
 20 20 0 0 0
SMALL
GASTEIGER

@<TRIPOS>ATOM
      1  C7        -0.6100   28.3330   54.6590 C.ar    0  <0>0       -0.0505
      2  C8         0.0390   27.1480   54.9510 C.ar    0  <0>0       -0.0320
      3  C9         0.1320   26.1560   53.9910 C.ar    0  <0>0       -0.0265
      4  C10       -0.4250   26.3500   52.7410 C.ar    0  <0>0       -0.0092
      5  C11       -1.0750   27.5360   52.4500 C.ar    0  <0>0       -0.0265
      6  C12       -1.1700   28.5250   53.4100 C.ar    0  <0>0       -0.0320
      7  C13       -1.8830   29.8150   53.0940 C.3     0  <0>0        0.0303
      8  C14       -1.6810   27.7480   51.0870 C.3     0  <0>0        0.0307
      9  C15        0.8400   24.8650   54.3080 C.3     0  <0>0        0.0307
     10  C16        0.6460   26.9370   56.3130 C.3     0  <0>0        0.0303
     11  C6        -0.7100   29.4140   55.7040 C.3     0  <0>0       -0.0392
     12  C3        -1.2360   28.8150   57.0090 C.3     0  <0>0       -0.0155
     13  C2        -0.9930   29.7980   58.1570 C.3     0  <0>0       -0.0017
     14  C1        -0.2360   29.0910   59.2830 C.3     0  <0>0       -0.0001
     15  C4        -2.7360   28.5440   56.8800 C.3     0  <0>0       -0.0017
     16  C5        -3.0940   27.2760   57.6570 C.3     0  <0>0       -0.0001
     17  N1         0.6190   29.9980   55.9340 N.4     0  <0>0        0.3861
     18  C17        0.6390   31.3810   55.4390 C.3     0  <0>0       -0.1051
     19  H26        0.8230   29.9910   56.9210 H       0  <0>0       -0.0841
     20  H30        1.3140   29.4550   55.4430 H       0  <0>0       -0.0841
@<TRIPOS>BOND
     1     8     5    1
     2     5     4   ar
     3     5     6   ar
     4     4     3   ar
     5     7     6    1
     6     6     1   ar
     7     3     9    1
     8     3     2   ar
     9     1     2   ar
    10     1    11    1
    11     2    10    1
    12    18    17    1
    13    20    17    1
    14    11    17    1
    15    11    12    1
    16    17    19    1
    17    15    12    1
    18    15    16    1
    19    12    13    1
    20    13    14    1
