@<TRIPOS>MOLECULE
ZINC40720332_replica-1.pdb
 28 30 0 0 0
SMALL
GASTEIGER

@<TRIPOS>ATOM
      1  C9        -0.6440   29.8030   58.1150 C.ar    0  <0>0       -0.0407
      2  C10       -1.2800   28.8030   58.8280 C.ar    0  <0>0       -0.0061
      3  C11       -2.2520   28.0300   58.2220 C.ar    0  <0>0        0.0027
      4  C12       -2.5920   28.2540   56.9020 C.ar    0  <0>0        0.0369
      5  C13       -1.9550   29.2560   56.1840 C.ar    0  <0>0        0.1387
      6  C14       -0.9840   30.0350   56.7970 C.ar    0  <0>0        0.0306
      7  C8         0.4150   30.6440   58.7790 C.3     0  <0>0       -0.0541
      8  N2         0.6250   31.8720   58.0010 N.4     0  <0>0        0.3874
      9  H15        0.1190   32.6320   58.4310 H       0  <0>0       -0.0840
     10  H27        0.2910   31.7350   57.0600 H       0  <0>0       -0.0840
     11  C7         2.0580   32.1940   57.9710 C.3     0  <0>0       -0.0649
     12  C6         2.3160   33.4500   58.8060 C.3     0  <0>0        0.0364
     13  N1         1.0730   34.2340   58.9290 N.3     0  <0>0       -0.2760
     14  C3         0.7360   34.3570   60.3630 C.3     0  <0>0        0.0720
     15  C4         1.4280   33.1470   61.0380 C.3     0  <0>0        0.0186
     16  C5         2.7500   33.0520   60.2320 C.3     0  <0>0        0.0152
     17  C2         1.2220   35.5570   58.3080 C.3     0  <0>0        0.0720
     18  C1         0.5530   35.5510   56.9310 C.3     0  <0>0        0.0188
     19  O1        -2.2870   29.4790   54.8850 O.3     0  <0>0       -0.4706
     20  C15       -1.2110   29.6120   53.9540 C.3     0  <0>0        0.2337
     21  C16       -1.1720   28.4020   53.0560 C.ar    0  <0>0        0.0423
     22  C21       -0.3420   27.3400   53.3630 C.ar    0  <0>0        0.0580
     23  C20       -0.3110   26.2260   52.5420 C.ar    0  <0>0        0.0112
     24 Cl          0.6560   27.4000   54.7820 Cl      0  <0>0       -0.0824
     25  C19       -1.1010   26.1820   51.4080 C.ar    0  <0>0        0.0017
     26  C18       -1.9270   27.2460   51.0980 C.ar    0  <0>0        0.0112
     27  C17       -1.9630   28.3560   51.9210 C.ar    0  <0>0        0.0580
     28 Cl         -3.0000   29.6930   51.5320 Cl      0  <0>0       -0.0824
@<TRIPOS>BOND
     1    26    25   ar
     2    26    27   ar
     3    25    23   ar
     4    28    27    1
     5    27    21   ar
     6    23    22   ar
     7    21    22   ar
     8    21    20    1
     9    22    24    1
    10    20    19    1
    11    19     5    1
    12     5     6   ar
    13     5     4   ar
    14     6     1   ar
    15     4     3   ar
    16    18    17    1
    17    10     8    1
    18    11     8    1
    19    11    12    1
    20     8     9    1
    21     8     7    1
    22     1     7    1
    23     1     2   ar
    24     3     2   ar
    25    17    13    1
    26    12    13    1
    27    12    16    1
    28    13    14    1
    29    16    15    1
    30    14    15    1
