@<TRIPOS>MOLECULE
ZINC40123993_replica-1.pdb
 29 31 0 0 0
SMALL
GASTEIGER

@<TRIPOS>ATOM
      1  C12        7.2110   36.8100   58.1050 C.2     0  <0>0        0.0821
      2  C13        7.6090   36.8170   56.8110 C.2     0  <0>0        0.2494
      3  C14        6.5580   36.1970   55.9780 C.2     0  <0>0        0.2853
      4  O3         6.6170   36.0550   54.7720 O.2     0  <0>0       -0.2666
      5  N1         5.5260   35.8130   56.7500 N.am    0  <0>0       -0.2923
      6  C15        5.8500   36.1560   58.1390 C.3     0  <0>0        0.1236
      7  O4         8.7810   37.3140   56.3540 O.2     0  <0>0       -0.2819
      8  H13        4.7130   35.3810   56.4430 H       0  <0>0        0.1504
      9  C11        7.9600   37.3300   59.2530 C.2     0  <0>0        0.1967
     10  O2         7.6980   38.4300   59.7030 O.2     0  <0>0       -0.2867
     11  C4         9.0330   36.5210   59.8630 C.ar    0  <0>0        0.0387
     12  C3         9.6890   36.9760   61.0110 C.ar    0  <0>0        0.0019
     13  C2        10.6890   36.2180   61.5770 C.ar    0  <0>0        0.0122
     14  C1        11.3970   36.7070   62.8140 C.3     0  <0>0        0.0342
     15  C7        11.0510   35.0030   61.0050 C.ar    0  <0>0        0.1350
     16  C6        10.3970   34.5440   59.8670 C.ar    0  <0>0        0.0367
     17  C5         9.3960   35.2960   59.2950 C.ar    0  <0>0        0.0063
     18  O1        12.0410   34.2610   61.5620 O.3     0  <0>0       -0.4710
     19  C8        11.6440   33.1650   62.3890 C.3     0  <0>0        0.2318
     20  C9        12.8660   32.5210   62.9910 C.2     0  <0>0        0.0207
     21  C10       14.0230   33.1320   62.9350 C.2     0  <0>0       -0.0011
     22  C16        5.8930   34.9110   58.9870 C.ar    0  <0>0       -0.0001
     23  C21        5.4170   34.9430   60.2850 C.ar    0  <0>0       -0.0019
     24  C20        5.4510   33.8040   61.0640 C.ar    0  <0>0        0.0059
     25  C19        5.9740   32.6260   60.5450 C.ar    0  <0>0        0.0252
     26  C18        6.4570   32.5980   59.2420 C.ar    0  <0>0        0.0059
     27  C17        6.4160   33.7410   58.4680 C.ar    0  <0>0       -0.0019
     28  S1         6.0240   31.1700   61.5360 S.3     0  <0>0       -0.1127
     29  C22        7.0140   30.0060   60.5570 C.3     0  <0>0        0.0742
@<TRIPOS>BOND
     1     4     3    2
     2     3     5   am
     3     3     2    1
     4     7     2    1
     5     8     5    1
     6     5     6    1
     7     2     1    2
     8     1     6    1
     9     1     9    1
    10     6    22    1
    11    27    22   ar
    12    27    26   ar
    13    22    23   ar
    14    26    25   ar
    15     9    10    2
    16     9    11    1
    17    17    11   ar
    18    17    16   ar
    19    11    12   ar
    20    16    15   ar
    21    23    24   ar
    22    25    24   ar
    23    25    28    1
    24    29    28    1
    25    15    18    1
    26    15    13   ar
    27    12    13   ar
    28    18    19    1
    29    13    14    1
    30    19    20    1
    31    21    20    2
