@<TRIPOS>MOLECULE
ZINC08296477_replica-1.pdb
 15 16 0 0 0
SMALL
GASTEIGER

@<TRIPOS>ATOM
      1  C7        -0.0750   28.4050   54.2400 C.3     0  <0>0        0.1474
      2  C5        -0.5020   27.4400   53.1640 C.ar    0  <0>0        0.0103
      3  C4        -0.1440   26.1060   53.2500 C.ar    0  <0>0        0.0554
      4  C3        -0.5400   25.2200   52.2640 C.ar    0  <0>0        0.0111
      5 Cl          0.7950   25.5450   54.5970 Cl      0  <0>0       -0.0825
      6  C2        -1.2830   25.6690   51.1890 C.ar    0  <0>0        0.0008
      7  C1        -1.6360   27.0020   51.1010 C.ar    0  <0>0       -0.0002
      8  C6        -1.2450   27.8880   52.0880 C.ar    0  <0>0       -0.0017
      9  N1        -1.0590   28.3910   55.3260 N.pl3   0  <0>0       -0.1648
     10  N3        -1.0200   27.5990   56.4860 N.2     0  <0>0       -0.1026
     11  C9        -2.0840   27.8990   57.1840 C.1     0  <0>0        0.1404
     12  N2        -2.7830   28.8270   56.5310 N.2     0  <0>0       -0.3192
     13 Br         -2.5560   27.1370   58.8490 Br      0  <0>0        0.0498
     14  C8        -2.1740   29.1370   55.4140 C.2     0  <0>0        0.2496
     15 Br         -2.7630   30.4070   54.1430 Br      0  <0>0        0.0063
@<TRIPOS>BOND
     1     7     6   ar
     2     7     8   ar
     3     6     4   ar
     4     8     2   ar
     5     4     3   ar
     6     2     3   ar
     7     2     1    1
     8     3     5    1
     9    15    14    1
    10     1     9    1
    11     9    14    1
    12     9    10    1
    13    14    12    2
    14    10    11    2
    15    12    11    2
    16    11    13    1
