@<TRIPOS>MOLECULE
ZINC23298639_replica-1.pdb
 29 31 0 0 0
SMALL
GASTEIGER

@<TRIPOS>ATOM
      1  C4        -0.8170   31.3340   55.4340 C.2     0  <0>0        0.2243
      2  O1        -1.7710   31.2840   56.1810 O.2     0  <0>0       -0.2750
      3  N1        -0.8180   30.6240   54.2890 N.am    0  <0>0       -0.3021
      4  H8         0.0480   30.6700   53.6130 H       0  <0>0        0.1497
      5  C3         0.3720   32.1910   55.7880 C.3     0  <0>0        0.1045
      6  C2         0.9070   31.7800   57.1610 C.3     0  <0>0        0.0810
      7  C1         2.4250   31.9680   57.1950 C.3     0  <0>0        0.0218
      8  N2         0.5830   30.3720   57.4090 N.am    0  <0>0       -0.3020
      9  C17        0.2200   29.9730   58.6440 C.2     0  <0>0        0.2458
     10  O2         0.1590   30.7790   59.5510 O.2     0  <0>0       -0.2701
     11  H19        0.6370   29.6420   56.5880 H       0  <0>0        0.1497
     12  C18       -0.1060   28.5530   58.8950 C.ar    0  <0>0        0.0534
     13  C23        0.9000   27.6570   59.2590 C.ar    0  <0>0        0.0045
     14  C22        0.5890   26.3320   59.4920 C.ar    0  <0>0        0.0001
     15  C21       -0.7180   25.8930   59.3650 C.ar    0  <0>0        0.0000
     16  C20       -1.7200   26.7760   59.0050 C.ar    0  <0>0        0.0001
     17  C19       -1.4220   28.1040   58.7740 C.ar    0  <0>0        0.0045
     18  C5        -1.9720   29.7910   53.9450 C.3     0  <0>0        0.0941
     19  C6        -2.9460   30.5990   53.0850 C.3     0  <0>0        0.0262
     20  C7        -1.5080   28.5810   53.1760 C.ar    0  <0>0       -0.0045
     21  C12       -0.7800   27.5690   53.8240 C.ar    0  <0>0       -0.0024
     22  C11       -0.3500   26.4390   53.0840 C.ar    0  <0>0       -0.0003
     23  C13       -0.4700   27.6540   55.1930 C.ar    0  <0>0       -0.0003
     24  C10       -0.6600   26.3540   51.7170 C.ar    0  <0>0       -0.0000
     25  C16        0.3730   25.4250   53.7340 C.ar    0  <0>0       -0.0000
     26  C9        -1.3670   27.3530   51.1220 C.ar    0  <0>0       -0.0003
     27  C8        -1.7890   28.4640   51.8500 C.ar    0  <0>0       -0.0027
     28  C15        0.6590   25.5440   55.0590 C.ar    0  <0>0       -0.0000
     29  C14        0.2360   26.6550   55.7870 C.ar    0  <0>0       -0.0000
@<TRIPOS>BOND
     1    26    24   ar
     2    26    27   ar
     3    24    22   ar
     4    27    20   ar
     5    22    25   ar
     6    22    21   ar
     7    19    18    1
     8    20    21   ar
     9    20    18    1
    10     4     3    1
    11    25    28   ar
    12    21    23   ar
    13    18     3    1
    14     3     1   am
    15    28    29   ar
    16    23    29   ar
    17     1     5    1
    18     1     2    2
    19     5     6    1
    20    11     8    1
    21     6     7    1
    22     6     8    1
    23     8     9   am
    24     9    12    1
    25     9    10    2
    26    17    12   ar
    27    17    16   ar
    28    12    13   ar
    29    16    15   ar
    30    13    14   ar
    31    15    14   ar
