@<TRIPOS>MOLECULE
ZINC52253906_replica-1.pdb
 20 20 0 0 0
SMALL
GASTEIGER

@<TRIPOS>ATOM
      1  C4        -0.8420   31.3410   55.4730 C.3     0  <0>0        0.1213
      2  C3        -0.5750   30.5580   54.1870 C.3     0  <0>0        0.0341
      3  C2        -1.7950   29.7000   53.8490 C.3     0  <0>0        0.0248
      4  C1        -2.7290   30.4820   52.9220 C.3     0  <0>0        0.0048
      5  C11       -1.3470   28.4360   53.1610 C.ar    0  <0>0       -0.0224
      6  C16       -0.5070   27.5540   53.8140 C.ar    0  <0>0       -0.0043
      7  C15       -0.0990   26.3930   53.1840 C.ar    0  <0>0       -0.0003
      8  C14       -0.5250   26.1180   51.8980 C.ar    0  <0>0       -0.0000
      9  C13       -1.3610   27.0030   51.2420 C.ar    0  <0>0       -0.0003
     10  C12       -1.7720   28.1620   51.8740 C.ar    0  <0>0       -0.0043
     11  C5         0.0250   30.7790   56.6020 C.3     0  <0>0        0.1258
     12  C6        -0.8590   30.0190   57.5930 C.3     0  <0>0        0.0130
     13  C7        -0.9660   28.5550   57.1610 C.3     0  <0>0        0.0006
     14  C8        -0.2410   30.0950   58.9910 C.3     0  <0>0        0.0006
     15  C9         0.7170   31.9120   57.3140 C.2     0  <0>0        0.3189
     16  O1         1.8970   31.8370   57.5670 O.2     0  <0>0       -0.2500
     17  O2         0.0250   33.0060   57.6680 O.3     0  <0>0       -0.4443
     18  C10        0.4880   33.7260   58.8130 C.3     0  <0>0        0.2556
     19  O3        -2.2210   31.2190   55.8260 O.3     0  <0>0       -0.3839
     20  H19       -2.8210   31.7070   55.2450 H       0  <0>0        0.2104
@<TRIPOS>BOND
     1     9    10   ar
     2     9     8   ar
     3    10     5   ar
     4     8     7   ar
     5     4     3    1
     6     5     6   ar
     7     5     3    1
     8     7     6   ar
     9     3     2    1
    10     2     1    1
    11    20    19    1
    12     1    19    1
    13     1    11    1
    14    11    15    1
    15    11    12    1
    16    13    12    1
    17    15    16    2
    18    15    17    1
    19    12    14    1
    20    17    18    1
