@<TRIPOS>MOLECULE
ZINC24218149_replica-1.pdb
 26 27 0 0 0
SMALL
GASTEIGER

@<TRIPOS>ATOM
      1  C9         0.0290   31.6000   55.4700 C.3     0  <0>0        0.1736
      2  C8        -0.1730   30.1160   55.6320 C.2     0  <0>0        0.2427
      3  N1         0.5340   29.2520   54.8760 N.am    0  <0>0       -0.2990
      4  H7         1.2590   29.6330   54.1410 H       0  <0>0        0.1498
      5  O1        -0.9720   29.6970   56.4430 O.2     0  <0>0       -0.2732
      6  C7         0.3380   27.8100   55.0330 C.3     0  <0>0        0.1186
      7  C5        -0.1910   27.2320   53.7460 C.ar    0  <0>0        0.0249
      8  C4         0.0140   25.8950   53.4520 C.ar    0  <0>0        0.1377
      9  C3        -0.4730   25.3640   52.2690 C.ar    0  <0>0        0.0294
     10  F4         0.6880   25.1070   54.3190 F       0  <0>0       -0.2044
     11  C2        -1.1620   26.1700   51.3830 C.ar    0  <0>0        0.0023
     12  C1        -1.3670   27.5060   51.6780 C.ar    0  <0>0       -0.0001
     13  C6        -0.8860   28.0350   52.8610 C.ar    0  <0>0       -0.0004
     14  N2         1.4640   31.8960   55.4340 N.pl3   0  <0>0       -0.3253
     15  H10        2.1220   31.3440   54.7460 H       0  <0>0        0.1473
     16  C10        1.9970   32.8790   56.2730 C.ar    0  <0>0        0.0450
     17  C15        1.3970   33.1510   57.4950 C.ar    0  <0>0        0.0190
     18  C14        1.9250   34.1240   58.3210 C.ar    0  <0>0        0.0832
     19  C13        3.0510   34.8270   57.9310 C.ar    0  <0>0        0.0616
     20  C12        3.6500   34.5590   56.7140 C.ar    0  <0>0        0.0126
     21 Cl          3.7120   36.0490   58.9730 Cl      0  <0>0       -0.0823
     22  C11        3.1300   33.5830   55.8860 C.ar    0  <0>0        0.0152
     23  C16        1.2740   34.4200   59.6480 C.3     0  <0>0        0.4194
     24  F1         1.0120   35.7920   59.7420 F       0  <0>0       -0.1658
     25  F2         0.0740   33.7080   59.7470 F       0  <0>0       -0.1658
     26  F3         2.1320   34.0370   60.6840 F       0  <0>0       -0.1658
@<TRIPOS>BOND
     1    11    12   ar
     2    11     9   ar
     3    12    13   ar
     4     9     8   ar
     5    13     7   ar
     6     8     7   ar
     7     8    10    1
     8     7     6    1
     9     4     3    1
    10    15    14    1
    11     3     6    1
    12     3     2   am
    13    14     1    1
    14    14    16    1
    15     1     2    1
    16     2     5    2
    17    22    16   ar
    18    22    20   ar
    19    16    17   ar
    20    20    19   ar
    21    17    18   ar
    22    19    18   ar
    23    19    21    1
    24    18    23    1
    25    23    24    1
    26    23    25    1
    27    23    26    1
