@<TRIPOS>MOLECULE
ZINC59835180_replica-1.pdb
 26 27 0 0 0
SMALL
GASTEIGER

@<TRIPOS>ATOM
      1  N1         0.2160   33.5440   57.6820 N.am    0  <0>0       -0.2863
      2  C8         0.4890   32.5290   56.8390 C.2     0  <0>0        0.3010
      3  O1         1.5380   31.9230   56.9370 O.2     0  <0>0       -0.2528
      4  N2        -0.4010   32.1860   55.8870 N.am    0  <0>0       -0.2886
      5  H10       -0.6210   34.0280   57.6050 H       0  <0>0        0.1512
      6  H11       -1.2390   32.6690   55.8090 H       0  <0>0        0.1510
      7  C9        -0.1050   31.0820   54.9700 C.3     0  <0>0        0.0956
      8  C10       -0.4430   29.7520   55.6470 C.3     0  <0>0        0.0476
      9  C11       -0.5060   28.6620   54.6090 C.ar    0  <0>0       -0.0205
     10  C16       -1.2280   28.8570   53.4460 C.ar    0  <0>0       -0.0043
     11  C15       -1.2840   27.8600   52.4900 C.ar    0  <0>0        0.0035
     12  C14       -0.6240   26.6640   52.7020 C.ar    0  <0>0        0.0714
     13  C13        0.0940   26.4660   53.8660 C.ar    0  <0>0        0.0035
     14  C12        0.1530   27.4660   54.8200 C.ar    0  <0>0       -0.0043
     15  C17       -0.6860   25.5750   51.6620 C.3     0  <0>0        0.4186
     16  F1        -0.4670   24.3350   52.2710 F       0  <0>0       -0.1659
     17  F2        -1.9480   25.5800   51.0560 F       0  <0>0       -0.1659
     18  F3         0.2970   25.7980   50.6920 F       0  <0>0       -0.1659
     19  C3         1.1840   33.9170   58.7160 C.3     0  <0>0        0.1015
     20  C2         1.3100   35.4410   58.7730 C.3     0  <0>0        0.0247
     21  C1         1.9170   35.9510   57.4640 C.3     0  <0>0        0.0021
     22  C4         0.7150   33.4020   60.0530 C.ar    0  <0>0        0.0251
     23  S1        -0.0740   34.2890   61.3860 S.2     0  <0>0       -0.0892
     24  C7        -0.2620   32.9250   62.5210 C.ar    0  <0>0        0.0352
     25  C6         0.2870   31.9010   61.8220 C.ar    0  <0>0        0.0072
     26  C5         0.7880   32.1460   60.5570 C.ar    0  <0>0        0.0043
@<TRIPOS>BOND
     1    18    15    1
     2    17    15    1
     3    15    16    1
     4    15    12    1
     5    11    12   ar
     6    11    10   ar
     7    12    13   ar
     8    10     9   ar
     9    13    14   ar
    10     9    14   ar
    11     9     8    1
    12     7     8    1
    13     7     4    1
    14     6     4    1
    15     4     2   am
    16     2     3    2
    17     2     1   am
    18    21    20    1
    19     5     1    1
    20     1    19    1
    21    19    20    1
    22    19    22    1
    23    22    26   ar
    24    22    23   ar
    25    26    25   ar
    26    23    24   ar
    27    25    24   ar
