@<TRIPOS>MOLECULE
ZINC00809035_replica-1.pdb
 22 24 0 0 0
SMALL
GASTEIGER

@<TRIPOS>ATOM
      1  C9        -1.2450   30.7570   54.3200 C.2     0  <0>0        0.0064
      2  C10       -1.1520   29.5340   53.6950 C.2     0  <0>0        0.0778
      3  C11       -0.2730   28.4150   54.0810 C.2     0  <0>0        0.1987
      4  O1         0.5060   28.4020   55.0140 O.2     0  <0>0       -0.2865
      5  C12       -0.5120   27.3050   53.1260 C.ar    0  <0>0        0.0421
      6  C13        0.0430   26.0330   53.0360 C.ar    0  <0>0        0.0033
      7  C14       -0.3570   25.1730   52.0260 C.ar    0  <0>0        0.0001
      8  C15       -1.3080   25.5710   51.1050 C.ar    0  <0>0        0.0001
      9  C16       -1.8700   26.8340   51.1810 C.ar    0  <0>0        0.0033
     10  C17       -1.4790   27.7100   52.1900 C.ar    0  <0>0        0.0421
     11  C18       -1.9060   29.0950   52.5070 C.2     0  <0>0        0.1987
     12  O2        -2.7290   29.7490   51.8980 O.2     0  <0>0       -0.2865
     13  C6        -0.5570   30.9830   55.5930 C.ar    0  <0>0        0.0008
     14  C5        -1.1530   30.5770   56.7970 C.ar    0  <0>0        0.0013
     15  C4        -0.5090   30.7950   57.9810 C.ar    0  <0>0        0.0150
     16  C3         0.7410   31.4090   57.9950 C.ar    0  <0>0        0.0542
     17  C8         1.3400   31.8110   56.8010 C.ar    0  <0>0        0.0479
     18  C7         0.7030   31.6010   55.6120 C.ar    0  <0>0        0.0079
     19 Br          3.0380   32.6430   56.8290 Br      0  <0>0       -0.0477
     20  N1         1.3940   31.6230   59.2020 N.pl3   0  <0>0       -0.3037
     21  C1         0.7540   32.7050   59.9630 C.3     0  <0>0        0.1122
     22  C2         1.4550   30.3870   59.9940 C.3     0  <0>0        0.1122
@<TRIPOS>BOND
     1     8     9   ar
     2     8     7   ar
     3     9    10   ar
     4    12    11    2
     5     7     6   ar
     6    10    11    1
     7    10     5   ar
     8    11     2    1
     9     6     5   ar
    10     5     3    1
    11     2     3    1
    12     2     1    2
    13     3     4    2
    14     1    13    1
    15    13    18   ar
    16    13    14   ar
    17    18    17   ar
    18    14    15   ar
    19    17    19    1
    20    17    16   ar
    21    15    16   ar
    22    16    20    1
    23    20    21    1
    24    20    22    1
