@<TRIPOS>MOLECULE
ZINC61640780_replica-1.pdb
 22 23 0 0 0
SMALL
GASTEIGER

@<TRIPOS>ATOM
      1  C4        -0.3250   31.8550   56.6130 C.2     0  <0>0        0.1609
      2  C5         0.0200   31.1770   57.7780 C.3     0  <0>0        0.1014
      3  C6        -0.5000   29.9150   58.0020 C.2     0  <0>0       -0.0036
      4  C7        -1.3510   29.3710   57.0480 C.2     0  <0>0        0.0801
      5  C8        -1.6500   30.1000   55.9130 C.2     0  <0>0        0.1315
      6  N2        -1.1430   31.3040   55.7290 N.2     0  <0>0       -0.3940
      7 Cl         -2.0300   27.7890   57.2790 Cl      0  <0>0       -0.0802
      8  C9        -2.5720   29.5140   54.8750 C.3     0  <0>0        0.1219
      9  S1        -1.8380   29.7170   53.2280 S.3     0  <0>0       -0.1030
     10  C10       -1.2780   28.1000   52.8090 C.ar    0  <0>0        0.0593
     11  C15       -1.6710   27.5140   51.6070 C.ar    0  <0>0        0.1392
     12  C14       -1.2220   26.2460   51.2800 C.ar    0  <0>0        0.0371
     13  C13       -0.3960   25.5580   52.1500 C.ar    0  <0>0        0.0031
     14  C12       -0.0100   26.1360   53.3460 C.ar    0  <0>0        0.0007
     15  C11       -0.4480   27.4040   53.6770 C.ar    0  <0>0        0.0092
     16  O1        -2.4890   28.1890   50.7550 O.3     0  <0>0       -0.5050
     17  H17       -3.2640   28.5800   51.1820 H       0  <0>0        0.2922
     18  N1         0.1910   33.1250   56.3760 N.pl3   0  <0>0       -0.3116
     19  H8        -0.1460   33.6540   55.6360 H       0  <0>0        0.1489
     20  C3         1.2400   33.6630   57.2440 C.3     0  <0>0        0.0888
     21  C2         0.6920   34.8570   58.0280 C.3     0  <0>0        0.0212
     22  C1         0.8110   34.5810   59.5280 C.3     0  <0>0        0.0018
@<TRIPOS>BOND
     1    16    17    1
     2    16    11    1
     3    12    11   ar
     4    12    13   ar
     5    11    10   ar
     6    13    14   ar
     7    10     9    1
     8    10    15   ar
     9     9     8    1
    10    14    15   ar
    11     8     5    1
    12    19    18    1
    13     6     5    2
    14     6     1    2
    15     5     4    1
    16    18     1    1
    17    18    20    1
    18     1     2    1
    19     4     7    1
    20     4     3    2
    21    20    21    1
    22     2     3    1
    23    21    22    1
