@<TRIPOS>MOLECULE
ZINC19738328_replica-1.pdb
 25 26 0 0 0
SMALL
GASTEIGER

@<TRIPOS>ATOM
      1  C1         7.1380   38.7340   59.1440 C.3     0  <0>0        0.0491
      2  C2         7.6690   37.5910   60.0110 C.3     0  <0>0        0.1854
      3  C3         6.5590   36.5600   60.2300 C.3     0  <0>0        0.1312
      4  N1         6.5210   35.6370   59.0930 N.pl3   0  <0>0       -0.3300
      5  H7         7.1810   34.9300   59.0200 H       0  <0>0        0.1469
      6  C4         5.5350   35.7750   58.1140 C.ar    0  <0>0        0.0407
      7  C9         5.8900   35.8580   56.7740 C.ar    0  <0>0       -0.0094
      8  C8         4.9110   35.9880   55.8080 C.ar    0  <0>0       -0.0031
      9  C7         3.5790   36.0480   56.1750 C.ar    0  <0>0       -0.0002
     10  C6         3.2220   35.9710   57.5080 C.ar    0  <0>0        0.0012
     11  C5         4.1950   35.8350   58.4790 C.ar    0  <0>0        0.0140
     12  C10        7.3420   35.7990   56.3740 C.3     0  <0>0        0.0236
     13  C11        7.8030   34.3400   56.3390 C.3     0  <0>0        0.0047
     14  C12        7.5150   36.4220   54.9870 C.3     0  <0>0        0.0047
     15  O1         8.7750   36.9680   59.3550 O.3     0  <0>0       -0.4774
     16  C13        9.6700   36.3140   60.1400 C.ar    0  <0>0        0.1384
     17  C18       10.1150   35.0500   59.7820 C.ar    0  <0>0        0.0366
     18  C17       11.0290   34.3890   60.5800 C.ar    0  <0>0       -0.0012
     19  C16       11.4900   34.9810   61.7410 C.ar    0  <0>0       -0.0226
     20  C15       11.0440   36.2380   62.1030 C.ar    0  <0>0       -0.0012
     21  C14       10.1350   36.9060   61.3060 C.ar    0  <0>0        0.0366
     22  C19       12.4830   34.2550   62.6130 C.3     0  <0>0        0.0189
     23  C20       13.8250   34.1570   61.8840 C.3     0  <0>0        0.0044
     24  C21       12.6690   35.0260   63.9220 C.3     0  <0>0        0.0044
     25  C22       11.9630   32.8490   62.9170 C.3     0  <0>0        0.0044
@<TRIPOS>BOND
     1    14    12    1
     2     8     9   ar
     3     8     7   ar
     4     9    10   ar
     5    13    12    1
     6    12     7    1
     7     7     6   ar
     8    10    11   ar
     9     6    11   ar
    10     6     4    1
    11     5     4    1
    12     4     3    1
    13     1     2    1
    14    15     2    1
    15    15    16    1
    16    17    16   ar
    17    17    18   ar
    18     2     3    1
    19    16    21   ar
    20    18    19   ar
    21    21    20   ar
    22    19    20   ar
    23    19    22    1
    24    23    22    1
    25    22    25    1
    26    22    24    1
