@<TRIPOS>MOLECULE
ZINC61839525_replica-1.pdb
 19 20 0 0 0
SMALL
GASTEIGER

@<TRIPOS>ATOM
      1  C7        10.5110   35.9250   60.9720 C.ar    0  <0>0        0.0446
      2  C8        10.4120   34.9680   59.9680 C.ar    0  <0>0        0.0144
      3  C9         9.6110   35.1990   58.8710 C.ar    0  <0>0        0.0033
      4  C10        8.8970   36.3950   58.7690 C.ar    0  <0>0        0.0239
      5  C11        8.9980   37.3530   59.7780 C.ar    0  <0>0        0.0033
      6  C12        9.7980   37.1150   60.8750 C.ar    0  <0>0        0.0144
      7  N1        11.3240   35.6900   62.0810 N.pl3   0  <0>0       -0.3326
      8  H14       11.4760   36.3950   62.7300 H       0  <0>0        0.1468
      9  C6        11.9470   34.3780   62.2660 C.3     0  <0>0        0.0870
     10  C5        12.7670   34.3800   63.5580 C.3     0  <0>0        0.0212
     11  C2        14.0590   33.5890   63.3450 C.3     0  <0>0        0.0016
     12  C1        14.6770   33.9770   62.0000 C.3     0  <0>0        0.0001
     13  C3        13.7470   32.0900   63.3490 C.3     0  <0>0        0.0001
     14  C4        15.0440   33.9080   64.4700 C.3     0  <0>0        0.0001
     15  C13        8.0360   36.6440   57.5930 C.ar    0  <0>0        0.1108
     16  S1         6.5490   35.7980   57.0770 S.2     0  <0>0       -0.0659
     17  C15        6.2400   36.7730   55.6110 C.ar    0  <0>0        0.0575
     18  C14        7.2920   37.6330   55.6560 C.ar    0  <0>0        0.1064
     19  N2         8.1610   37.5530   56.6360 N.ar    0  <0>0       -0.2368
@<TRIPOS>BOND
     1    17    18   ar
     2    17    16   ar
     3    18    19   ar
     4    19    15   ar
     5    16    15   ar
     6    15     4    1
     7     4     3   ar
     8     4     5   ar
     9     3     2   ar
    10     5     6   ar
    11     2     1   ar
    12     6     1   ar
    13     1     7    1
    14    12    11    1
    15     7     9    1
    16     7     8    1
    17     9    10    1
    18    11    13    1
    19    11    10    1
    20    11    14    1
