@<TRIPOS>MOLECULE
ZINC13668173_replica-1.pdb
 24 26 0 0 0
SMALL
GASTEIGER

@<TRIPOS>ATOM
      1  C1         5.1490   33.0260   61.5390 C.3     0  <0>0        0.0436
      2  C2         4.8170   33.5120   60.1270 C.3     0  <0>0        0.1350
      3  C3         5.8240   34.5890   59.7010 C.3     0  <0>0        0.0620
      4  C4         5.5330   34.9710   58.2480 C.3     0  <0>0        0.1040
      5  C5         4.0580   35.2280   58.0760 C.ar    0  <0>0        0.0277
      6  C6         3.6300   35.9340   56.9630 C.ar    0  <0>0        0.0001
      7  C7         2.2850   36.1840   56.7720 C.ar    0  <0>0       -0.0001
      8  C8         1.3600   35.7310   57.6940 C.ar    0  <0>0        0.0031
      9  C9         1.7800   35.0300   58.8040 C.ar    0  <0>0        0.0366
     10  C10        3.1340   34.7770   59.0020 C.ar    0  <0>0        0.1355
     11  O1         3.5100   34.0860   60.1090 O.3     0  <0>0       -0.4828
     12  C17        4.8770   32.3370   59.1480 C.3     0  <0>0        0.0436
     13  N1         6.2830   36.1820   57.9030 N.3     0  <0>0       -0.1764
     14  H11        5.8650   37.0530   57.9920 H       0  <0>0        0.1491
     15  S1         7.8440   36.0640   57.3620 S.O2    0  <0>0        0.0605
     16  O2         7.9690   34.7840   56.7600 O.2     0  <0>0       -0.1530
     17  O3         8.1210   37.2680   56.6600 O.2     0  <0>0       -0.1530
     18  C11        8.8870   36.0580   58.7820 C.ar    0  <0>0        0.1220
     19  C16        8.9110   37.1520   59.6270 C.ar    0  <0>0        0.0208
     20  C15        9.7290   37.1470   60.7420 C.ar    0  <0>0        0.0128
     21  C14       10.5250   36.0480   61.0100 C.ar    0  <0>0        0.0578
     22  C13       10.5000   34.9530   60.1640 C.ar    0  <0>0        0.0128
     23 Cl         11.5530   36.0400   62.4090 Cl      0  <0>0       -0.0822
     24  C12        9.6780   34.9570   59.0540 C.ar    0  <0>0        0.0208
@<TRIPOS>BOND
     1    17    15    2
     2    16    15    2
     3     7     6   ar
     4     7     8   ar
     5     6     5   ar
     6    15    13    1
     7    15    18    1
     8     8     9   ar
     9    13    14    1
    10    13     4    1
    11     5     4    1
    12     5    10   ar
    13     4     3    1
    14    18    24   ar
    15    18    19   ar
    16     9    10   ar
    17    10    11    1
    18    24    22   ar
    19    12     2    1
    20    19    20   ar
    21     3     2    1
    22    11     2    1
    23     2     1    1
    24    22    21   ar
    25    20    21   ar
    26    21    23    1
