@<TRIPOS>MOLECULE
ZINC49924741_replica-1.pdb
 25 26 0 0 0
SMALL
GASTEIGER

@<TRIPOS>ATOM
      1  C10       -0.8170   29.7810   55.5430 C.3     0  <0>0        0.1338
      2  C9        -0.2410   31.0340   54.8790 C.3     0  <0>0        0.0549
      3  C8         0.6230   31.7940   55.8870 C.3     0  <0>0        0.0899
      4  N1        -0.2370   32.4160   56.8970 N.pl3   0  <0>0       -0.3331
      5  H8        -1.1860   32.5210   56.7270 H       0  <0>0        0.1468
      6  C7         0.3110   32.8570   58.1040 C.ar    0  <0>0        0.0365
      7  C2         0.6510   34.1940   58.2670 C.ar    0  <0>0       -0.0090
      8  C1         0.4310   35.1710   57.1410 C.3     0  <0>0        0.0323
      9  C3         1.1870   34.6270   59.4640 C.ar    0  <0>0       -0.0031
     10  C4         1.3900   33.7310   60.4970 C.ar    0  <0>0       -0.0006
     11  C5         1.0560   32.3990   60.3370 C.ar    0  <0>0       -0.0031
     12  C6         0.5210   31.9590   59.1430 C.ar    0  <0>0       -0.0090
     13  C21        0.1570   30.5060   58.9680 C.3     0  <0>0        0.0323
     14  C11       -0.6910   28.6110   54.6020 C.ar    0  <0>0       -0.0042
     15  C16       -1.2470   28.6760   53.3380 C.ar    0  <0>0       -0.0278
     16  C15       -1.1280   27.6030   52.4760 C.ar    0  <0>0       -0.0263
     17  C17       -1.9790   29.9180   52.9010 C.3     0  <0>0        0.0304
     18  C14       -0.4610   26.4620   52.8790 C.ar    0  <0>0       -0.0092
     19  C18       -1.7290   27.6760   51.0950 C.3     0  <0>0        0.0307
     20  C13        0.0910   26.3940   54.1440 C.ar    0  <0>0       -0.0263
     21  C12       -0.0240   27.4680   55.0060 C.ar    0  <0>0       -0.0278
     22  C19        0.8190   25.1500   54.5840 C.3     0  <0>0        0.0307
     23  C20        0.5780   27.3960   56.3860 C.3     0  <0>0        0.0304
     24  O1        -2.1950   29.9970   55.8540 O.3     0  <0>0       -0.3800
     25  H26       -2.3480   30.7210   56.4770 H       0  <0>0        0.2108
@<TRIPOS>BOND
     1    19    16    1
     2    16    18   ar
     3    16    15   ar
     4    18    20   ar
     5    17    15    1
     6    15    14   ar
     7    20    22    1
     8    20    21   ar
     9    14    21   ar
    10    14     1    1
    11     2     1    1
    12     2     3    1
    13    21    23    1
    14     1    24    1
    15    24    25    1
    16     3     4    1
    17     5     4    1
    18     4     6    1
    19     8     7    1
    20     6     7   ar
    21     6    12   ar
    22     7     9   ar
    23    13    12    1
    24    12    11   ar
    25     9    10   ar
    26    11    10   ar
