@<TRIPOS>MOLECULE
ZINC13416513_replica-1.pdb
 27 29 0 0 0
SMALL
GASTEIGER

@<TRIPOS>ATOM
      1  N1         1.1030   31.0680   55.7440 N.am    0  <0>0       -0.3015
      2  C13        1.4070   32.3040   56.1890 C.2     0  <0>0        0.2341
      3  O1         0.5580   32.9810   56.7290 O.2     0  <0>0       -0.2741
      4  H16        1.7820   30.5270   55.3120 H       0  <0>0        0.1497
      5  C2        -0.2550   30.5440   55.9110 C.3     0  <0>0        0.0941
      6  C1        -0.3340   29.7390   57.2100 C.3     0  <0>0        0.0262
      7  C3        -0.5950   29.6510   54.7470 C.ar    0  <0>0       -0.0048
      8  C8        -0.0430   28.3900   54.6560 C.ar    0  <0>0       -0.0073
      9  C7        -0.3550   27.5580   53.5890 C.ar    0  <0>0       -0.0264
     10  C6        -1.2190   27.9970   52.6110 C.ar    0  <0>0       -0.0262
     11  C9         0.2850   26.1950   53.5520 C.3     0  <0>0        0.0260
     12  C5        -1.7680   29.2700   52.6990 C.ar    0  <0>0       -0.0048
     13  C12       -1.6100   27.1450   51.4310 C.3     0  <0>0        0.0260
     14  C4        -1.4590   30.0940   53.7610 C.ar    0  <0>0       -0.0030
     15  C11       -0.6240   25.9920   51.2520 C.3     0  <0>0        0.0050
     16  C10       -0.4700   25.2730   52.5960 C.3     0  <0>0        0.0050
     17  C14        2.8030   32.8440   56.0170 C.3     0  <0>0        0.1498
     18  S1         2.7900   34.6380   56.2540 S.3     0  <0>0       -0.0663
     19  C15        4.5220   34.9500   56.3290 C.2     0  <0>0        0.1829
     20  S2         5.8210   34.0870   55.5630 S.3     0  <0>0       -0.0688
     21  C17        7.1640   35.0850   56.1870 C.3     0  <0>0        0.1199
     22  C16        6.4830   35.9910   56.9280 C.2     0  <0>0        0.1106
     23  N2         5.1670   35.9030   56.9760 N.2     0  <0>0       -0.3965
     24  C18        7.2100   37.0790   57.6770 C.3     0  <0>0        0.1691
     25  C19        7.7480   38.0900   56.6980 C.2     0  <0>0        0.3716
     26  O2         8.8010   38.6400   56.9160 O.co2   0  <0>0       -0.2452
     27  O3         7.0570   38.3800   55.5850 O.co2   0  <0>0       -0.2452
@<TRIPOS>BOND
     1    15    13    1
     2    15    16    1
     3    13    10    1
     4    16    11    1
     5    10    12   ar
     6    10     9   ar
     7    12    14   ar
     8    11     9    1
     9     9     8   ar
    10    14     7   ar
    11     8     7   ar
    12     7     5    1
    13     4     1    1
    14    20    21    1
    15    20    19    1
    16    27    25   ar
    17     1     5    1
    18     1     2   am
    19     5     6    1
    20    17     2    1
    21    17    18    1
    22    21    22    1
    23     2     3    2
    24    18    19    1
    25    19    23    2
    26    25    26   ar
    27    25    24    1
    28    22    23    2
    29    22    24    1
