@<TRIPOS>MOLECULE
ZINC66794847_replica-1.pdb
 21 23 0 0 0
SMALL
GASTEIGER

@<TRIPOS>ATOM
      1  C7        -0.9340   29.8860   54.3710 C.3     0  <0>0        0.1535
      2  C8         0.2610   30.0560   55.3120 C.3     0  <0>0        0.1080
      3  N1         0.1050   31.3030   56.0750 N.3     0  <0>0       -0.2508
      4  C9        -1.1470   31.2870   56.8460 C.3     0  <0>0        0.1059
      5  C10       -2.3280   31.1060   55.8890 C.3     0  <0>0        0.1599
      6  O1        -2.1440   29.9060   55.1330 O.3     0  <0>0       -0.3489
      7  C6        -0.8190   28.5720   53.6430 C.ar    0  <0>0        0.0068
      8  C1        -1.3460   28.4380   52.3720 C.ar    0  <0>0       -0.0010
      9  C2        -1.2400   27.2320   51.7030 C.ar    0  <0>0        0.0120
     10  C3        -0.6080   26.1600   52.3050 C.ar    0  <0>0        0.0682
     11  C4        -0.0800   26.2940   53.5790 C.ar    0  <0>0        0.0680
     12 Cl         -0.4760   24.6460   51.4660 Cl      0  <0>0       -0.0814
     13  C5        -0.1860   27.5010   54.2460 C.ar    0  <0>0        0.0104
     14 Cl          0.7150   24.9490   54.3360 Cl      0  <0>0       -0.0814
     15  C11        1.2610   31.5320   56.9520 C.3     0  <0>0        0.1697
     16  N2         1.1850   32.8810   57.5170 N.am    0  <0>0       -0.2828
     17  C14        1.1150   33.0490   58.8520 C.2     0  <0>0        0.1120
     18  S1         0.9640   34.8100   59.0970 S.3     0  <0>0       -0.0905
     19  S2         1.1650   31.8340   60.0580 S.2     0  <0>0       -0.0279
     20  C13        0.5990   35.2860   57.3530 C.3     0  <0>0        0.0853
     21  C12        1.1780   34.0370   56.6400 C.3     0  <0>0        0.1050
@<TRIPOS>BOND
     1    12    10    1
     2     9    10   ar
     3     9     8   ar
     4    10    11   ar
     5     8     7   ar
     6    11    13   ar
     7    11    14    1
     8     7    13   ar
     9     7     1    1
    10     1     6    1
    11     1     2    1
    12     6     5    1
    13     2     3    1
    14     5     4    1
    15     3     4    1
    16     3    15    1
    17    21    20    1
    18    21    16    1
    19    15    16    1
    20    20    18    1
    21    16    17    1
    22    17    18    1
    23    17    19    2
