@<TRIPOS>MOLECULE
ZINC05867917_replica-1.pdb
 25 26 0 0 0
SMALL
GASTEIGER

@<TRIPOS>ATOM
      1  N1         8.1640   36.2700   57.8280 N.3     0  <0>0       -0.1292
      2  C2         8.6260   36.9310   58.8450 C.3     0  <0>0        0.1159
      3  C1         8.2150   38.3640   59.0620 C.3     0  <0>0        0.0256
      4  C10        9.5550   36.2790   59.7860 C.ar    0  <0>0       -0.0047
      5  C15        9.9400   36.9340   60.9590 C.ar    0  <0>0       -0.0032
      6  C14       10.8100   36.3180   61.8350 C.ar    0  <0>0       -0.0046
      7  C13       11.2990   35.0540   61.5560 C.ar    0  <0>0       -0.0228
      8  C12       10.9210   34.4000   60.3960 C.ar    0  <0>0       -0.0046
      9  C11       10.0490   35.0010   59.5150 C.ar    0  <0>0       -0.0032
     10  C16       12.2480   34.3890   62.5180 C.3     0  <0>0        0.0189
     11  C17       11.7070   33.0080   62.8950 C.3     0  <0>0        0.0044
     12  C18       13.6190   34.2350   61.8570 C.3     0  <0>0        0.0044
     13  C19       12.3830   35.2460   63.7780 C.3     0  <0>0        0.0044
     14  N2         6.9580   36.6590   57.2300 N.am    0  <0>0       -0.2440
     15  H4         6.9100   37.4900   56.7300 H       0  <0>0        0.1696
     16  C3         5.8650   35.8790   57.3460 C.2     0  <0>0        0.1459
     17  S1         5.4920   34.7390   56.1250 S.2     0  <0>0       -0.0176
     18  N3         5.0640   35.9980   58.4240 N.am    0  <0>0       -0.3168
     19  H5         5.2750   36.6440   59.1160 H       0  <0>0        0.1484
     20  C4         3.8720   35.1550   58.5470 C.3     0  <0>0        0.0706
     21  C9         3.9140   34.4060   59.8810 C.3     0  <0>0        0.0195
     22  C8         2.6690   33.5260   60.0100 C.3     0  <0>0        0.0017
     23  C7         1.4160   34.4030   59.9560 C.3     0  <0>0        0.0001
     24  C6         1.3750   35.1520   58.6230 C.3     0  <0>0        0.0017
     25  C5         2.6200   36.0320   58.4940 C.3     0  <0>0        0.0195
@<TRIPOS>BOND
     1    17    16    2
     2    15    14    1
     3    14    16    1
     4    14     1    1
     5    16    18    1
     6     1     2    1
     7    18    20    1
     8    18    19    1
     9    25    20    1
    10    25    24    1
    11    20    21    1
    12    24    23    1
    13     2     3    1
    14     2     4    1
    15     9     4   ar
    16     9     8   ar
    17     4     5   ar
    18    21    22    1
    19    23    22    1
    20     8     7   ar
    21     5     6   ar
    22     7     6   ar
    23     7    10    1
    24    12    10    1
    25    10    11    1
    26    10    13    1
