@<TRIPOS>MOLECULE
ZINC02865711_replica-1.pdb
 25 26 0 0 0
SMALL
GASTEIGER

@<TRIPOS>ATOM
      1  C12        6.5230   36.6280   59.9700 C.2     0  <0>0        0.2728
      2  O2         6.1600   36.6980   61.1250 O.2     0  <0>0       -0.2706
      3  N1         6.0160   35.6770   59.1610 N.am    0  <0>0       -0.2514
      4  H16        6.3070   35.6210   58.2370 H       0  <0>0        0.1578
      5  C11        7.5390   37.6060   59.4390 C.3     0  <0>0        0.2897
      6  O1         8.6370   36.8910   58.8680 O.3     0  <0>0       -0.4656
      7  C8         9.5000   36.2950   59.7310 C.ar    0  <0>0        0.1393
      8  C7         9.9750   35.0180   59.4670 C.ar    0  <0>0        0.0366
      9  C6        10.8520   34.4140   60.3470 C.ar    0  <0>0       -0.0012
     10  C5        11.2580   35.0800   61.4890 C.ar    0  <0>0       -0.0226
     11  C10       10.7860   36.3520   61.7540 C.ar    0  <0>0       -0.0012
     12  C9         9.9130   36.9630   60.8750 C.ar    0  <0>0        0.0366
     13  C2        12.2140   34.4180   62.4460 C.3     0  <0>0        0.0189
     14  C1        11.6900   33.0280   62.8120 C.3     0  <0>0        0.0044
     15  C3        13.5890   34.2880   61.7860 C.3     0  <0>0        0.0044
     16  C4        12.3370   35.2660   63.7140 C.3     0  <0>0        0.0044
     17  C13        5.0800   34.7750   59.6500 C.2     0  <0>0        0.2127
     18  S1         5.3280   33.3830   60.6590 S.3     0  <0>0       -0.0597
     19  C15        3.6210   32.8660   60.7660 C.3     0  <0>0        0.1201
     20  C14        3.0210   33.8190   60.0110 C.2     0  <0>0        0.0994
     21  N2         3.7730   34.7590   59.4740 N.2     0  <0>0       -0.3885
     22  C16        1.5290   33.8070   59.7980 C.3     0  <0>0        0.0436
     23  C17        1.0930   35.1310   59.1680 C.3     0  <0>0        0.0067
     24  C18        1.1570   32.6520   58.8670 C.3     0  <0>0        0.0067
     25  C19        0.8230   33.6260   61.1430 C.3     0  <0>0        0.0067
@<TRIPOS>BOND
     1     4     3    1
     2    24    22    1
     3     6     5    1
     4     6     7    1
     5     3    17    1
     6     3     1   am
     7    23    22    1
     8     5     1    1
     9     8     7   ar
    10     8     9   ar
    11    21    17    2
    12    21    20    2
    13    17    18    1
    14     7    12   ar
    15    22    20    1
    16    22    25    1
    17     1     2    2
    18    20    19    1
    19     9    10   ar
    20    18    19    1
    21    12    11   ar
    22    10    11   ar
    23    10    13    1
    24    15    13    1
    25    13    14    1
    26    13    16    1
