@<TRIPOS>MOLECULE
ZINC62104708_replica-1.pdb
 22 21 0 0 0
SMALL
GASTEIGER

@<TRIPOS>ATOM
      1  C7         5.6990   35.3910   57.3470 C.3     0  <0>0        0.1512
      2  C6         6.9020   36.0840   57.9340 C.2     0  <0>0        0.2436
      3  N1         8.0560   35.4080   58.0960 N.am    0  <0>0       -0.2765
      4  C5         8.1690   34.0260   57.6220 C.3     0  <0>0        0.1149
      5  O1         6.8310   37.2490   58.2610 O.2     0  <0>0       -0.2731
      6  C4         9.1990   36.0540   58.7470 C.3     0  <0>0        0.0935
      7  C3        10.0470   34.9950   59.4560 C.3     0  <0>0        0.0215
      8  C2        10.5720   35.5630   60.7760 C.3     0  <0>0        0.0018
      9  C1         9.8230   36.8560   61.1080 C.3     0  <0>0        0.0001
     10  C8         5.3000   36.0810   56.0420 C.3     0  <0>0        0.0270
     11  C9         3.7740   36.1220   55.9320 C.3     0  <0>0        0.0022
     12  C10        5.8750   35.3050   54.8560 C.3     0  <0>0        0.0021
     13  C11        5.4230   33.8450   54.9360 C.3     0  <0>0        0.0001
     14  N2         4.5850   35.4600   58.2970 N.am    0  <0>0       -0.2640
     15  C12        4.2930   34.3950   59.0710 C.2     0  <0>0        0.4017
     16  O2         4.9530   33.3790   58.9820 O.2     0  <0>0       -0.2264
     17  H23        4.0580   36.2710   58.3680 H       0  <0>0        0.1532
     18  O3         3.2690   34.4590   59.9420 O.3     0  <0>0       -0.4419
     19  C13        1.9550   34.2640   59.4160 C.3     0  <0>0        0.1378
     20  C14        1.4220   35.5910   58.8700 C.3     0  <0>0        0.0437
     21  C15        2.0050   33.2310   58.2880 C.3     0  <0>0        0.0437
     22  C16        1.0300   33.7620   60.5270 C.3     0  <0>0        0.0437
@<TRIPOS>BOND
     1    12    13    1
     2    12    10    1
     3    11    10    1
     4    10     1    1
     5     1     2    1
     6     1    14    1
     7     4     3    1
     8     2     3   am
     9     2     5    2
    10     3     6    1
    11    21    19    1
    12    14    17    1
    13    14    15   am
    14     6     7    1
    15    20    19    1
    16    16    15    2
    17    15    18    1
    18    19    18    1
    19    19    22    1
    20     7     8    1
    21     8     9    1
