@<TRIPOS>MOLECULE
ZINC05468517_replica-1.pdb
 21 21 0 0 0
SMALL
GASTEIGER

@<TRIPOS>ATOM
      1  C7        -0.3220   27.3020   53.8270 C.ar    0  <0>0        0.1349
      2  C8        -0.0840   26.1340   53.1160 C.ar    0  <0>0        0.0323
      3  C9        -0.6680   25.9500   51.8780 C.ar    0  <0>0       -0.0189
      4  C10       -1.4880   26.9290   51.3460 C.ar    0  <0>0       -0.0044
      5  C11       -1.7260   28.0930   52.0530 C.ar    0  <0>0       -0.0016
      6  C12       -1.1480   28.2800   53.2940 C.ar    0  <0>0        0.0112
      7  C17       -0.4100   24.6820   51.1060 C.3     0  <0>0        0.0311
      8  O2         0.2520   27.4860   55.0450 O.3     0  <0>0       -0.4660
      9  C6         0.2140   26.3830   55.9530 C.3     0  <0>0        0.2893
     10  C5         0.5840   26.8560   57.3350 C.2     0  <0>0        0.2670
     11  N1         1.3160   27.9770   57.4910 N.am    0  <0>0       -0.3029
     12  H10        1.6030   28.4800   56.7130 H       0  <0>0        0.1495
     13  O1         0.2250   26.2280   58.3070 O.2     0  <0>0       -0.2711
     14  C3         1.6760   28.4370   58.8330 C.3     0  <0>0        0.0717
     15  C4         3.1570   28.1520   59.0910 C.3     0  <0>0        0.0213
     16  C2         1.4190   29.9410   58.9440 C.3     0  <0>0        0.0196
     17  C1        -0.0310   30.2410   58.5580 C.3     0  <0>0        0.0017
     18  C13       -1.4130   29.5470   54.0660 C.3     0  <0>0        0.0218
     19  C14       -0.0870   30.2460   54.3700 C.3     0  <0>0        0.0045
     20  C15       -2.3000   30.4750   53.2320 C.3     0  <0>0        0.0045
     21  C16       -2.1230   29.2050   55.3770 C.3     0  <0>0        0.0045
@<TRIPOS>BOND
     1     7     3    1
     2     4     3   ar
     3     4     5   ar
     4     3     2   ar
     5     5     6   ar
     6     2     1   ar
     7    20    18    1
     8     6     1   ar
     9     6    18    1
    10     1     8    1
    11    18    19    1
    12    18    21    1
    13     8     9    1
    14     9    10    1
    15    12    11    1
    16    10    11   am
    17    10    13    2
    18    11    14    1
    19    17    16    1
    20    14    16    1
    21    14    15    1
