@<TRIPOS>MOLECULE
ZINC20524805_replica-1.pdb
 18 18 0 0 0
SMALL
GASTEIGER

@<TRIPOS>ATOM
      1  N1         0.0940   28.2970   54.7240 N.pl3   0  <0>0       -0.3322
      2  H16        1.0290   27.9070   55.1500 H       0  <0>0        0.1468
      3  C2        -0.5980   29.4130   55.3730 C.3     0  <0>0        0.0715
      4  C1         0.0540   30.7320   54.9550 C.3     0  <0>0        0.0213
      5  C3        -0.5050   29.2560   56.8930 C.3     0  <0>0        0.0467
      6  C4        -1.5440   28.2390   57.3650 C.3     0  <0>0        0.0946
      7  C5        -1.6670   28.3060   58.8890 C.3     0  <0>0        0.0297
      8  C6        -2.8990   28.5600   56.7300 C.3     0  <0>0        0.0297
      9  O1        -1.1360   26.9250   56.9790 O.3     0  <0>0       -0.3558
     10  C7        -0.9420   26.0300   58.0740 C.3     0  <0>0        0.1739
     11  C8        -0.4350   27.7290   53.5610 C.ar    0  <0>0        0.0733
     12  C13       -0.1930   26.3910   53.2670 C.ar    0  <0>0        0.1635
     13  C12       -0.7190   25.8320   52.1160 C.ar    0  <0>0        0.0863
     14  F1         0.5530   25.6390   54.1040 F       0  <0>0       -0.2020
     15  C11       -1.4840   26.6040   51.2590 C.ar    0  <0>0        0.0138
     16 Cl         -0.4200   24.1630   51.7460 Cl      0  <0>0       -0.0799
     17  C10       -1.7250   27.9330   51.5490 C.ar    0  <0>0        0.0023
     18  C9        -1.2080   28.4960   52.7000 C.ar    0  <0>0        0.0166
@<TRIPOS>BOND
     1    15    17   ar
     2    15    13   ar
     3    17    18   ar
     4    16    13    1
     5    13    12   ar
     6    18    11   ar
     7    12    11   ar
     8    12    14    1
     9    11     1    1
    10     1     2    1
    11     1     3    1
    12     4     3    1
    13     3     5    1
    14     8     6    1
    15     5     6    1
    16     9     6    1
    17     9    10    1
    18     6     7    1
