@<TRIPOS>MOLECULE
ZINC40845792_replica-1.pdb
 26 27 0 0 0
SMALL
GASTEIGER

@<TRIPOS>ATOM
      1  C10        0.3060   31.1090   56.6100 C.2     0  <0>0        0.2813
      2  O2         0.1300   31.4480   57.7610 O.2     0  <0>0       -0.2695
      3  N1         1.4340   31.4700   55.9650 N.am    0  <0>0       -0.2029
      4  H11        1.5750   31.1980   55.0450 H       0  <0>0        0.1774
      5  C8        -0.7350   30.2840   55.8990 C.3     0  <0>0        0.2428
      6  C9        -2.1020   30.9580   56.0370 C.3     0  <0>0        0.0575
      7  O1        -0.3950   30.1770   54.5150 O.3     0  <0>0       -0.4699
      8  C6        -0.4490   28.9380   53.9610 C.ar    0  <0>0        0.1385
      9  C5        -1.1020   28.7470   52.7510 C.ar    0  <0>0        0.0326
     10  C4        -1.1560   27.4860   52.1890 C.ar    0  <0>0       -0.0192
     11  C3        -0.5600   26.4150   52.8300 C.ar    0  <0>0       -0.0083
     12  C21       -1.8640   27.2770   50.8750 C.3     0  <0>0        0.0311
     13  C2         0.0920   26.6030   54.0350 C.ar    0  <0>0       -0.0192
     14  C1         0.7400   25.4350   54.7310 C.3     0  <0>0        0.0311
     15  C7         0.1430   27.8610   54.6040 C.ar    0  <0>0        0.0326
     16  N2         2.4030   32.2370   56.6260 N.2     0  <0>0       -0.1775
     17  C11        2.5980   33.4730   56.2820 C.2     0  <0>0        0.1176
     18  C12        3.6170   34.2800   56.9780 C.ar    0  <0>0        0.0207
     19  C17        4.9550   34.2100   56.5850 C.ar    0  <0>0        0.0013
     20  C16        5.9030   34.9720   57.2370 C.ar    0  <0>0       -0.0042
     21  C15        5.5320   35.7950   58.2860 C.ar    0  <0>0       -0.0225
     22  C14        4.2090   35.8640   58.6840 C.ar    0  <0>0       -0.0042
     23  C13        3.2500   35.1130   58.0380 C.ar    0  <0>0        0.0013
     24  C18        6.5740   36.6190   58.9960 C.3     0  <0>0        0.0224
     25  C19        7.2940   37.5140   57.9860 C.3     0  <0>0        0.0047
     26  C20        5.8990   37.4890   60.0590 C.3     0  <0>0        0.0047
@<TRIPOS>BOND
     1    12    10    1
     2    10     9   ar
     3    10    11   ar
     4     9     8   ar
     5    11    13   ar
     6     8     7    1
     7     8    15   ar
     8    13    15   ar
     9    13    14    1
    10     7     5    1
    11     4     3    1
    12     5     6    1
    13     5     1    1
    14     3     1   am
    15     3    16    1
    16    17    16    2
    17    17    18    1
    18    19    18   ar
    19    19    20   ar
    20     1     2    2
    21    18    23   ar
    22    20    21   ar
    23    25    24    1
    24    23    22   ar
    25    21    22   ar
    26    21    24    1
    27    24    26    1
