@<TRIPOS>MOLECULE
ZINC13421465_replica-1.pdb
 29 31 0 0 0
SMALL
GASTEIGER

@<TRIPOS>ATOM
      1  N1         6.1770   35.9200   59.4340 N.am    0  <0>0       -0.2952
      2  C12        6.9890   36.9900   59.5490 C.2     0  <0>0        0.2674
      3  O1         7.0030   37.8360   58.6800 O.2     0  <0>0       -0.2710
      4  H9         6.1650   35.2430   60.1290 H       0  <0>0        0.1501
      5  C5         5.3120   35.7790   58.2600 C.3     0  <0>0        0.1230
      6  C3         5.8700   34.7160   57.3490 C.ar    0  <0>0        0.0292
      7  C2         5.5520   34.4430   56.0610 C.ar    0  <0>0        0.0046
      8  C1         6.2030   33.4090   55.4140 C.ar    0  <0>0        0.0072
      9  C4         7.1330   32.6930   56.0900 C.ar    0  <0>0        0.0352
     10  S1         7.1160   33.4840   57.6910 S.2     0  <0>0       -0.0888
     11  C6         3.9260   35.3870   58.7010 C.ar    0  <0>0        0.0003
     12  C11        2.8240   36.0410   58.1810 C.ar    0  <0>0       -0.0000
     13  C10        1.5520   35.6810   58.5850 C.ar    0  <0>0        0.0294
     14  C9         1.3820   34.6660   59.5110 C.ar    0  <0>0        0.1401
     15  C8         2.4870   34.0120   60.0320 C.ar    0  <0>0        0.0294
     16  F1         0.1390   34.3140   59.9070 F       0  <0>0       -0.2042
     17  C7         3.7570   34.3690   59.6220 C.ar    0  <0>0       -0.0000
     18  C13        7.8790   37.1340   60.7560 C.3     0  <0>0        0.2893
     19  O2         9.2390   37.2560   60.3350 O.3     0  <0>0       -0.4656
     20  C14       10.1430   36.4240   60.9170 C.ar    0  <0>0        0.1393
     21  C19       10.7940   36.8100   62.0800 C.ar    0  <0>0        0.0366
     22  C18       11.7080   35.9600   62.6720 C.ar    0  <0>0       -0.0006
     23  C17       11.9810   34.7310   62.1010 C.ar    0  <0>0       -0.0107
     24  C16       11.3340   34.3450   60.9420 C.ar    0  <0>0       -0.0006
     25  C15       10.4150   35.1890   60.3480 C.ar    0  <0>0        0.0366
     26  C20       12.9840   33.8090   62.7460 C.3     0  <0>0        0.1404
     27  C21       12.3620   32.4510   62.9450 C.2     0  <0>0        0.3692
     28  O3        13.0250   31.4530   62.7860 O.co2   0  <0>0       -0.2453
     29  O4        11.0730   32.3500   63.3070 O.co2   0  <0>0       -0.2453
@<TRIPOS>BOND
     1     8     7   ar
     2     8     9   ar
     3     7     6   ar
     4     9    10   ar
     5     6    10   ar
     6     6     5    1
     7    12    13   ar
     8    12    11   ar
     9     5    11    1
    10     5     1    1
    11    13    14   ar
    12     3     2    2
    13    11    17   ar
    14     1     2   am
    15     1     4    1
    16    14    16    1
    17    14    15   ar
    18     2    18    1
    19    17    15   ar
    20    19    18    1
    21    19    20    1
    22    25    20   ar
    23    25    24   ar
    24    20    21   ar
    25    24    23   ar
    26    21    22   ar
    27    23    22   ar
    28    23    26    1
    29    26    27    1
    30    28    27   ar
    31    27    29   ar
