@<TRIPOS>MOLECULE
ZINC50864848_replica-1.pdb
 22 23 0 0 0
SMALL
GASTEIGER

@<TRIPOS>ATOM
      1  C3         5.8220   36.2430   56.8020 C.3     0  <0>0        0.1164
      2  C4         7.1490   36.2880   56.4190 C.2     0  <0>0        0.1071
      3  N1         8.0940   36.1570   57.3370 N.2     0  <0>0       -0.3481
      4  C5         7.7830   35.9850   58.6150 C.1     0  <0>0        0.1411
      5  N2         6.5220   35.9370   59.0240 N.2     0  <0>0       -0.3289
      6  C6         5.5250   36.0660   58.1560 C.2     0  <0>0        0.1753
      7  C17        7.5170   36.4810   54.9710 C.3     0  <0>0        0.0630
      8  C9         8.8720   35.8420   59.6110 C.ar    0  <0>0        0.1194
      9  C14        9.5070   34.6090   59.7850 C.ar    0  <0>0        0.1498
     10  C13       10.5280   34.4870   60.7150 C.ar    0  <0>0        0.0377
     11  C12       10.9080   35.5770   61.4730 C.ar    0  <0>0        0.0032
     12  C11       10.2780   36.7980   61.3070 C.ar    0  <0>0        0.0010
     13  C10        9.2640   36.9360   60.3820 C.ar    0  <0>0        0.0151
     14  O1         9.1280   33.5360   59.0430 O.3     0  <0>0       -0.4747
     15  C15        8.5260   32.4450   59.7420 C.3     0  <0>0        0.2056
     16  C16        8.3590   31.2600   58.7880 C.3     0  <0>0        0.0512
     17  N3         4.2090   36.0230   58.5870 N.pl3   0  <0>0       -0.3108
     18  H6         3.6360   36.7970   58.4760 H       0  <0>0        0.1489
     19  C7         3.6810   34.8050   59.2080 C.3     0  <0>0        0.0889
     20  C8         2.1570   34.7840   59.0770 C.3     0  <0>0        0.0230
     21  C2         4.7210   36.3880   55.7850 C.3     0  <0>0        0.0152
     22  C1         4.2600   35.0010   55.3300 C.3     0  <0>0        0.0009
@<TRIPOS>BOND
     1     7     2    1
     2    22    21    1
     3    21     1    1
     4     2     1    1
     5     2     3    2
     6     1     6    1
     7     3     4    2
     8     6    17    1
     9     6     5    2
    10    18    17    1
    11    17    19    1
    12     4     5    2
    13     4     8    1
    14    16    15    1
    15    14    15    1
    16    14     9    1
    17    20    19    1
    18     8     9   ar
    19     8    13   ar
    20     9    10   ar
    21    13    12   ar
    22    10    11   ar
    23    12    11   ar
