@<TRIPOS>MOLECULE
ZINC16493546_replica-1.pdb
 19 21 0 0 0
SMALL
GASTEIGER

@<TRIPOS>ATOM
      1  C7        11.0620   34.9230   61.8510 C.ar    0  <0>0        0.2496
      2  N1        11.1750   36.2290   61.9030 N.ar    0  <0>0       -0.1072
      3  N2        10.1210   36.7660   61.3960 N.ar    0  <0>0       -0.1102
      4  C8         9.3010   35.8310   61.0030 C.ar    0  <0>0        0.2407
      5  O1         9.8700   34.6460   61.2840 O.2     0  <0>0       -0.4183
      6  C9         7.9560   36.0410   60.3560 C.3     0  <0>0        0.1569
      7 Br          7.1760   34.3000   59.8860 Br      0  <0>0       -0.0668
      8  C10        8.1230   36.8700   59.1090 C.ar    0  <0>0       -0.0031
      9  C15        8.4600   36.2610   57.9140 C.ar    0  <0>0       -0.0030
     10  C14        8.6070   37.0200   56.7690 C.ar    0  <0>0       -0.0003
     11  C13        8.4160   38.3890   56.8170 C.ar    0  <0>0       -0.0000
     12  C12        8.0790   38.9970   58.0120 C.ar    0  <0>0       -0.0003
     13  C11        7.9330   38.2390   59.1580 C.ar    0  <0>0       -0.0030
     14  C4        12.0550   33.9370   62.3290 C.ar    0  <0>0        0.0551
     15  C3        13.4090   34.2710   62.3710 C.ar    0  <0>0        0.0047
     16  C2        14.3310   33.3460   62.8180 C.ar    0  <0>0        0.0002
     17  C1        13.9140   32.0910   63.2240 C.ar    0  <0>0        0.0000
     18  C6        12.5740   31.7540   63.1850 C.ar    0  <0>0        0.0002
     19  C5        11.6410   32.6710   62.7450 C.ar    0  <0>0        0.0047
@<TRIPOS>BOND
     1    10    11   ar
     2    10     9   ar
     3    11    12   ar
     4     9     8   ar
     5    12    13   ar
     6     8    13   ar
     7     8     6    1
     8     7     6    1
     9     6     4    1
    10     4     5   ar
    11     4     3   ar
    12     5     1   ar
    13     3     2   ar
    14     1     2   ar
    15     1    14    1
    16    14    15   ar
    17    14    19   ar
    18    15    16   ar
    19    19    18   ar
    20    16    17   ar
    21    18    17   ar
