@<TRIPOS>MOLECULE
ZINC37086288_replica-1.pdb
 22 23 0 0 0
SMALL
GASTEIGER

@<TRIPOS>ATOM
      1  C1         9.9110   34.8370   58.9880 C.3     0  <0>0        0.0215
      2  C2         9.5470   35.0350   60.4610 C.3     0  <0>0        0.0735
      3  C3        10.7650   35.5630   61.2210 C.3     0  <0>0        0.0458
      4  C4        11.5040   34.4090   61.8490 C.ar    0  <0>0       -0.0203
      5  C9        10.8410   33.2220   62.1040 C.ar    0  <0>0       -0.0011
      6  C8        11.5180   32.1610   62.6740 C.ar    0  <0>0        0.0366
      7  C7        12.8590   32.2910   63.0010 C.ar    0  <0>0        0.1387
      8  C6        13.5210   33.4840   62.7500 C.ar    0  <0>0        0.0366
      9  C5        12.8410   34.5400   62.1750 C.ar    0  <0>0       -0.0011
     10  O1        13.5260   31.2490   63.5660 O.3     0  <0>0       -0.4714
     11  C10       12.8140   30.0180   63.6970 C.3     0  <0>0        0.2525
     12  N1         8.4500   35.9990   60.5660 N.pl3   0  <0>0       -0.3328
     13  H14        8.6010   36.8620   60.9850 H       0  <0>0        0.1468
     14  C11        7.1830   35.6780   60.0640 C.ar    0  <0>0        0.0581
     15  C16        6.6270   36.4350   59.0330 C.ar    0  <0>0        0.0612
     16  C15        5.3730   36.1080   58.5370 C.ar    0  <0>0        0.0158
     17  C14        4.6760   35.0400   59.0700 C.ar    0  <0>0        0.0014
     18  C13        5.2260   34.2920   60.0950 C.ar    0  <0>0        0.0013
     19  C12        6.4770   34.6080   60.5920 C.ar    0  <0>0        0.0156
     20  N2         7.3330   37.5200   58.4990 N.pl3   0  <0>0       -0.3031
     21  C17        8.1040   37.3570   57.2640 C.3     0  <0>0        0.1123
     22  C18        7.3020   38.8180   59.1780 C.3     0  <0>0        0.1123
@<TRIPOS>BOND
     1    21    20    1
     2    20    15    1
     3    20    22    1
     4    16    15   ar
     5    16    17   ar
     6     1     2    1
     7    15    14   ar
     8    17    18   ar
     9    14    12    1
    10    14    19   ar
    11    18    19   ar
    12     2    12    1
    13     2     3    1
    14    12    13    1
    15     3     4    1
    16     4     5   ar
    17     4     9   ar
    18     5     6   ar
    19     9     8   ar
    20     6     7   ar
    21     8     7   ar
    22     7    10    1
    23    10    11    1
