@<TRIPOS>MOLECULE
ZINC06140415_replica-1.pdb
 21 24 0 0 0
SMALL
GASTEIGER

@<TRIPOS>ATOM
      1  C1        -1.4910   26.5380   51.0960 C.ar    0  <0>0        0.0001
      2  C2        -0.7540   25.5300   51.6980 C.ar    0  <0>0        0.0015
      3  C3        -0.1280   25.7450   52.9080 C.ar    0  <0>0        0.0171
      4  C4        -0.2340   26.9820   53.5360 C.ar    0  <0>0        0.0601
      5  C5        -0.9800   28.0010   52.9260 C.ar    0  <0>0        0.0391
      6  C6        -1.6060   27.7700   51.7030 C.ar    0  <0>0        0.0031
      7  C7        -0.9010   29.1680   53.8220 C.ar    0  <0>0        0.1519
      8  C8        -0.1090   28.7710   54.9190 C.ar    0  <0>0        0.2235
      9  N1         0.2780   27.4670   54.7280 N.ar    0  <0>0       -0.3266
     10  H1         0.8300   26.9580   55.3430 H       0  <0>0        0.1684
     11  N2         0.1190   29.6550   55.8850 N.2     0  <0>0       -0.3239
     12  C9        -0.4020   30.8710   55.7880 C.1     0  <0>0        0.1363
     13  N3        -1.1460   31.2210   54.7440 N.2     0  <0>0       -0.0753
     14  N4        -1.3920   30.3970   53.7850 N.2     0  <0>0       -0.1336
     15  S1        -0.1030   32.0440   57.0680 S.3     0  <0>0       -0.0289
     16  C10        1.6030   32.5860   56.7750 C.3     0  <0>0        0.0759
     17  C11        1.7000   34.0990   56.9800 C.3     0  <0>0        0.0424
     18  C13        1.9770   34.6060   58.3980 C.3     0  <0>0        0.1341
     19  C12        0.5850   34.7770   57.7810 C.3     0  <0>0        0.0338
     20 Cl          2.9980   36.0800   58.5710 Cl      0  <0>0       -0.0996
     21 Cl          2.1630   33.3720   59.6990 Cl      0  <0>0       -0.0996
@<TRIPOS>BOND
     1     1     2   ar
     2     1     6   ar
     3     2     3   ar
     4     6     5   ar
     5     3     4   ar
     6     5     4   ar
     7     5     7   ar
     8     4     9   ar
     9    14     7    2
    10    14    13    1
    11     7     8   ar
    12     9     8   ar
    13     9    10    1
    14    13    12    2
    15     8    11    2
    16    12    11    2
    17    12    15    1
    18    16    17    1
    19    16    15    1
    20    17    19    1
    21    17    18    1
    22    19    18    1
    23    18    20    1
    24    18    21    1
