@<TRIPOS>MOLECULE
ZINC28294294_replica-1.pdb
 29 32 0 0 0
SMALL
GASTEIGER

@<TRIPOS>ATOM
      1  C9         0.6600   29.4580   59.8060 C.3     0  <0>0        0.1359
      2  C10       -0.1200   29.8790   58.5700 C.2     0  <0>0        0.2450
      3  O1        -0.8050   30.8790   58.5510 O.2     0  <0>0       -0.2732
      4  N1        -0.0040   29.0860   57.5180 N.am    0  <0>0       -0.2151
      5  C11        0.7710   27.9440   57.5380 C.2     0  <0>0        0.1900
      6  N2         0.9630   27.0750   56.5660 N.2     0  <0>0       -0.1255
      7  S1         1.4530   27.9220   59.1880 S.3     0  <0>0       -0.0689
      8  C19       -0.6950   29.4140   56.3460 C.ar    0  <0>0        0.0600
      9  C24       -1.9850   28.9430   56.1430 C.ar    0  <0>0        0.0153
     10  C23       -2.6650   29.2690   54.9860 C.ar    0  <0>0        0.0013
     11  C22       -2.0610   30.0640   54.0280 C.ar    0  <0>0        0.0001
     12  C21       -0.7760   30.5330   54.2260 C.ar    0  <0>0        0.0013
     13  C20       -0.0940   30.2160   55.3850 C.ar    0  <0>0        0.0153
     14  N3         0.3150   27.1950   55.4570 N.2     0  <0>0       -0.1447
     15  C12        0.5730   26.3910   54.4610 C.2     0  <0>0        0.1222
     16  C13       -0.2090   26.4860   53.2180 C.ar    0  <0>0        0.0210
     17  C18       -0.4860   25.3350   52.4720 C.ar    0  <0>0        0.0016
     18  C17       -1.2200   25.4320   51.3090 C.ar    0  <0>0        0.0000
     19  C16       -1.6830   26.6640   50.8780 C.ar    0  <0>0        0.0000
     20  C15       -1.4120   27.8070   51.6100 C.ar    0  <0>0        0.0000
     21  C14       -0.6840   27.7250   52.7780 C.ar    0  <0>0        0.0016
     22  C8         1.7040   30.5080   60.1870 C.3     0  <0>0        0.0465
     23  C7         1.0390   31.6280   60.9440 C.ar    0  <0>0       -0.0248
     24  C2         1.1200   32.9240   60.4740 C.ar    0  <0>0       -0.0258
     25  C1         1.8740   33.2190   59.2030 C.3     0  <0>0        0.0307
     26  C3         0.5050   33.9510   61.1670 C.ar    0  <0>0       -0.0046
     27  C4        -0.1820   33.6810   62.3350 C.ar    0  <0>0       -0.0003
     28  C5        -0.2590   32.3850   62.8090 C.ar    0  <0>0       -0.0003
     29  C6         0.3520   31.3590   62.1140 C.ar    0  <0>0       -0.0045
@<TRIPOS>BOND
     1    19    18   ar
     2    19    20   ar
     3    18    17   ar
     4    20    21   ar
     5    17    16   ar
     6    21    16   ar
     7    16    15    1
     8    11    12   ar
     9    11    10   ar
    10    12    13   ar
    11    15    14    2
    12    10     9   ar
    13    13     8   ar
    14    14     6    1
    15     9     8   ar
    16     8     4    1
    17     6     5    2
    18     4     5    1
    19     4     2   am
    20     5     7    1
    21     3     2    2
    22     2     1    1
    23     7     1    1
    24    25    24    1
    25     1    22    1
    26    22    23    1
    27    24    23   ar
    28    24    26   ar
    29    23    29   ar
    30    26    27   ar
    31    29    28   ar
    32    27    28   ar
