@<TRIPOS>MOLECULE
ZINC62345831_replica-1.pdb
 22 24 0 0 0
SMALL
GASTEIGER

@<TRIPOS>ATOM
      1  C10       -0.0920   29.7150   55.7160 C.3     0  <0>0        0.0933
      2  N1        -0.5310   28.3690   55.3240 N.3     0  <0>0       -0.2676
      3  C2        -0.8290   27.5470   56.5030 C.3     0  <0>0        0.0725
      4  C1         0.4430   26.8340   56.9650 C.3     0  <0>0        0.0188
      5  C3         0.4710   27.7180   54.4680 C.3     0  <0>0        0.0992
      6  C4        -0.2110   27.1060   53.2720 C.ar    0  <0>0       -0.0061
      7  C9        -1.0080   27.8870   52.4560 C.ar    0  <0>0       -0.0029
      8  C8        -1.6310   27.3250   51.3560 C.ar    0  <0>0       -0.0003
      9  C7        -1.4640   25.9810   51.0790 C.ar    0  <0>0       -0.0000
     10  C6        -0.6720   25.1990   51.8980 C.ar    0  <0>0       -0.0003
     11  C5        -0.0460   25.7610   52.9950 C.ar    0  <0>0       -0.0029
     12  C11       -1.0270   30.2600   56.7970 C.3     0  <0>0        0.1181
     13 Cl         -2.4170   31.1050   56.0180 Cl      0  <0>0       -0.1087
     14  C12       -0.2740   31.2320   57.6690 C.ar    0  <0>0       -0.0029
     15  C17       -0.1540   32.5540   57.2840 C.ar    0  <0>0        0.0371
     16  C16        0.5340   33.4500   58.0860 C.ar    0  <0>0        0.1761
     17  C15        1.1120   33.0130   59.2740 C.ar    0  <0>0        0.1764
     18  O1         0.7900   34.7840   57.9410 O.3     0  <0>0       -0.4346
     19  C14        0.9930   31.6860   59.6510 C.ar    0  <0>0        0.0399
     20  O2         1.7300   34.0720   59.8750 O.3     0  <0>0       -0.4346
     21  C13        0.3010   30.7980   58.8490 C.ar    0  <0>0        0.0003
     22  C18        1.1770   35.2460   59.2490 C.3     0  <0>0        0.4294
@<TRIPOS>BOND
     1     9     8   ar
     2     9    10   ar
     3     8     7   ar
     4    10    11   ar
     5     7     6   ar
     6    11     6   ar
     7     6     5    1
     8     5     2    1
     9     2     1    1
    10     2     3    1
    11     1    12    1
    12    13    12    1
    13     3     4    1
    14    12    14    1
    15    15    14   ar
    16    15    16   ar
    17    14    21   ar
    18    18    16    1
    19    18    22    1
    20    16    17   ar
    21    21    19   ar
    22    22    20    1
    23    17    19   ar
    24    17    20    1
