@<TRIPOS>MOLECULE
ZINC60941555_replica-1.pdb
 21 22 0 0 0
SMALL
GASTEIGER

@<TRIPOS>ATOM
      1  C5        -0.4720   28.5170   57.4230 C.ar    0  <0>0        0.0725
      2  C6        -1.6990   28.6310   58.0680 C.ar    0  <0>0        0.0173
      3  C7        -2.3770   27.5030   58.4690 C.ar    0  <0>0        0.0117
      4  C8        -1.8330   26.2380   58.2260 C.ar    0  <0>0        0.0708
      5  C9        -0.6010   26.1240   57.5770 C.ar    0  <0>0        0.0412
      6  C10        0.0710   27.2580   57.1730 C.ar    0  <0>0        0.1538
      7  F1         1.2610   27.1500   56.5410 F       0  <0>0       -0.2029
      8  C11       -2.5370   25.0620   58.6420 C.1     0  <0>0        0.1005
      9  N2        -3.0940   24.1290   58.9710 N.1     0  <0>0       -0.1908
     10  N1         0.2110   29.6620   57.0190 N.pl3   0  <0>0       -0.3309
     11  H9         1.0420   29.9090   57.4540 H       0  <0>0        0.1469
     12  C4        -0.3250   30.4920   55.9390 C.3     0  <0>0        0.0874
     13  C3         0.0760   29.8950   54.5880 C.3     0  <0>0        0.0255
     14  C2        -1.1730   29.6990   53.7260 C.3     0  <0>0        0.0240
     15  C1        -2.4160   29.7060   54.6180 C.3     0  <0>0        0.0047
     16  C12       -1.0810   28.3800   53.0030 C.ar    0  <0>0       -0.0224
     17  C17       -0.3890   27.3270   53.5710 C.ar    0  <0>0       -0.0043
     18  C16       -0.3080   26.1150   52.9100 C.ar    0  <0>0       -0.0003
     19  C15       -0.9110   25.9600   51.6760 C.ar    0  <0>0       -0.0000
     20  C14       -1.5990   27.0150   51.1060 C.ar    0  <0>0       -0.0003
     21  C13       -1.6830   28.2250   51.7690 C.ar    0  <0>0       -0.0043
@<TRIPOS>BOND
     1    20    19   ar
     2    20    21   ar
     3    19    18   ar
     4    21    16   ar
     5    18    17   ar
     6    16    17   ar
     7    16    14    1
     8    14    13    1
     9    14    15    1
    10    13    12    1
    11    12    10    1
    12     7     6    1
    13    10     1    1
    14    10    11    1
    15     6     1   ar
    16     6     5   ar
    17     1     2   ar
    18     5     4   ar
    19     2     3   ar
    20     4     3   ar
    21     4     8    1
    22     8     9    3
