@<TRIPOS>MOLECULE
ZINC59463879_replica-1.pdb
 24 26 0 0 0
SMALL
GASTEIGER

@<TRIPOS>ATOM
      1  C11        7.1290   36.2550   57.9390 C.2     0  <0>0        0.1923
      2  C12        6.9010   35.3480   56.8010 C.2     0  <0>0        0.3738
      3  O2         7.6920   35.0440   55.9280 O.2     0  <0>0       -0.2419
      4  O3         5.6240   34.9250   56.9330 O.3     0  <0>0       -0.3911
      5  C13        5.0930   35.4970   58.0320 C.2     0  <0>0        0.2847
      6  N1         5.9540   36.2690   58.6340 N.2     0  <0>0       -0.3648
      7  C10        8.2870   36.9410   58.2420 C.3     0  <0>0        0.0922
      8  C7         9.1760   36.4450   59.2950 C.ar    0  <0>0       -0.0147
      9  C6         9.8050   35.2000   59.1580 C.ar    0  <0>0       -0.0007
     10  C5        10.6360   34.7430   60.1480 C.ar    0  <0>0        0.0366
     11  C4        10.8570   35.5120   61.2860 C.ar    0  <0>0        0.1390
     12  C9        10.2310   36.7450   61.4300 C.ar    0  <0>0        0.0366
     13  C8         9.4020   37.2170   60.4450 C.ar    0  <0>0       -0.0007
     14  O1        11.6810   35.0540   62.2610 O.3     0  <0>0       -0.4707
     15  C3        11.7100   33.6410   62.4770 C.3     0  <0>0        0.2318
     16  C2        13.1160   33.2110   62.8050 C.2     0  <0>0        0.0207
     17  C1        14.1350   33.8870   62.3330 C.2     0  <0>0       -0.0011
     18  C14        3.7110   35.2710   58.4990 C.ar    0  <0>0        0.0718
     19  C19        3.4630   34.4000   59.5630 C.ar    0  <0>0        0.0356
     20  C18        2.1680   34.1980   59.9980 C.ar    0  <0>0        0.0060
     21  I1         5.0530   33.4090   60.5020 I       0  <0>0       -0.0423
     22  C17        1.1180   34.8460   59.3750 C.ar    0  <0>0        0.0004
     23  C16        1.3560   35.7070   58.3180 C.ar    0  <0>0        0.0002
     24  C15        2.6440   35.9220   57.8760 C.ar    0  <0>0        0.0062
@<TRIPOS>BOND
     1     3     2    2
     2     2     4    1
     3     2     1    1
     4     4     5    1
     5    24    23   ar
     6    24    18   ar
     7     1     7    1
     8     1     6    2
     9     5    18    1
    10     5     6    2
    11     7     8    1
    12    23    22   ar
    13    18    19   ar
    14     9     8   ar
    15     9    10   ar
    16     8    13   ar
    17    22    20   ar
    18    19    20   ar
    19    19    21    1
    20    10    11   ar
    21    13    12   ar
    22    11    12   ar
    23    11    14    1
    24    14    15    1
    25    17    16    2
    26    15    16    1
