@<TRIPOS>MOLECULE
ZINC12973445_replica-1.pdb
 24 26 0 0 0
SMALL
GASTEIGER

@<TRIPOS>ATOM
      1  N1         1.0730   30.9980   55.8690 N.am    0  <0>0       -0.2960
      2  C11        1.4060   32.1920   56.3980 C.2     0  <0>0        0.2467
      3  O2         0.5390   32.9370   56.8110 O.2     0  <0>0       -0.2701
      4  H10        1.7640   30.4030   55.5390 H       0  <0>0        0.1501
      5  C2        -0.3350   30.5970   55.7940 C.3     0  <0>0        0.1295
      6  C1        -0.7910   30.0760   57.1580 C.3     0  <0>0        0.0295
      7  C3        -0.4940   29.5110   54.7610 C.ar    0  <0>0        0.1405
      8  O1         0.0400   28.2810   54.8510 O.2     0  <0>0       -0.4561
      9  C10       -0.2830   27.5380   53.7730 C.ar    0  <0>0        0.1449
     10  C5        -1.0690   28.3410   52.9320 C.ar    0  <0>0        0.0373
     11  C9         0.0080   26.2340   53.3880 C.ar    0  <0>0        0.0375
     12  C4        -1.1840   29.6330   53.6200 C.ar    0  <0>0        0.0377
     13  C6        -1.5500   27.8320   51.7260 C.ar    0  <0>0        0.0031
     14  C7        -1.2520   26.5480   51.3660 C.ar    0  <0>0        0.0002
     15  C8        -0.4750   25.7490   52.1930 C.ar    0  <0>0        0.0031
     16  C12        2.8260   32.5950   56.4740 C.ar    0  <0>0        0.0626
     17  C17        3.6350   32.1190   57.5080 C.ar    0  <0>0        0.0391
     18  C16        4.9620   32.4980   57.5760 C.ar    0  <0>0        0.0100
     19 Br          2.9130   30.9570   58.8150 Br      0  <0>0       -0.0488
     20  C15        5.4910   33.3500   56.6270 C.ar    0  <0>0        0.0374
     21  C14        4.6950   33.8240   55.5910 C.ar    0  <0>0        0.1389
     22  C13        3.3640   33.4520   55.5130 C.ar    0  <0>0        0.0419
     23  O3         5.2230   34.6590   54.6570 O.3     0  <0>0       -0.4714
     24  C18        6.2620   35.5390   55.0870 C.3     0  <0>0        0.2525
@<TRIPOS>BOND
     1    14    13   ar
     2    14    15   ar
     3    13    10   ar
     4    15    11   ar
     5    10    12   ar
     6    10     9   ar
     7    11     9   ar
     8    12     7   ar
     9     9     8   ar
    10    23    24    1
    11    23    21    1
    12     7     8   ar
    13     7     5    1
    14    22    21   ar
    15    22    16   ar
    16     4     1    1
    17    21    20   ar
    18     5     1    1
    19     5     6    1
    20     1     2   am
    21     2    16    1
    22     2     3    2
    23    16    17   ar
    24    20    18   ar
    25    17    18   ar
    26    17    19    1
