@<TRIPOS>MOLECULE
ZINC48430008_replica-1.pdb
 20 21 0 0 0
SMALL
GASTEIGER

@<TRIPOS>ATOM
      1  S1         7.3640   36.8670   59.4680 S.O2    0  <0>0        0.0936
      2  O1         7.1650   35.7580   60.3340 O.2     0  <0>0       -0.1483
      3  O2         6.7400   38.1240   59.6850 O.2     0  <0>0       -0.1483
      4  N1         8.9960   37.1490   59.4290 N.pl3   0  <0>0       -0.0965
      5  C6         9.8490   36.4260   60.2670 C.ar    0  <0>0        0.0910
      6  C5        10.2470   36.9630   61.4850 C.ar    0  <0>0        0.0177
      7  C4        11.0900   36.2460   62.3110 C.ar    0  <0>0       -0.0029
      8  C3        11.5370   34.9960   61.9270 C.ar    0  <0>0       -0.0221
      9  C8        11.1470   34.4600   60.7130 C.ar    0  <0>0       -0.0029
     10  C7        10.3000   35.1690   59.8850 C.ar    0  <0>0        0.0177
     11  C2        12.4580   34.2160   62.8310 C.3     0  <0>0        0.0264
     12  C1        13.8170   34.0430   62.1480 C.3     0  <0>0        0.0050
     13  C9         6.8880   36.3390   57.8560 C.ar    0  <0>0        0.1377
     14  C14        5.5720   35.9990   57.6010 C.ar    0  <0>0        0.0788
     15  C13        5.1960   35.5890   56.3340 C.ar    0  <0>0        0.0424
     16 Cl          4.3900   36.0940   58.8690 Cl      0  <0>0       -0.0808
     17  C12        6.1410   35.5100   55.3250 C.ar    0  <0>0        0.1411
     18  C11        7.4590   35.8450   55.5840 C.ar    0  <0>0        0.0311
     19  F1         5.7760   35.1050   54.0890 F       0  <0>0       -0.2041
     20  C10        7.8310   36.2590   56.8480 C.ar    0  <0>0        0.0234
@<TRIPOS>BOND
     1    19    17    1
     2    17    18   ar
     3    17    15   ar
     4    18    20   ar
     5    15    14   ar
     6    20    13   ar
     7    14    13   ar
     8    14    16    1
     9    13     1    1
    10     4     1    1
    11     4     5    1
    12     1     3    2
    13     1     2    2
    14    10     5   ar
    15    10     9   ar
    16     5     6   ar
    17     9     8   ar
    18     6     7   ar
    19     8     7   ar
    20     8    11    1
    21    12    11    1
