@<TRIPOS>MOLECULE
ZINC20886101_replica-1.pdb
 29 32 0 0 0
SMALL
GASTEIGER

@<TRIPOS>ATOM
      1  C8        11.1670   34.9820   60.9670 C.3     0  <0>0        0.0357
      2  C9        10.4400   34.1230   59.9310 C.3     0  <0>0        0.0458
      3  C10        9.4740   34.9790   59.1490 C.2     0  <0>0        0.0268
      4  C11        8.8840   36.0510   59.7190 C.2     0  <0>0        0.0261
      5  C12        7.9160   36.8910   58.9190 C.3     0  <0>0        0.0574
      6  C13        8.3760   36.9450   57.4610 C.3     0  <0>0        0.0942
      7  C14        8.6910   35.5480   56.9910 C.2     0  <0>0        0.2265
      8  O2         8.4820   35.2370   55.8380 O.2     0  <0>0       -0.2748
      9  N1         9.2040   34.6470   57.8460 N.am    0  <0>0       -0.2875
     10  C21        9.1530   36.4130   61.0500 C.2     0  <0>0        0.1706
     11  O3         8.5920   37.3770   61.5320 O.2     0  <0>0       -0.2916
     12  C22       10.1230   35.6250   61.8870 C.3     0  <0>0        0.0736
     13  H14        9.4080   33.6290   57.4840 H       0  <0>0        0.1545
     14  C6        12.0930   34.1170   61.7810 C.ar    0  <0>0       -0.0187
     15  C5        13.4290   34.4530   61.8980 C.ar    0  <0>0       -0.0041
     16  C4        14.2810   33.6590   62.6450 C.ar    0  <0>0        0.0028
     17  C3        13.8010   32.5260   63.2700 C.ar    0  <0>0        0.0369
     18  C2        12.4600   32.1890   63.1580 C.ar    0  <0>0        0.1384
     19  C7        11.6070   32.9860   62.4090 C.ar    0  <0>0        0.0326
     20  O1        11.9840   31.0770   63.7770 O.3     0  <0>0       -0.4714
     21  C1        12.8050   29.9080   63.7330 C.3     0  <0>0        0.2525
     22  C15        6.5410   36.2780   58.9900 C.ar    0  <0>0       -0.0172
     23  C20        5.6790   36.3900   57.9160 C.ar    0  <0>0        0.0050
     24  C19        4.4170   35.8270   57.9790 C.ar    0  <0>0        0.0617
     25  C18        4.0180   35.1510   59.1210 C.ar    0  <0>0        0.1462
     26 Br          3.2370   35.9820   56.5100 Br      0  <0>0       -0.0467
     27  C17        4.8840   35.0400   60.1960 C.ar    0  <0>0        0.0298
     28  F1         2.7870   34.6010   59.1850 F       0  <0>0       -0.2037
     29  C16        6.1460   35.5990   60.1270 C.ar    0  <0>0       -0.0016
@<TRIPOS>BOND
     1     8     7    2
     2    26    24    1
     3     7     6    1
     4     7     9   am
     5     6     5    1
     6    13     9    1
     7     9     3    1
     8    23    24   ar
     9    23    22   ar
    10    24    25   ar
    11     5    22    1
    12     5     4    1
    13    22    29   ar
    14    25    28    1
    15    25    27   ar
    16     3     4    2
    17     3     2    1
    18     4    10    1
    19     2     1    1
    20    29    27   ar
    21     1    14    1
    22     1    12    1
    23    10    11    2
    24    10    12    1
    25    14    15   ar
    26    14    19   ar
    27    15    16   ar
    28    19    18   ar
    29    16    17   ar
    30    18    17   ar
    31    18    20    1
    32    21    20    1
