@<TRIPOS>MOLECULE
ZINC02783386_replica-1.pdb
 24 25 0 0 0
SMALL
GASTEIGER

@<TRIPOS>ATOM
      1  N1         0.5360   32.8290   55.8690 N.am    0  <0>0       -0.3150
      2  H12        0.0710   33.3070   55.1650 H       0  <0>0        0.1485
      3  C9        -0.0420   31.6050   56.4300 C.3     0  <0>0        0.1005
      4  C8         0.1780   30.4450   55.4570 C.3     0  <0>0        0.0834
      5  S1        -1.1670   30.4110   54.2420 S.3     0  <0>0       -0.1119
      6  C5        -0.9940   28.8420   53.4580 C.ar    0  <0>0        0.0252
      7  C4        -1.6030   28.6060   52.2310 C.ar    0  <0>0        0.0058
      8  C3        -1.4650   27.3750   51.6200 C.ar    0  <0>0       -0.0038
      9  C2        -0.7230   26.3790   52.2270 C.ar    0  <0>0       -0.0218
     10  C1        -0.5750   25.0370   51.5560 C.3     0  <0>0        0.0310
     11  C7        -0.1160   26.6110   53.4480 C.ar    0  <0>0       -0.0038
     12  C6        -0.2440   27.8410   54.0620 C.ar    0  <0>0        0.0058
     13  C10        1.7150   33.2910   56.3340 C.2     0  <0>0        0.1351
     14  S2         2.7330   32.2680   57.2530 S.2     0  <0>0       -0.0185
     15  N2         2.0900   34.5590   56.0730 N.am    0  <0>0       -0.2962
     16  H13        1.5530   35.1140   55.4860 H       0  <0>0        0.1538
     17  C11        3.2570   35.0750   56.6480 C.ar    0  <0>0        0.0452
     18  C16        4.4060   35.2170   55.8820 C.ar    0  <0>0       -0.0123
     19  C15        5.5550   35.7320   56.4520 C.ar    0  <0>0       -0.0246
     20  C17        4.3990   34.8160   54.4300 C.3     0  <0>0        0.0320
     21  C14        5.5640   36.0950   57.7860 C.ar    0  <0>0       -0.0045
     22  C18        6.8010   35.8920   55.6200 C.3     0  <0>0        0.0307
     23  C13        4.4220   35.9490   58.5530 C.ar    0  <0>0        0.0009
     24  C12        3.2690   35.4400   57.9880 C.ar    0  <0>0        0.0143
@<TRIPOS>BOND
     1    10     9    1
     2     8     9   ar
     3     8     7   ar
     4     9    11   ar
     5     7     6   ar
     6    11    12   ar
     7     6    12   ar
     8     6     5    1
     9     5     4    1
    10    20    18    1
    11     2     1    1
    12     4     3    1
    13    16    15    1
    14    22    19    1
    15     1    13    1
    16     1     3    1
    17    18    19   ar
    18    18    17   ar
    19    15    13    1
    20    15    17    1
    21    13    14    2
    22    19    21   ar
    23    17    24   ar
    24    21    23   ar
    25    24    23   ar
