@<TRIPOS>MOLECULE
ZINC03197740_replica-1.pdb
 24 25 0 0 0
SMALL
GASTEIGER

@<TRIPOS>ATOM
      1  C1         7.2880   38.2520   59.3110 C.3     0  <0>0        0.0025
      2  C2         7.7260   37.3170   58.1800 C.3     0  <0>0        0.0271
      3  C3         8.6040   36.1980   58.7340 C.3     0  <0>0        0.0024
      4  C4         7.7880   35.1880   59.5310 C.3     0  <0>0        0.0001
      5  C5         6.6940   34.5950   58.6460 C.3     0  <0>0        0.0003
      6  C6         5.7630   35.7000   58.1440 C.3     0  <0>0        0.0035
      7  C7         6.5460   36.7600   57.3840 C.3     0  <0>0        0.0029
      8  C8         7.0850   36.1950   56.0640 C.3     0  <0>0        0.0044
      9  C9         5.9430   35.7050   55.1660 C.3     0  <0>0        0.0220
     10  C10        5.1780   34.6570   55.9410 C.2     0  <0>0       -0.0446
     11  C11        4.9790   33.4610   55.4490 C.2     0  <0>0       -0.0091
     12  C12        4.6570   35.0510   57.2970 C.3     0  <0>0        0.0184
     13  C19        5.0170   36.3000   59.3490 C.3     0  <0>0        0.0003
     14  C13        3.4860   36.0250   57.1530 C.3     0  <0>0        0.0068
     15  C14        2.3770   35.3700   56.3280 C.3     0  <0>0        0.0315
     16  C15        1.0930   35.3040   57.1590 C.3     0  <0>0        0.1068
     17  C16        0.5330   33.8820   57.1190 C.3     0  <0>0        0.0339
     18  C17        1.3970   35.6860   58.5840 C.2     0  <0>0       -0.0001
     19  C18        1.0310   34.8990   59.5660 C.2     0  <0>0       -0.0025
     20  O1         0.1300   36.2100   56.6170 O.3     0  <0>0       -0.3827
     21  H28       -0.6030   35.7770   56.1570 H       0  <0>0        0.2107
     22  C20        8.6160   38.1810   57.2580 C.3     0  <0>0        0.1370
     23  O2         8.9410   39.4060   57.9190 O.3     0  <0>0       -0.3820
     24  H34        9.2860   39.2900   58.8150 H       0  <0>0        0.2104
@<TRIPOS>BOND
     1     9    10    1
     2     9     8    1
     3    11    10    2
     4    10    12    1
     5     8     7    1
     6    21    20    1
     7    15    14    1
     8    15    16    1
     9    20    16    1
    10    17    16    1
    11    14    12    1
    12    16    18    1
    13    22    23    1
    14    22     2    1
    15    12     6    1
    16     7     6    1
    17     7     2    1
    18    23    24    1
    19     6     5    1
    20     6    13    1
    21     2     3    1
    22     2     1    1
    23    18    19    2
    24     5     4    1
    25     3     4    1
