@<TRIPOS>MOLECULE
ZINC36926928_replica-1.pdb
 21 22 0 0 0
SMALL
GASTEIGER

@<TRIPOS>ATOM
      1  C8         9.3710   35.2440   60.6540 C.ar    0  <0>0        0.0580
      2  C9        10.2030   36.2150   61.1940 C.ar    0  <0>0        0.0152
      3  C10       11.3380   35.8450   61.8890 C.ar    0  <0>0        0.0052
      4  C11       11.6550   34.5070   62.0530 C.ar    0  <0>0        0.0722
      5  C12       10.8400   33.5280   61.5240 C.ar    0  <0>0        0.0154
      6  C13        9.6850   33.8860   60.8240 C.ar    0  <0>0        0.0817
      7  C14        8.8320   32.8750   60.2770 C.1     0  <0>0        0.1017
      8  N2         8.1540   32.0730   59.8440 N.1     0  <0>0       -0.1908
      9  N1         8.2270   35.6140   59.9550 N.pl3   0  <0>0       -0.3122
     10  H8         7.3800   35.1790   60.1440 H       0  <0>0        0.1522
     11  C7         8.2970   36.6110   58.9790 C.ar    0  <0>0        0.0443
     12  C2         8.4790   36.2680   57.6450 C.ar    0  <0>0       -0.0084
     13  C1         8.6010   34.8200   57.2480 C.3     0  <0>0        0.0323
     14  C3         8.5410   37.2570   56.6820 C.ar    0  <0>0       -0.0030
     15  C4         8.4300   38.5860   57.0450 C.ar    0  <0>0       -0.0002
     16  C5         8.2560   38.9320   58.3730 C.ar    0  <0>0        0.0013
     17  C6         8.1920   37.9480   59.3410 C.ar    0  <0>0        0.0143
     18  C15       12.8970   34.1180   62.8130 C.3     0  <0>0        0.4186
     19  F1        14.0210   34.3430   62.0130 F       0  <0>0       -0.1659
     20  F2        12.9900   34.8860   63.9780 F       0  <0>0       -0.1659
     21  F3        12.8300   32.7620   63.1530 F       0  <0>0       -0.1659
@<TRIPOS>BOND
     1    14    15   ar
     2    14    12   ar
     3    15    16   ar
     4    13    12    1
     5    12    11   ar
     6    16    17   ar
     7    11    17   ar
     8    11     9    1
     9     8     7    3
    10     9    10    1
    11     9     1    1
    12     7     6    1
    13     1     6   ar
    14     1     2   ar
    15     6     5   ar
    16     2     3   ar
    17     5     4   ar
    18     3     4   ar
    19    19    18    1
    20     4    18    1
    21    18    21    1
    22    18    20    1
