@<TRIPOS>MOLECULE
ZINC20606382_replica-1.pdb
 28 31 0 0 0
SMALL
GASTEIGER

@<TRIPOS>ATOM
      1  C8         9.0550   36.5100   58.8780 C.3     0  <0>0        0.1460
      2  N1         7.7660   35.7730   58.9020 N.am    0  <0>0       -0.2723
      3  C9         6.7840   36.4480   59.7760 C.3     0  <0>0        0.1637
      4  C10        6.7180   37.9500   59.3850 C.3     0  <0>0        0.0886
      5  S1         8.5230   38.2570   59.1310 S.3     0  <0>0       -0.1145
      6  C11        5.4800   35.7650   59.4390 C.2     0  <0>0        0.2534
      7  O1         4.3700   36.0740   59.8180 O.2     0  <0>0       -0.2723
      8  N2         5.8100   34.7400   58.6260 N.am    0  <0>0       -0.2156
      9  C12        7.1230   34.7190   58.3670 C.2     0  <0>0        0.1488
     10  S2         7.8970   33.4940   57.4550 S.2     0  <0>0       -0.0177
     11  C13        4.8910   33.8080   58.1200 C.ar    0  <0>0        0.0935
     12  C18        4.2840   34.0240   56.8860 C.ar    0  <0>0        0.1581
     13  C17        3.3810   33.0980   56.3890 C.ar    0  <0>0        0.0381
     14  C16        3.0790   31.9650   57.1220 C.ar    0  <0>0       -0.0011
     15  C15        3.6780   31.7520   58.3500 C.ar    0  <0>0       -0.0204
     16  C14        4.5800   32.6710   58.8520 C.ar    0  <0>0        0.0141
     17  C20        3.3460   30.5140   59.1430 C.3     0  <0>0        0.0311
     18  O2         4.5830   35.1390   56.1660 O.3     0  <0>0       -0.4223
     19  C19        3.5170   36.0620   55.9290 C.3     0  <0>0        0.5087
     20  F1         2.8650   36.3420   57.1340 F       0  <0>0       -0.1550
     21  F2         4.0370   37.2460   55.3950 F       0  <0>0       -0.1550
     22  C5         9.9400   36.0500   60.0090 C.ar    0  <0>0        0.0060
     23  C4        10.1750   36.8850   61.0850 C.ar    0  <0>0       -0.0021
     24  C3        10.9870   36.4630   62.1220 C.ar    0  <0>0       -0.0045
     25  C2        11.5610   35.2060   62.0830 C.ar    0  <0>0       -0.0219
     26  C1        12.4450   34.7470   63.2140 C.3     0  <0>0        0.0310
     27  C7        11.3250   34.3720   61.0070 C.ar    0  <0>0       -0.0045
     28  C6        10.5110   34.7920   59.9720 C.ar    0  <0>0       -0.0021
@<TRIPOS>BOND
     1    21    19    1
     2    19    18    1
     3    19    20    1
     4    18    12    1
     5    13    12   ar
     6    13    14   ar
     7    12    11   ar
     8    14    15   ar
     9    10     9    2
    10    11     8    1
    11    11    16   ar
    12    15    16   ar
    13    15    17    1
    14     9     8    1
    15     9     2    1
    16     8     6   am
    17     1     2    1
    18     1     5    1
    19     1    22    1
    20     2     3    1
    21     5     4    1
    22     4     3    1
    23     6     3    1
    24     6     7    2
    25    28    22   ar
    26    28    27   ar
    27    22    23   ar
    28    27    25   ar
    29    23    24   ar
    30    25    24   ar
    31    25    26    1
