@<TRIPOS>MOLECULE
ZINC37137404_replica-1.pdb
 20 21 0 0 0
SMALL
GASTEIGER

@<TRIPOS>ATOM
      1  C8         0.5440   30.8200   55.9400 C.ar    0  <0>0        0.0848
      2  C9        -0.1930   30.7690   57.1320 C.ar    0  <0>0        0.1359
      3  N2        -0.0650   31.9170   57.7450 N.ar    0  <0>0       -0.1662
      4  N3         0.7570   32.7430   56.9680 N.ar    0  <0>0       -0.2456
      5  C10        1.1250   32.0440   55.8620 C.ar    0  <0>0        0.1110
      6  N1         0.6640   29.7840   54.9940 N.pl3   0  <0>0       -0.3316
      7  H17        1.3740   29.8110   54.3330 H       0  <0>0        0.1469
      8  C6        -0.2800   28.6640   55.0100 C.3     0  <0>0        0.0692
      9  C7         0.4800   27.3580   55.2490 C.3     0  <0>0        0.0212
     10  C5        -1.0080   28.5920   53.6660 C.3     0  <0>0        0.0195
     11  C4        -0.5580   27.3410   52.9090 C.3     0  <0>0        0.0017
     12  C3        -1.2100   27.3200   51.5250 C.3     0  <0>0        0.0001
     13  C2        -1.5080   25.8730   51.1240 C.3     0  <0>0        0.0000
     14  C1        -0.6120   24.9280   51.9270 C.3     0  <0>0        0.0000
     15  C11        1.1540   34.1150   57.2930 C.3     0  <0>0        0.1569
     16  C12        2.5720   34.3710   56.7780 C.3     0  <0>0        0.1396
     17  O1         3.5400   33.9130   57.7350 O.3     0  <0>0       -0.3542
     18  C15        4.6640   34.8030   57.7570 C.3     0  <0>0        0.1422
     19  C14        4.3750   35.9450   56.7590 C.3     0  <0>0        0.0346
     20  C13        2.8280   35.8920   56.6380 C.3     0  <0>0        0.0342
@<TRIPOS>BOND
     1    13    12    1
     2    13    14    1
     3    12    11    1
     4    11    10    1
     5    10     8    1
     6     7     6    1
     7     6     8    1
     8     6     1    1
     9     8     9    1
    10     5     1   ar
    11     5     4   ar
    12     1     2   ar
    13    20    19    1
    14    20    16    1
    15    19    18    1
    16    16    15    1
    17    16    17    1
    18     4    15    1
    19     4     3   ar
    20     2     3   ar
    21    17    18    1
