@<TRIPOS>MOLECULE
ZINC66154408_replica-1.pdb
 24 25 0 0 0
SMALL
GASTEIGER

@<TRIPOS>ATOM
      1  C11        5.8840   34.3650   60.0820 C.3     0  <0>0        0.1853
      2  O1         6.8350   35.1150   60.8400 O.3     0  <0>0       -0.4777
      3  C10        7.2560   36.2930   60.3090 C.ar    0  <0>0        0.1344
      4  C5         8.6100   36.5930   60.2700 C.ar    0  <0>0        0.0115
      5  C6         9.0350   37.7890   59.7240 C.ar    0  <0>0       -0.0013
      6  C7         8.1130   38.6890   59.2240 C.ar    0  <0>0       -0.0001
      7  C8         6.7620   38.3950   59.2680 C.ar    0  <0>0        0.0031
      8  C9         6.3310   37.2010   59.8110 C.ar    0  <0>0        0.0366
      9  C3         9.6160   35.6130   60.8150 C.3     0  <0>0        0.0253
     10  C4        10.3040   34.8900   59.6560 C.3     0  <0>0        0.0048
     11  C2        10.6630   36.3640   61.6410 C.3     0  <0>0        0.0045
     12  C1        11.6990   35.3720   62.1750 C.3     0  <0>0        0.0003
     13  C12        5.0450   33.5020   61.0270 C.3     0  <0>0        0.0453
     14  C13        3.6510   33.3000   60.4300 C.3     0  <0>0        0.0039
     15  C14        6.6210   33.4640   59.0890 C.3     0  <0>0        0.1312
     16  N1         6.1530   33.7490   57.7300 N.pl3   0  <0>0       -0.3291
     17  H22        5.5140   33.1570   57.3030 H       0  <0>0        0.1469
     18  C15        6.6270   34.8740   57.0490 C.ar    0  <0>0        0.0554
     19  C20        5.7350   35.8280   56.5760 C.ar    0  <0>0        0.0707
     20  C19        6.2080   36.9420   55.9070 C.ar    0  <0>0        0.0126
     21 Cl          4.0300   35.6270   56.8320 Cl      0  <0>0       -0.0810
     22  C18        7.5650   37.1000   55.6990 C.ar    0  <0>0        0.0009
     23  C17        8.4550   36.1480   56.1630 C.ar    0  <0>0        0.0013
     24  C16        7.9890   35.0360   56.8370 C.ar    0  <0>0        0.0152
@<TRIPOS>BOND
     1    22    20   ar
     2    22    23   ar
     3    20    19   ar
     4    23    24   ar
     5    19    21    1
     6    19    18   ar
     7    24    18   ar
     8    18    16    1
     9    17    16    1
    10    16    15    1
    11    15     1    1
    12     6     7   ar
    13     6     5   ar
    14     7     8   ar
    15    10     9    1
    16     5     4   ar
    17     8     3   ar
    18     1     2    1
    19     1    13    1
    20     4     3   ar
    21     4     9    1
    22     3     2    1
    23    14    13    1
    24     9    11    1
    25    11    12    1
