@<TRIPOS>MOLECULE
ZINC51362871_replica-1.pdb
 21 23 0 0 0
SMALL
GASTEIGER

@<TRIPOS>ATOM
      1  C1         6.8750   35.3690   57.7410 C.3     0  <0>0        0.1369
      2  N1         7.3690   35.8950   59.0170 N.ar    0  <0>0       -0.2601
      3  C2         8.6050   35.6180   59.6000 C.ar    0  <0>0        0.1000
      4  C3         9.6840   34.8360   59.2190 C.ar    0  <0>0        0.0202
      5  C4        10.7990   34.7600   60.0300 C.ar    0  <0>0       -0.0014
      6  C5        10.8420   35.4640   61.2210 C.ar    0  <0>0       -0.0046
      7  C6         9.7720   36.2460   61.6070 C.ar    0  <0>0        0.0360
      8  C7         8.6480   36.3280   60.8000 C.ar    0  <0>0        0.1657
      9  O1         7.4740   36.9970   60.9130 O.2     0  <0>0       -0.4068
     10  C8         6.7120   36.7380   59.8390 C.ar    0  <0>0        0.4220
     11  O2         5.6020   37.1910   59.6390 O.2     0  <0>0       -0.2226
     12  C9        12.0620   35.3740   62.1010 C.3     0  <0>0        0.1036
     13 Br         11.8020   36.4910   63.6990 Br      0  <0>0       -0.0719
     14  C10       12.2760   33.9420   62.5180 C.ar    0  <0>0        0.0198
     15  C15       13.5620   33.4530   62.6800 C.ar    0  <0>0        0.1395
     16  C14       13.7590   32.1400   63.0690 C.ar    0  <0>0        0.0590
     17  F1        14.6240   34.2610   62.4630 F       0  <0>0       -0.2044
     18  C13       12.6700   31.3130   63.2840 C.ar    0  <0>0        0.1424
     19  C12       11.3860   31.8020   63.1170 C.ar    0  <0>0        0.0295
     20  F2        12.8610   30.0290   63.6600 F       0  <0>0       -0.2041
     21  C11       11.1890   33.1150   62.7340 C.ar    0  <0>0        0.0014
@<TRIPOS>BOND
     1     1     2    1
     2     2     3   ar
     3     2    10   ar
     4     4     3   ar
     5     4     5   ar
     6     3     8   ar
     7    11    10    2
     8    10     9   ar
     9     5     6   ar
    10     8     9   ar
    11     8     7   ar
    12     6     7   ar
    13     6    12    1
    14    12    14    1
    15    12    13    1
    16    17    15    1
    17    14    15   ar
    18    14    21   ar
    19    15    16   ar
    20    21    19   ar
    21    16    18   ar
    22    19    18   ar
    23    18    20    1
