@<TRIPOS>MOLECULE
ZINC40315908_replica-1.pdb
 32 34 0 0 0
SMALL
GASTEIGER

@<TRIPOS>ATOM
      1  N1         1.6290   31.9000   58.6190 N.4     0  <0>0        0.3963
      2  H32        1.0520   32.7260   58.6850 H       0  <0>0       -0.0785
      3  C12        0.8870   30.8390   57.9240 C.3     0  <0>0       -0.0425
      4  C11       -0.5380   31.3180   57.6360 C.3     0  <0>0        0.1335
      5  C10       -1.2780   30.2550   56.8220 C.3     0  <0>0        0.2321
      6  O1        -0.4190   29.1340   56.6100 O.3     0  <0>0       -0.4729
      7  C7        -0.4850   28.5270   55.3950 C.ar    0  <0>0        0.1387
      8  C6        -1.2770   29.0650   54.3920 C.ar    0  <0>0        0.0366
      9  C5        -1.3410   28.4460   53.1580 C.ar    0  <0>0       -0.0012
     10  C4        -0.6170   27.2930   52.9230 C.ar    0  <0>0       -0.0223
     11  C9         0.1690   26.7510   53.9240 C.ar    0  <0>0       -0.0012
     12  C8         0.2410   27.3680   55.1580 C.ar    0  <0>0        0.0366
     13  C2        -0.6880   26.6200   51.5770 C.3     0  <0>0        0.0224
     14  C1        -0.7660   25.1040   51.7670 C.3     0  <0>0        0.0047
     15  C3        -1.9330   27.1050   50.8300 C.3     0  <0>0        0.0047
     16  O4        -0.4890   32.5380   56.8940 O.3     0  <0>0       -0.3828
     17  H31       -0.9660   33.2700   57.3080 H       0  <0>0        0.2104
     18  C13        2.8520   32.2150   57.8690 C.3     0  <0>0       -0.0461
     19  C14        3.3400   33.5860   58.2580 C.ar    0  <0>0       -0.0092
     20  C19        2.6180   34.7110   57.8900 C.ar    0  <0>0        0.1327
     21  C18        3.0680   35.9720   58.2550 C.ar    0  <0>0        0.0365
     22  C17        4.2390   36.1040   58.9750 C.ar    0  <0>0        0.0031
     23  C16        4.9610   34.9810   59.3360 C.ar    0  <0>0       -0.0002
     24  C15        4.5120   33.7240   58.9770 C.ar    0  <0>0       -0.0034
     25  O2         1.4690   34.5800   57.1770 O.3     0  <0>0       -0.4718
     26  C20        0.6470   35.7410   57.0500 C.3     0  <0>0        0.2524
     27  C21        1.9860   31.4430   59.9690 C.3     0  <0>0       -0.0104
     28  C22        1.0820   32.1030   60.9780 C.ar    0  <0>0        0.1022
     29  O3         0.3340   31.4680   61.8950 O.2     0  <0>0       -0.4568
     30  C25       -0.3420   32.3710   62.6240 C.ar    0  <0>0        0.1790
     31  C24       -0.0370   33.5990   62.1690 C.ar    0  <0>0        0.0434
     32  C23        0.8800   33.4270   61.1070 C.ar    0  <0>0        0.0340
@<TRIPOS>BOND
     1    15    13    1
     2    13    14    1
     3    13    10    1
     4    10     9   ar
     5    10    11   ar
     6     9     8   ar
     7    11    12   ar
     8     8     7   ar
     9    12     7   ar
    10     7     6    1
    11     6     5    1
    12     5     4    1
    13    16    17    1
    14    16     4    1
    15    26    25    1
    16    25    20    1
    17     4     3    1
    18    18    19    1
    19    18     1    1
    20    20    21   ar
    21    20    19   ar
    22     3     1    1
    23    21    22   ar
    24    19    24   ar
    25     1     2    1
    26     1    27    1
    27    22    23   ar
    28    24    23   ar
    29    27    28    1
    30    28    32   ar
    31    28    29   ar
    32    32    31   ar
    33    29    30   ar
    34    31    30   ar
