@<TRIPOS>MOLECULE
ZINC62171522_replica-1.pdb
 22 23 0 0 0
SMALL
GASTEIGER

@<TRIPOS>ATOM
      1  C10        0.5620   30.6020   56.7270 C.ar    0  <0>0        0.0448
      2  C11        0.6680   30.4250   58.1000 C.ar    0  <0>0        0.0174
      3  C12        0.5790   31.5140   58.9450 C.ar    0  <0>0        0.0382
      4  C13        0.3840   32.7840   58.4230 C.ar    0  <0>0        0.1388
      5  C14        0.2780   32.9620   57.0520 C.ar    0  <0>0        0.0382
      6  C15        0.3720   31.8750   56.2040 C.ar    0  <0>0        0.0174
      7  N1         0.6520   29.4990   55.8700 N.pl3   0  <0>0       -0.3337
      8  H12        1.5210   29.1760   55.5860 H       0  <0>0        0.1468
      9  C2        -0.5660   28.8330   55.4040 C.3     0  <0>0        0.0734
     10  C1        -1.7400   29.2290   56.3020 C.3     0  <0>0        0.0215
     11  C3        -0.8600   29.2570   53.9640 C.3     0  <0>0        0.0458
     12  C4        -0.9130   28.0370   53.0810 C.ar    0  <0>0       -0.0205
     13  C9        -1.6100   28.0760   51.8880 C.ar    0  <0>0       -0.0042
     14  C8        -1.6550   26.9590   51.0760 C.ar    0  <0>0       -0.0003
     15  C7        -1.0110   25.7990   51.4620 C.ar    0  <0>0       -0.0000
     16  C6        -0.3180   25.7560   52.6580 C.ar    0  <0>0       -0.0003
     17  C5        -0.2700   26.8750   53.4670 C.ar    0  <0>0       -0.0042
     18  O1         0.2970   33.8550   59.2560 O.3     0  <0>0       -0.4727
     19  C16        0.7020   33.6570   60.6120 C.3     0  <0>0        0.2373
     20  C17       -0.3460   34.2580   61.5500 C.3     0  <0>0        0.1894
     21  O2        -0.3280   33.5580   62.7950 O.3     0  <0>0       -0.3471
     22  C18       -0.0780   32.1560   62.6710 C.3     0  <0>0        0.1743
@<TRIPOS>BOND
     1    14    15   ar
     2    14    13   ar
     3    15    16   ar
     4    13    12   ar
     5    16    17   ar
     6    12    17   ar
     7    12    11    1
     8    11     9    1
     9     9     7    1
    10     9    10    1
    11     8     7    1
    12     7     1    1
    13     6     1   ar
    14     6     5   ar
    15     1     2   ar
    16     5     4   ar
    17     2     3   ar
    18     4     3   ar
    19     4    18    1
    20    18    19    1
    21    19    20    1
    22    20    21    1
    23    22    21    1
