@<TRIPOS>MOLECULE
ZINC36591879_replica-1.pdb
 31 31 0 0 0
SMALL
GASTEIGER

@<TRIPOS>ATOM
      1  C5         5.1420   34.4890   57.9690 C.3     0  <0>0        0.1749
      2  N1         5.6800   34.1620   56.6460 N.am    0  <0>0       -0.2696
      3  C4         6.3050   32.9840   56.4460 C.2     0  <0>0        0.2455
      4  O1         6.7990   32.7340   55.3630 O.2     0  <0>0       -0.2702
      5  C2         6.3870   32.0000   57.5360 C.2     0  <0>0        0.0317
      6  C1         5.1730   31.1890   57.9130 C.3     0  <0>0        0.0358
      7  C3         7.5320   31.8250   58.1900 C.2     0  <0>0        0.0000
      8  C21        5.5420   35.1140   55.5420 C.3     0  <0>0        0.0614
      9  C22        4.5950   36.2430   55.9570 C.3     0  <0>0        0.0199
     10  C23        6.9130   35.7000   55.2000 C.3     0  <0>0        0.0199
     11  C24        4.9740   34.3970   54.3160 C.3     0  <0>0        0.0199
     12  C6         3.6440   34.6240   57.8830 C.ar    0  <0>0        0.0075
     13  C11        2.9270   33.8120   57.0250 C.ar    0  <0>0        0.0344
     14  C10        1.5470   33.9310   56.9500 C.ar    0  <0>0        0.1334
     15  C9         0.8910   34.8740   57.7280 C.ar    0  <0>0        0.0366
     16  C8         1.6130   35.6890   58.5800 C.ar    0  <0>0        0.0028
     17  C7         2.9880   35.5630   58.6570 C.ar    0  <0>0       -0.0020
     18  O2         0.8390   33.1300   56.1110 O.3     0  <0>0       -0.5055
     19  H11        1.2450   33.0150   55.2420 H       0  <0>0        0.2922
     20  C12        5.7370   35.7890   58.4450 C.2     0  <0>0        0.2448
     21  O3         5.0170   36.7420   58.6630 O.2     0  <0>0       -0.2729
     22  N2         7.0680   35.8940   58.6300 N.am    0  <0>0       -0.3059
     23  H12        7.6430   35.1320   58.4560 H       0  <0>0        0.1494
     24  C13        7.6460   37.1580   59.0930 C.3     0  <0>0        0.0569
     25  C14        7.8010   38.1120   57.9080 C.3     0  <0>0        0.0196
     26  C15        6.7240   37.7880   60.1390 C.3     0  <0>0        0.0196
     27  C16        9.0180   36.8920   59.7170 C.3     0  <0>0        0.0180
     28  C17        9.3300   35.3960   59.6450 C.3     0  <0>0        0.0015
     29  C18        8.2540   34.6140   60.4010 C.3     0  <0>0        0.0001
     30  C19        9.3540   34.9490   58.1820 C.3     0  <0>0        0.0001
     31  C20       10.6960   35.1290   60.2820 C.3     0  <0>0        0.0001
@<TRIPOS>BOND
     1    11     8    1
     2    10     8    1
     3    19    18    1
     4     4     3    2
     5     8     9    1
     6     8     2    1
     7    18    14    1
     8     3     2   am
     9     3     5    1
    10     2     1    1
    11    14    13   ar
    12    14    15   ar
    13    13    12   ar
    14     5     6    1
    15     5     7    2
    16    15    16   ar
    17    12     1    1
    18    12    17   ar
    19    25    24    1
    20     1    20    1
    21    30    28    1
    22    20    22   am
    23    20    21    2
    24    23    22    1
    25    16    17   ar
    26    22    24    1
    27    24    27    1
    28    24    26    1
    29    28    27    1
    30    28    31    1
    31    28    29    1
