@<TRIPOS>MOLECULE
ZINC16850156_replica-1.pdb
 28 30 0 0 0
SMALL
GASTEIGER

@<TRIPOS>ATOM
      1  C7         8.7490   35.6420   59.8020 C.2     0  <0>0        0.2106
      2  N2         8.8690   36.3240   58.6780 N.2     0  <0>0       -0.3880
      3  C8         8.3070   37.5080   58.5350 C.2     0  <0>0        0.1094
      4  C9         7.5960   38.0160   59.5710 C.3     0  <0>0        0.1206
      5  S1         7.7690   36.7010   60.7690 S.3     0  <0>0       -0.0597
      6  N1         9.2660   34.3970   60.1250 N.pl3   0  <0>0       -0.2830
      7  H5         8.9180   33.6000   59.6960 H       0  <0>0        0.1551
      8  C6        10.2930   34.2900   61.0710 C.ar    0  <0>0        0.0507
      9  C1        10.5710   33.0630   61.6600 C.ar    0  <0>0        0.0178
     10  C2        11.5840   32.9590   62.5930 C.ar    0  <0>0        0.0385
     11  C3        12.3250   34.0790   62.9410 C.ar    0  <0>0        0.1469
     12  C4        12.0440   35.3060   62.3570 C.ar    0  <0>0        0.0385
     13  C5        11.0350   35.4110   61.4210 C.ar    0  <0>0        0.0178
     14  O2        13.3220   33.9750   63.8590 O.3     0  <0>0       -0.4045
     15  C17       14.5600   33.4200   63.4120 C.3     0  <0>0        0.5753
     16  F1        14.5140   32.0260   63.5260 F       0  <0>0       -0.1328
     17  F2        15.6060   33.9180   64.1970 F       0  <0>0       -0.1328
     18  F3        14.7730   33.7720   62.0750 F       0  <0>0       -0.1328
     19  C10        8.4500   38.2790   57.2480 C.3     0  <0>0        0.1402
     20  C11        7.4700   37.7500   56.2340 C.2     0  <0>0        0.2293
     21  O1         7.2240   38.3930   55.2350 O.2     0  <0>0       -0.2747
     22  N3         6.8680   36.5610   56.4340 N.am    0  <0>0       -0.3056
     23  H9         7.0650   36.0460   57.2330 H       0  <0>0        0.1494
     24  C12        5.9140   36.0460   55.4480 C.3     0  <0>0        0.0716
     25  C16        6.0810   34.5230   55.3000 C.3     0  <0>0        0.0196
     26  C15        4.7310   33.8920   55.7000 C.3     0  <0>0        0.0017
     27  C14        3.6990   35.0260   55.4720 C.3     0  <0>0        0.0017
     28  C13        4.4700   36.2870   55.9320 C.3     0  <0>0        0.0196
@<TRIPOS>BOND
     1    21    20    2
     2    25    24    1
     3    25    26    1
     4    24    28    1
     5    24    22    1
     6    27    26    1
     7    27    28    1
     8    20    22   am
     9    20    19    1
    10    22    23    1
    11    19     3    1
    12     3     2    2
    13     3     4    1
    14     2     1    2
    15     4     5    1
    16     7     6    1
    17     1     6    1
    18     1     5    1
    19     6     8    1
    20     8    13   ar
    21     8     9   ar
    22    13    12   ar
    23     9    10   ar
    24    18    15    1
    25    12    11   ar
    26    10    11   ar
    27    11    14    1
    28    15    16    1
    29    15    14    1
    30    15    17    1
