@<TRIPOS>MOLECULE
ZINC05945652_replica-1.pdb
 24 26 0 0 0
SMALL
GASTEIGER

@<TRIPOS>ATOM
      1  C1        -1.8700   27.3650   50.9120 C.ar    0  <0>0        0.0007
      2  C2        -1.2120   26.2790   51.4050 C.ar    0  <0>0        0.0001
      3  C3        -0.6010   26.3240   52.6690 C.ar    0  <0>0        0.0020
      4  C4         0.0810   25.2120   53.1910 C.ar    0  <0>0        0.0001
      5  C5         0.6610   25.2940   54.4200 C.ar    0  <0>0        0.0014
      6  C6         0.5890   26.4650   55.1700 C.ar    0  <0>0        0.0202
      7  C7        -0.0640   27.5620   54.6950 C.ar    0  <0>0        0.1258
      8  C8        -0.6770   27.5130   53.4370 C.ar    0  <0>0        0.0285
      9  C9        -1.3840   28.6660   52.8850 C.ar    0  <0>0        0.0697
     10  C10       -1.9640   28.5500   51.6280 C.ar    0  <0>0        0.0103
     11  C11       -1.4790   29.8870   53.6250 C.1     0  <0>0        0.1005
     12  N1        -1.5550   30.8570   54.2120 N.1     0  <0>0       -0.1908
     13  S1        -0.1430   29.0350   55.6610 S.O2    0  <0>0        0.0736
     14  O1        -1.4830   29.1480   56.1200 O.2     0  <0>0       -0.1499
     15  O2         0.4900   30.0540   54.8990 O.2     0  <0>0       -0.1499
     16  N2         0.7990   28.7920   57.0010 N.pl3   0  <0>0       -0.2150
     17  H7         1.4580   28.0800   57.0080 H       0  <0>0        0.1737
     18  C12        0.6460   29.6130   58.1220 C.ar    0  <0>0        0.0649
     19  C17        0.0620   29.1100   59.2770 C.ar    0  <0>0        0.0182
     20  C16       -0.0840   29.9210   60.3850 C.ar    0  <0>0        0.0309
     21  C15        0.3500   31.2350   60.3450 C.ar    0  <0>0        0.1402
     22  C14        0.9320   31.7390   59.1940 C.ar    0  <0>0        0.0309
     23  F1         0.2070   32.0270   61.4300 F       0  <0>0       -0.2042
     24  C13        1.0810   30.9310   58.0840 C.ar    0  <0>0        0.0182
@<TRIPOS>BOND
     1     1     2   ar
     2     1    10   ar
     3     2     3   ar
     4    10     9   ar
     5     3     4   ar
     6     3     8   ar
     7     9     8   ar
     8     9    11    1
     9     4     5   ar
    10     8     7   ar
    11    11    12    3
    12     5     6   ar
    13     7     6   ar
    14     7    13    1
    15    15    13    2
    16    13    14    2
    17    13    16    1
    18    16    17    1
    19    16    18    1
    20    24    18   ar
    21    24    22   ar
    22    18    19   ar
    23    22    21   ar
    24    19    20   ar
    25    21    20   ar
    26    21    23    1
