@<TRIPOS>MOLECULE
ZINC66199363_replica-1.pdb
 30 31 0 0 0
SMALL
GASTEIGER

@<TRIPOS>ATOM
      1  C13        7.0780   36.6470   59.0330 C.2     0  <0>0        0.2416
      2  O1         6.5000   37.6220   59.4650 O.2     0  <0>0       -0.2732
      3  N1         6.4470   35.4570   58.9810 N.am    0  <0>0       -0.2334
      4  H18        6.9090   34.6780   58.6360 H       0  <0>0        0.1728
      5  N2         5.1230   35.3480   59.4250 N.am    0  <0>0       -0.2302
      6  C14        4.4740   34.1710   59.3230 C.2     0  <0>0        0.2643
      7  O2         5.0370   33.2040   58.8460 O.2     0  <0>0       -0.2685
      8  H19        4.6730   36.1180   59.8060 H       0  <0>0        0.1731
      9  C15        3.0790   34.0550   59.7910 C.ar    0  <0>0        0.0887
     10  C20        2.1100   34.9670   59.3500 C.ar    0  <0>0        0.1434
     11  C19        0.8010   34.8450   59.7920 C.ar    0  <0>0        0.0371
     12  C18        0.4580   33.8370   60.6710 C.ar    0  <0>0        0.0031
     13  C17        1.4140   32.9370   61.1120 C.ar    0  <0>0        0.0003
     14  C16        2.7180   33.0390   60.6790 C.ar    0  <0>0        0.0076
     15  O3         2.4500   35.9610   58.4930 O.3     0  <0>0       -0.4705
     16  C21        2.1230   35.7690   57.1150 C.3     0  <0>0        0.2318
     17  C22        3.3200   36.1020   56.2630 C.2     0  <0>0        0.0207
     18  C23        3.6580   35.3150   55.2710 C.2     0  <0>0       -0.0011
     19  C2         8.5030   36.7650   58.5550 C.3     0  <0>0        0.1002
     20  C1         8.6970   35.8970   57.3100 C.3     0  <0>0        0.0144
     21  C3         9.4380   36.3020   59.6420 C.ar    0  <0>0       -0.0138
     22  C8        10.0990   35.0940   59.5170 C.ar    0  <0>0       -0.0041
     23  C7        10.9600   34.6710   60.5120 C.ar    0  <0>0       -0.0046
     24  C6        11.1530   35.4500   61.6360 C.ar    0  <0>0       -0.0222
     25  C5        10.4880   36.6550   61.7650 C.ar    0  <0>0       -0.0046
     26  C4         9.6300   37.0810   60.7680 C.ar    0  <0>0       -0.0041
     27  C9        12.0890   34.9870   62.7230 C.3     0  <0>0        0.0263
     28  C10       12.7710   33.6880   62.2890 C.3     0  <0>0        0.0044
     29  C11       14.2820   33.8140   62.4880 C.3     0  <0>0        0.0003
     30  C12       12.2400   32.5270   63.1320 C.3     0  <0>0        0.0003
@<TRIPOS>BOND
     1    18    17    2
     2    17    16    1
     3    16    15    1
     4    20    19    1
     5    15    10    1
     6    19     1    1
     7    19    21    1
     8     4     3    1
     9     7     6    2
    10     3     1   am
    11     3     5    1
    12     1     2    2
    13     6     5   am
    14     6     9    1
    15    10     9   ar
    16    10    11   ar
    17     5     8    1
    18    22    21   ar
    19    22    23   ar
    20    21    26   ar
    21     9    14   ar
    22    11    12   ar
    23    23    24   ar
    24    12    13   ar
    25    14    13   ar
    26    26    25   ar
    27    24    25   ar
    28    24    27    1
    29    28    29    1
    30    28    27    1
    31    28    30    1
