@<TRIPOS>MOLECULE
ZINC32879820_replica-1.pdb
 23 26 0 0 0
SMALL
GASTEIGER

@<TRIPOS>ATOM
      1  C1        -0.3950   24.7190   51.4190 C.3     0  <0>0        0.0308
      2  C2        -0.4340   25.8620   52.4020 C.ar    0  <0>0       -0.0229
      3  C3         0.2690   25.7660   53.5940 C.ar    0  <0>0       -0.0044
      4  C4         0.2450   26.7910   54.4980 C.ar    0  <0>0        0.0024
      5  C5        -0.4890   27.9470   54.2150 C.ar    0  <0>0        0.0319
      6  C6        -0.5400   29.0620   55.1670 C.ar    0  <0>0        0.0032
      7  C7        -1.2760   30.1530   54.8350 C.ar    0  <0>0        0.0795
      8  C8        -1.9690   30.1860   53.6060 C.ar    0  <0>0        0.3456
      9  O1        -2.6250   31.1710   53.3210 O.2     0  <0>0       -0.2445
     10  O2        -1.9210   29.1590   52.7420 O.2     0  <0>0       -0.4214
     11  C9        -1.2080   28.0450   53.0110 C.ar    0  <0>0        0.1441
     12  C10       -1.1700   26.9910   52.1080 C.ar    0  <0>0        0.0089
     13  C11       -1.9300   27.0800   50.8090 C.3     0  <0>0        0.0339
     14  C12        0.2090   28.9990   56.4730 C.3     0  <0>0        0.0997
     15  N1         0.2220   30.3310   57.0930 N.3     0  <0>0       -0.2648
     16  C19        0.6170   30.2500   58.5050 C.3     0  <0>0        0.0996
     17  C16        0.6350   31.6590   59.0880 C.ar    0  <0>0       -0.0036
     18  C15        0.6890   32.7340   58.2510 C.ar    0  <0>0        0.0060
     19  C17        0.5970   31.9360   60.4530 C.ar    0  <0>0        0.0042
     20  C14        0.7390   32.6980   56.7580 C.3     0  <0>0        0.0500
     21  S1         0.6870   34.1250   59.3450 S.2     0  <0>0       -0.0910
     22  C13        1.0730   31.2590   56.3330 C.3     0  <0>0        0.0779
     23  C18        0.6160   33.2200   60.8840 C.ar    0  <0>0        0.0348
@<TRIPOS>BOND
     1    13    12    1
     2     1     2    1
     3    12     2   ar
     4    12    11   ar
     5     2     3   ar
     6    10    11   ar
     7    10     8   ar
     8    11     5   ar
     9     9     8    2
    10     3     4   ar
    11     8     7   ar
    12     5     4   ar
    13     5     6   ar
    14     7     6   ar
    15     6    14    1
    16    22    20    1
    17    22    15    1
    18    14    15    1
    19    20    18    1
    20    15    16    1
    21    18    17   ar
    22    18    21   ar
    23    16    17    1
    24    17    19   ar
    25    21    23   ar
    26    19    23   ar
