@<TRIPOS>MOLECULE
ZINC05445679_replica-1.pdb
 20 21 0 0 0
SMALL
GASTEIGER

@<TRIPOS>ATOM
      1  C1         6.4290   36.8950   56.5170 C.3     0  <0>0        0.0001
      2  C2         7.9110   36.9450   56.1430 C.3     0  <0>0        0.0036
      3  C3         8.6140   38.0120   56.9860 C.3     0  <0>0        0.0002
      4  C4         8.4730   37.6640   58.4700 C.3     0  <0>0        0.0036
      5  C5         9.1130   36.3000   58.7370 C.3     0  <0>0        0.0402
      6  C6         8.4110   35.2330   57.8920 C.3     0  <0>0        0.1687
      7  C7         8.5510   35.5810   56.4090 C.3     0  <0>0        0.0436
      8  O1         9.0190   33.9390   58.1460 O.3     0  <0>0       -0.4517
      9  C8         8.1870   32.9110   58.3790 C.2     0  <0>0        0.3284
     10  O2         8.6180   31.7820   58.4150 O.2     0  <0>0       -0.2491
     11  C9         6.7180   33.1630   58.5970 C.3     0  <0>0        0.1733
     12  S1         5.7520   32.0070   57.5940 S.3     0  <0>0       -0.0765
     13  C10        5.2130   33.0910   56.3130 C.ar    0  <0>0        0.1370
     14  S2         3.6670   33.9740   56.2340 S.2     0  <0>0       -0.0597
     15  C12        3.9100   34.8360   54.6340 C.ar    0  <0>0        0.0580
     16  C11        5.3140   34.3160   54.2530 C.ar    0  <0>0        0.1071
     17  N1         5.8610   33.4100   55.2360 N.ar    0  <0>0       -0.2305
     18  C13        8.9720   35.9510   60.2200 C.3     0  <0>0        0.0035
     19  C14       10.2070   36.4440   60.9780 C.3     0  <0>0        0.0001
     20  C15        7.7220   36.6280   60.7850 C.3     0  <0>0        0.0001
@<TRIPOS>BOND
     1    16    15   ar
     2    16    17   ar
     3    15    14   ar
     4    17    13   ar
     5     2     7    1
     6     2     1    1
     7     2     3    1
     8    14    13   ar
     9    13    12    1
    10     7     6    1
    11     3     4    1
    12    12    11    1
    13     6     8    1
    14     6     5    1
    15     8     9    1
    16     9    10    2
    17     9    11    1
    18     4     5    1
    19     5    18    1
    20    18    20    1
    21    18    19    1
